REMARK  9 active torsions:
REMARK  status: ('A' for Active; 'I' for Inactive)
REMARK    1  A    between atoms: C2_2  and  C3_3 
REMARK    2  A    between atoms: C3_3  and  N1_4 
REMARK    3  A    between atoms: N1_4  and  C4_5 
REMARK    4  A    between atoms: N1_4  and  C12_15 
REMARK    5  A    between atoms: C4_5  and  C5_6 
REMARK    6  A    between atoms: C8_9  and  C9_11 
REMARK    7  A    between atoms: C10_12  and  C11_13 
REMARK    8  A    between atoms: C11_13  and  N2_14 
REMARK    9  A    between atoms: C12_15  and  C13_16 
REMARK       I    between atoms: C13_16  and  N3_18 
ROOT
ATOM      1  C5  <0> d           0.888  -2.153   3.883  0.00  0.00     0.010 A 
ATOM      2  C6  <0> d          -0.121  -2.759   4.561  0.00  0.00     0.018 A 
ATOM      3  C7  <0> d          -0.606  -2.172   5.709  0.00  0.00     0.029 A 
ATOM      4  C8  <0> d          -0.050  -0.991   6.130  0.00  0.00     0.058 A 
ATOM      5  S1  <0> d           1.192  -0.704   4.880  0.00  0.00    -0.084 SA
ENDROOT
BRANCH   1   6
ATOM      6  C4  <0> d           1.578  -2.595   2.618  0.00  0.00     0.281 C 
BRANCH   6   7
ATOM      7  N1  <0> d           0.879  -2.029   1.456  0.00  0.00    -0.058 N 
ATOM      8  H22 <0> d          -0.096  -2.284   1.493  0.00  0.00     0.280 HD
BRANCH   7   9
ATOM      9  C3  <0> d           1.003  -0.565   1.476  0.00  0.00     0.235 C 
BRANCH   9  10
ATOM     10  C2  <0> d           0.163   0.033   0.346  0.00  0.00     0.023 C 
ATOM     11  C1  <0> d           0.169   1.559   0.458  0.00  0.00     0.007 C 
ENDBRANCH   9  10
ENDBRANCH   7   9
BRANCH   7  12
ATOM     12  C12 <0> d           1.477  -2.554   0.222  0.00  0.00     0.337 C 
BRANCH  12  13
ATOM     13  C13 <0> d           1.203  -4.032   0.120  0.00  0.00     0.243 C 
ATOM     14  O1  <0> d           0.474  -4.570   0.926  0.00  0.00    -0.272 OA
ATOM     15  N3  <0> d           1.767  -4.756  -0.866  0.00  0.00    -0.364 N 
ATOM     16  C14 <0> d           1.500  -6.194  -0.965  0.00  0.00     0.149 C 
ATOM     17  H18 <0> d           2.351  -4.326  -1.511  0.00  0.00     0.161 HD
ENDBRANCH  12  13
ENDBRANCH   7  12
ENDBRANCH   6   7
ENDBRANCH   1   6
BRANCH   4  18
ATOM     18  C9  <0> d          -0.376  -0.198   7.277  0.00  0.00    -0.058 C 
ATOM     19  C10 <0> d          -0.644   0.452   8.217  0.00  0.00    -0.073 C 
BRANCH  19  20
ATOM     20  C11 <0> d          -0.980   1.267   9.396  0.00  0.00     0.323 C 
BRANCH  20  21
ATOM     21  N2  <0> d          -0.112   2.451   9.435  0.00  0.00    -0.069 N 
ATOM     22  H14 <0> d           0.853   2.160   9.492  0.00  0.00     0.275 HD
ATOM     23  H15 <0> d          -0.250   2.998   8.598  0.00  0.00     0.275 HD
ATOM     24  H23 <0> d          -0.342   3.010  10.243  0.00  0.00     0.275 HD
ENDBRANCH  20  21
ENDBRANCH  19  20
ENDBRANCH   4  18
TORSDOF 9
