REMARK  5 active torsions:
REMARK  status: ('A' for Active; 'I' for Inactive)
REMARK    1  A    between atoms: C2_2  and  N1_3 
REMARK    2  A    between atoms: N1_3  and  C3_4 
REMARK    3  A    between atoms: N2_11  and  C11_14 
REMARK    4  A    between atoms: C11_14  and  C12_15 
REMARK    5  A    between atoms: C12_15  and  O2_16 
ROOT
ATOM      1  C3  <0> d           1.118  -1.565   1.902  0.00  0.00     0.347 A 
ATOM      2  C4  <0> d           2.167  -2.086   2.858  0.00  0.00     0.012 A 
ATOM      3  C5  <0> d           3.537  -1.954   2.908  0.00  0.00     0.019 A 
ATOM      4  C6  <0> d           4.252  -2.558   3.927  0.00  0.00    -0.061 A 
ATOM      5  C7  <0> d           3.587  -3.292   4.893  0.00  0.00     0.015 A 
ATOM      6  C8  <0> d           2.215  -3.425   4.845  0.00  0.00    -0.034 A 
ATOM      7  C9  <0> d           1.488  -2.820   3.822  0.00  0.00     0.052 A 
ATOM      8  N2  <0> d           0.117  -2.808   3.560  0.00  0.00    -0.313 N 
ATOM      9  C10 <0> d          -0.186  -2.100   2.456  0.00  0.00     0.262 A 
ATOM     10  O1  <0> d          -1.292  -1.921   1.992  0.00  0.00    -0.270 OA
ATOM     11  C13 <0> d           1.500  -4.228   5.902  0.00  0.00     0.050 C 
ATOM     12  C14 <0> d           5.751  -2.416   3.985  0.00  0.00     0.048 C 
ENDROOT
BRANCH   1  13
ATOM     13  N1  <0> d           1.111  -0.096   1.896  0.00  0.00     0.101 N 
ATOM     14  H7  <0> d           2.039   0.270   2.048  0.00  0.00     0.317 HD
BRANCH  13  15
ATOM     15  C2  <0> d           0.539   0.422   0.646  0.00  0.00     0.266 C 
ATOM     16  C1  <0> d           0.548   1.952   0.677  0.00  0.00     0.037 C 
ENDBRANCH  13  15
ENDBRANCH   1  13
BRANCH   8  17
ATOM     17  C11 <0> d          -0.879  -3.491   4.390  0.00  0.00     0.158 C 
BRANCH  17  18
ATOM     18  C12 <0> d          -1.194  -4.861   3.786  0.00  0.00     0.184 C 
BRANCH  18  19
ATOM     19  O2  <0> d          -0.011  -5.662   3.780  0.00  0.00    -0.399 OA
ATOM     20  H14 <0> d          -0.137  -6.547   3.410  0.00  0.00     0.209 HD
ENDBRANCH  18  19
ENDBRANCH  17  18
ENDBRANCH   8  17
TORSDOF 5
