REMARK  4 active torsions:
REMARK  status: ('A' for Active; 'I' for Inactive)
REMARK    1  A    between atoms: C9_14  and  C10_15 
REMARK    2  A    between atoms: C9_14  and  N6_23 
REMARK    3  A    between atoms: C10_15  and  C11_16 
REMARK    4  A    between atoms: C11_16  and  N4_17 
ROOT
ATOM      1  C1  <0> d          -2.471   1.214   0.033  0.00  0.00     0.162 C 
ATOM      2  N1  <0> d          -1.238   2.004   0.030  0.00  0.00    -0.293 N 
ATOM      3  C2  <0> d          -0.017   1.364   0.009  0.00  0.00     0.101 A 
ATOM      4  C3  <0> d           1.121   2.112   0.003  0.00  0.00     0.074 A 
ATOM      5  C4  <0> d           1.022   3.514   0.022  0.00  0.00     0.262 A 
ATOM      6  O1  <0> d           2.030   4.199   0.020  0.00  0.00    -0.267 OA
ATOM      7  N2  <0> d          -0.192   4.098   0.044  0.00  0.00    -0.270 N 
ATOM      8  C5  <0> d          -1.308   3.346   0.043  0.00  0.00     0.332 A 
ATOM      9  O2  <0> d          -2.395   3.889   0.059  0.00  0.00    -0.246 OA
ATOM     10  C6  <0> d          -0.297   5.559   0.069  0.00  0.00     0.164 C 
ATOM     11  C7  <0> d           2.487   1.477  -0.027  0.00  0.00     0.283 C 
ATOM     12  C8  <0> d           1.276  -0.551  -0.473  0.00  0.00     0.330 C 
ATOM     13  N3  <0> d           0.002  -0.004   0.002  0.00  0.00    -0.254 NA
ATOM     14  H11 <0> d          -0.234  -0.374   0.911  0.00  0.00     0.130 HD
ATOM     15  N6  <0> d           2.360   0.051   0.325  0.00  0.00    -0.055 N 
ATOM     16  H21 <0> d           2.131  -0.031   1.322  0.00  0.00     0.281 HD
ENDROOT
BRANCH  15  17
ATOM     17  C9  <0> d           3.638  -0.653   0.063  0.00  0.00     0.238 C 
BRANCH  17  18
ATOM     18  C10 <0> d           4.067  -0.441  -1.390  0.00  0.00     0.048 C 
BRANCH  18  19
ATOM     19  C11 <0> d           5.387  -1.173  -1.644  0.00  0.00     0.131 C 
BRANCH  19  20
ATOM     20  N4  <0> d           5.798  -0.970  -3.035  0.00  0.00    -0.350 N 
ATOM     21  C14 <0> d           6.573   0.032  -3.504  0.00  0.00     0.209 A 
ATOM     22  N5  <0> d           6.721  -0.121  -4.792  0.00  0.00    -0.255 NA
ATOM     23  C13 <0> d           6.052  -1.214  -5.187  0.00  0.00     0.135 A 
ATOM     24  C12 <0> d           5.472  -1.763  -4.102  0.00  0.00     0.111 A 
ENDBRANCH  19  20
ENDBRANCH  18  19
ENDBRANCH  17  18
ENDBRANCH  15  17
TORSDOF 4
