REMARK  6 active torsions:
REMARK  status: ('A' for Active; 'I' for Inactive)
REMARK    1  A    between atoms: C6_6  and  C8_8 
REMARK    2  A    between atoms: C8_8  and  S1_9 
REMARK    3  A    between atoms: S1_9  and  C9_10 
REMARK    4  A    between atoms: C10_13  and  N4_16 
REMARK    5  A    between atoms: N4_16  and  N5_17 
REMARK    6  A    between atoms: C11_18  and  C13_20 
ROOT
ATOM      1  C9  <0> d           1.615  -4.119   4.457  0.00  0.00     0.203 A 
ATOM      2  N1  <0> d           2.649  -4.561   5.231  0.00  0.00    -0.162 N 
ATOM      3  H1  <0> d           3.593  -4.465   5.030  0.00  0.00     0.186 HD
ATOM      4  C10 <0> d           2.121  -5.162   6.339  0.00  0.00     0.741 A 
ATOM      5  N2  <0> d           0.814  -5.095   6.253  0.00  0.00     0.046 NA
ATOM      6  N3  <0> d           0.493  -4.429   5.063  0.00  0.00    -0.108 NA
ENDROOT
BRANCH   4   7
ATOM      7  N4  <0> d           2.841  -5.743   7.374  0.00  0.00    -0.106 N 
ATOM      8  H11 <0> d           3.810  -5.745   7.348  0.00  0.00     0.208 HD
BRANCH   7   9
ATOM      9  N5  <0> d           2.167  -6.327   8.455  0.00  0.00    -0.163 NA
ATOM     10  C11 <0> d           2.837  -6.949   9.378  0.00  0.00     0.080 C 
ATOM     11  C12 <0> d           2.107  -7.700  10.462  0.00  0.00     0.075 C 
BRANCH  10  12
ATOM     12  C13 <0> d           4.310  -6.920   9.366  0.00  0.00     0.082 A 
ATOM     13  N6  <0> d           4.945  -5.792   9.062  0.00  0.00    -0.259 NA
ATOM     14  C17 <0> d           6.261  -5.725   9.045  0.00  0.00     0.117 A 
ATOM     15  C16 <0> d           7.033  -6.834   9.334  0.00  0.00     0.019 A 
ATOM     16  C15 <0> d           6.411  -8.035   9.652  0.00  0.00     0.004 A 
ATOM     17  C14 <0> d           5.029  -8.079   9.668  0.00  0.00     0.034 A 
ENDBRANCH  10  12
ENDBRANCH   7   9
ENDBRANCH   4   7
BRANCH   1  18
ATOM     18  S1  <0> d           1.760  -3.274   2.917  0.00  0.00    -0.085 SA
BRANCH  18  19
ATOM     19  C8  <0> d           0.043  -2.965   2.422  0.00  0.00     0.121 C 
BRANCH  19  20
ATOM     20  C6  <0> d           0.024  -2.238   1.102  0.00  0.00    -0.048 A 
ATOM     21  C5  <0> d          -0.006  -2.953  -0.081  0.00  0.00     0.008 A 
ATOM     22  C4  <0> d          -0.024  -2.285  -1.291  0.00  0.00     0.001 A 
ATOM     23  C3  <0> d          -0.012  -0.904  -1.319  0.00  0.00     0.007 A 
ATOM     24  C2  <0> d           0.018  -0.189  -0.136  0.00  0.00    -0.061 A 
ATOM     25  C1  <0> d           0.032   1.318  -0.167  0.00  0.00     0.048 C 
ATOM     26  C7  <0> d           0.041  -0.856   1.074  0.00  0.00     0.014 A 
ENDBRANCH  19  20
ENDBRANCH  18  19
ENDBRANCH   1  18
TORSDOF 6
