REMARK  3 active torsions:
REMARK  status: ('A' for Active; 'I' for Inactive)
REMARK    1  A    between atoms: C5_5  and  C16_19 
REMARK    2  A    between atoms: C6_6  and  C7_8 
REMARK    3  A    between atoms: C11_12  and  C13_14 
REMARK       I    between atoms: C16_19  and  N4_21 
ROOT
ATOM      1  C1  <0> d           2.510  -0.487  -1.100  0.00  0.00     0.070 C 
ATOM      2  C2  <0> d           1.196  -0.945  -0.524  0.00  0.00     0.031 A 
ATOM      3  C3  <0> d           0.013  -0.505  -1.094  0.00  0.00     0.028 A 
ATOM      4  C4  <0> d          -1.195  -0.924  -0.566  0.00  0.00     0.021 A 
ATOM      5  C5  <0> d          -1.177  -1.787   0.535  0.00  0.00     0.061 A 
ATOM      6  C6  <0> d           0.065  -2.191   1.058  0.00  0.00     0.083 A 
ATOM      7  N1  <0> d           1.193  -1.762   0.510  0.00  0.00    -0.252 NA
ENDROOT
BRANCH   6   8
ATOM      8  C7  <0> d           0.111  -3.103   2.224  0.00  0.00    -0.006 A 
ATOM      9  C12 <0> d           0.840  -2.751   3.360  0.00  0.00     0.023 A 
ATOM     10  C11 <0> d           0.875  -3.603   4.445  0.00  0.00    -0.029 A 
ATOM     11  C10 <0> d           0.199  -4.809   4.403  0.00  0.00     0.009 A 
ATOM     12  C9  <0> d          -0.521  -5.166   3.277  0.00  0.00     0.002 A 
ATOM     13  C8  <0> d          -0.568  -4.321   2.188  0.00  0.00     0.014 A 
BRANCH  10  14
ATOM     14  C13 <0> d           1.655  -3.220   5.676  0.00  0.00     0.158 A 
ATOM     15  N3  <0> d           0.969  -3.685   6.894  0.00  0.00    -0.301 N 
ATOM     16  N2  <0> d           1.722  -4.482   7.465  0.00  0.00    -0.191 NA
ATOM     17  H15 <0> d           0.086  -3.414   7.191  0.00  0.00     0.183 HD
ATOM     18  C15 <0> d           2.904  -4.686   6.841  0.00  0.00     0.136 A 
ATOM     19  C14 <0> d           2.980  -3.961   5.723  0.00  0.00     0.025 A 
ENDBRANCH  10  14
ENDBRANCH   6   8
BRANCH   5  20
ATOM     20  C16 <0> d          -2.437  -2.265   1.137  0.00  0.00     0.251 C 
ATOM     21  O1  <0> d          -2.412  -2.912   2.166  0.00  0.00    -0.268 OA
ATOM     22  N4  <0> d          -3.615  -1.984   0.546  0.00  0.00    -0.366 N 
ATOM     23  H13 <0> d          -3.635  -1.468  -0.275  0.00  0.00     0.159 HD
ATOM     24  H14 <0> d          -4.444  -2.298   0.941  0.00  0.00     0.159 HD
ENDBRANCH   5  20
TORSDOF 3
