REMARK  3 active torsions:
REMARK  status: ('A' for Active; 'I' for Inactive)
REMARK    1  A    between atoms: C4_4  and  C12_14 
REMARK    2  A    between atoms: C12_14  and  C13_15 
REMARK    3  A    between atoms: C12_14  and  O3_20 
ROOT
ATOM      1  C1  <0> d          -0.018   1.503   0.010  0.00  0.00     0.048 C 
ATOM      2  C2  <0> d           0.002  -0.004   0.002  0.00  0.00    -0.061 A 
ATOM      3  C3  <0> d           0.006  -0.691  -1.198  0.00  0.00     0.019 A 
ATOM      4  C4  <0> d           0.025  -2.070  -1.213  0.00  0.00     0.001 A 
ATOM      5  C5  <0> d           0.040  -2.782  -0.015  0.00  0.00     0.051 A 
ATOM      6  C6  <0> d           0.037  -2.081   1.184  0.00  0.00    -0.013 A 
ATOM      7  C7  <0> d           0.023  -0.704   1.196  0.00  0.00     0.017 A 
ATOM      8  C8  <0> d           0.056  -3.118   2.283  0.00  0.00     0.063 A 
ATOM      9  C9  <0> d           0.071  -4.439   1.543  0.00  0.00     0.234 A 
ATOM     10  O1  <0> d           0.088  -5.544   2.042  0.00  0.00    -0.272 OA
ATOM     11  N1  <0> d           0.060  -4.156   0.229  0.00  0.00    -0.325 N 
ATOM     12  C10 <0> d           1.316  -2.969   3.138  0.00  0.00     0.030 C 
ATOM     13  C11 <0> d          -1.198  -3.003   3.151  0.00  0.00     0.030 C 
ATOM     14  H8  <0> d           0.066  -4.829  -0.469  0.00  0.00     0.169 HD
ENDROOT
BRANCH   4  15
ATOM     15  C12 <0> d           0.028  -2.808  -2.527  0.00  0.00     0.182 C 
BRANCH  15  16
ATOM     16  C13 <0> d          -1.407  -3.187  -2.902  0.00  0.00     0.154 C 
ATOM     17  O2  <0> d          -2.224  -2.012  -2.948  0.00  0.00    -0.383 OA
ATOM     18  C16 <0> d          -2.735  -1.823  -4.279  0.00  0.00     0.168 C 
ATOM     19  C15 <0> d          -2.726  -3.234  -4.920  0.00  0.00     0.029 C 
ATOM     20  C14 <0> d          -1.429  -3.828  -4.306  0.00  0.00     0.037 C 
ENDBRANCH  15  16
BRANCH  15  21
ATOM     21  O3  <0> d           0.580  -1.969  -3.543  0.00  0.00    -0.388 OA
ATOM     22  H21 <0> d           0.093  -1.145  -3.680  0.00  0.00     0.210 HD
ENDBRANCH  15  21
ENDBRANCH   4  15
TORSDOF 3
