REMARK  4 active torsions:
REMARK  status: ('A' for Active; 'I' for Inactive)
REMARK    1  A    between atoms: C2_2  and  C4_4 
REMARK    2  A    between atoms: C9_9  and  N1_10 
REMARK       I    between atoms: N1_10  and  C10_11 
REMARK    3  A    between atoms: C10_11  and  C11_13 
REMARK    4  A    between atoms: C11_13  and  C16_19 
ROOT
ATOM      1  N1  <0> d          -1.368  -1.528  -2.277  0.00  0.00    -0.326 N 
ATOM      2  C10 <0> d          -1.768  -2.269  -3.329  0.00  0.00     0.238 C 
ATOM      3  O1  <0> d          -2.897  -2.710  -3.365  0.00  0.00    -0.272 OA
ATOM      4  H12 <0> d          -0.484  -1.129  -2.273  0.00  0.00     0.169 HD
ENDROOT
BRANCH   2   5
ATOM      5  C11 <0> d          -0.814  -2.549  -4.461  0.00  0.00     0.097 C 
ATOM      6  C15 <0> d          -1.555  -3.271  -5.590  0.00  0.00     0.053 C 
ATOM      7  C14 <0> d          -2.651  -2.354  -6.138  0.00  0.00     0.169 C 
ATOM      8  O2  <0> d          -2.066  -1.132  -6.591  0.00  0.00    -0.391 OA
ATOM      9  C13 <0> d          -1.399  -0.390  -5.568  0.00  0.00     0.169 C 
ATOM     10  C12 <0> d          -0.253  -1.228  -4.996  0.00  0.00     0.053 C 
BRANCH   5  11
ATOM     11  C16 <0> d           0.316  -3.414  -3.965  0.00  0.00     0.089 C 
ATOM     12  S1  <0> d           0.552  -4.862  -4.600  0.00  0.00    -0.065 SA
ATOM     13  N2  <0> d           1.128  -2.967  -2.986  0.00  0.00    -0.392 N 
ATOM     14  H21 <0> d           0.938  -2.124  -2.546  0.00  0.00     0.156 HD
ATOM     15  H22 <0> d           1.902  -3.489  -2.722  0.00  0.00     0.156 HD
ENDBRANCH   5  11
ENDBRANCH   2   5
BRANCH   1  16
ATOM     16  C9  <0> d          -2.227  -1.335  -1.189  0.00  0.00     0.041 A 
ATOM     17  C4  <0> d          -2.038  -0.255  -0.337  0.00  0.00    -0.028 A 
ATOM     18  C5  <0> d          -2.891  -0.064   0.733  0.00  0.00     0.010 A 
ATOM     19  C6  <0> d          -3.929  -0.950   0.958  0.00  0.00     0.001 A 
ATOM     20  C7  <0> d          -4.116  -2.030   0.114  0.00  0.00     0.002 A 
ATOM     21  C8  <0> d          -3.267  -2.226  -0.957  0.00  0.00     0.030 A 
BRANCH  17  22
ATOM     22  C2  <0> d          -0.908   0.711  -0.582  0.00  0.00     0.013 C 
ATOM     23  C1  <0> d          -1.477   2.106  -0.843  0.00  0.00     0.015 C 
ATOM     24  C3  <0> d           0.002   0.753   0.648  0.00  0.00     0.015 C 
ENDBRANCH  17  22
ENDBRANCH   1  16
TORSDOF 4
