REMARK  3 active torsions:
REMARK  status: ('A' for Active; 'I' for Inactive)
REMARK    1  A    between atoms: C5_8  and  C6_10 
REMARK    2  A    between atoms: C6_10  and  C7_11 
REMARK    3  A    between atoms: C6_10  and  N4_17 
ROOT
ATOM      1  C6  <0> d           0.085  -5.916   0.773  0.00  0.00     0.265 C 
ENDROOT
BRANCH   1   2
ATOM      2  C5  <0> d           0.063  -4.460   0.386  0.00  0.00     0.077 A 
ATOM      3  C4  <0> d           0.052  -3.377   1.171  0.00  0.00     0.219 A 
ATOM      4  N2  <0> d           0.033  -2.116   0.625  0.00  0.00    -0.181 N 
ATOM      5  O1  <0> d           0.060  -3.525   2.523  0.00  0.00    -0.169 OA
ATOM      6  C3  <0> d           0.026  -2.025  -0.733  0.00  0.00     0.198 A 
ATOM      7  N3  <0> d           0.022  -0.766   1.063  0.00  0.00    -0.148 NA
ATOM      8  N1  <0> d           0.008  -0.769  -1.088  0.00  0.00    -0.206 NA
ATOM      9  S1  <0> d           0.047  -3.727  -1.243  0.00  0.00    -0.048 SA
ATOM     10  C2  <0> d           0.002  -0.004   0.002  0.00  0.00     0.145 A 
ATOM     11  C1  <0> d          -0.018   1.503   0.010  0.00  0.00     0.095 C 
ENDBRANCH   1   2
BRANCH   1  12
ATOM     12  C7  <0> d           1.379  -6.538   0.316  0.00  0.00    -0.022 A 
ATOM     13  C12 <0> d           2.413  -6.724   1.216  0.00  0.00     0.009 A 
ATOM     14  C11 <0> d           3.598  -7.299   0.797  0.00  0.00     0.001 A 
ATOM     15  C10 <0> d           3.754  -7.679  -0.523  0.00  0.00     0.000 A 
ATOM     16  C9  <0> d           2.723  -7.488  -1.423  0.00  0.00     0.001 A 
ATOM     17  C8  <0> d           1.536  -6.917  -1.004  0.00  0.00     0.009 A 
ENDBRANCH   1  12
BRANCH   1  18
ATOM     18  N4  <0> d          -1.043  -6.609   0.137  0.00  0.00    -0.058 N 
ATOM     19  C16 <0> d          -2.322  -6.011   0.575  0.00  0.00     0.236 C 
ATOM     20  C15 <0> d          -3.344  -7.157   0.683  0.00  0.00     0.029 C 
ATOM     21  C14 <0> d          -2.558  -8.435   0.311  0.00  0.00     0.029 C 
ATOM     22  C13 <0> d          -1.087  -8.027   0.578  0.00  0.00     0.236 C 
ATOM     23  H18 <0> d          -0.961  -6.559  -0.868  0.00  0.00     0.281 HD
ENDBRANCH   1  18
TORSDOF 3
