REMARK  3 active torsions:
REMARK  status: ('A' for Active; 'I' for Inactive)
REMARK    1  A    between atoms: C2_2  and  C3_3 
REMARK    2  A    between atoms: C2_2  and  O2_23 
REMARK    3  A    between atoms: C6_7  and  N3_13 
ROOT
ATOM      1  C3  <0> d           0.731  -0.503   1.223  0.00  0.00     0.135 A 
ATOM      2  N1  <0> d           0.245  -0.510   2.430  0.00  0.00    -0.230 NA
ATOM      3  C4  <0> d           1.163  -1.025   3.289  0.00  0.00     0.088 A 
ATOM      4  C5  <0> d           1.166  -1.258   4.666  0.00  0.00     0.063 A 
ATOM      5  C6  <0> d           2.282  -1.810   5.265  0.00  0.00     0.040 A 
ATOM      6  C7  <0> d           3.403  -2.135   4.502  0.00  0.00     0.032 A 
ATOM      7  C8  <0> d           3.410  -1.910   3.144  0.00  0.00     0.034 A 
ATOM      8  C9  <0> d           2.296  -1.356   2.527  0.00  0.00     0.064 A 
ATOM      9  N2  <0> d           1.990  -1.018   1.222  0.00  0.00    -0.335 N 
ATOM     10  C10 <0> d           2.861  -1.181   0.056  0.00  0.00     0.158 C 
ENDROOT
BRANCH   5  11
ATOM     11  N3  <0> d           2.288  -2.044   6.646  0.00  0.00    -0.308 N 
ATOM     12  C17 <0> d           1.277  -1.776   7.490  0.00  0.00     0.260 A 
ATOM     13  C13 <0> d           1.645  -2.160   8.864  0.00  0.00     0.058 A 
ATOM     14  O1  <0> d           0.211  -1.289   7.165  0.00  0.00    -0.267 OA
ATOM     15  C12 <0> d           2.943  -2.675   8.848  0.00  0.00     0.068 A 
ATOM     16  C14 <0> d           0.961  -2.092  10.082  0.00  0.00     0.020 A 
ATOM     17  C11 <0> d           3.402  -2.617   7.411  0.00  0.00     0.193 A 
ATOM     18  N4  <0> d           3.515  -3.089   9.956  0.00  0.00    -0.263 NA
ATOM     19  C16 <0> d           2.894  -3.038  11.120  0.00  0.00     0.117 A 
ATOM     20  C15 <0> d           1.607  -2.541  11.221  0.00  0.00     0.020 A 
ENDBRANCH   5  11
BRANCH   1  21
ATOM     21  C2  <0> d           0.002  -0.004   0.002  0.00  0.00     0.183 C 
ATOM     22  C1  <0> d          -0.019   1.526   0.010  0.00  0.00     0.047 C 
BRANCH  21  23
ATOM     23  O2  <0> d          -1.339  -0.499   0.012  0.00  0.00    -0.388 OA
ATOM     24  H16 <0> d          -1.868  -0.216  -0.746  0.00  0.00     0.210 HD
ENDBRANCH  21  23
ENDBRANCH   1  21
TORSDOF 3
