REMARK  7 active torsions:
REMARK  status: ('A' for Active; 'I' for Inactive)
REMARK    1  A    between atoms: C3_3  and  C6_9 
REMARK       I    between atoms: C6_9  and  N2_11 
REMARK    2  A    between atoms: N2_11  and  C7_12 
REMARK    3  A    between atoms: N2_11  and  C13_20 
REMARK    4  A    between atoms: C7_12  and  C8_13 
REMARK    5  A    between atoms: C8_13  and  C9_14 
REMARK    6  A    between atoms: C9_14  and  N3_15 
REMARK    7  A    between atoms: C13_20  and  C14_21 
ROOT
ATOM      1  C6  <0> d           3.607   2.043  -0.082  0.00  0.00     0.270 C 
ATOM      2  O2  <0> d           2.632   1.354   0.150  0.00  0.00    -0.266 OA
ATOM      3  N2  <0> d           4.822   1.472  -0.200  0.00  0.00    -0.343 N 
ENDROOT
BRANCH   3   4
ATOM      4  C7  <0> d           6.014   2.311  -0.343  0.00  0.00     0.128 C 
BRANCH   4   5
ATOM      5  C8  <0> d           6.699   2.460   1.017  0.00  0.00     0.040 C 
BRANCH   5   6
ATOM      6  C9  <0> d           7.945   3.336   0.868  0.00  0.00     0.131 C 
BRANCH   6   7
ATOM      7  N3  <0> d           8.601   3.478   2.170  0.00  0.00    -0.352 N 
ATOM      8  C12 <0> d           9.557   2.672   2.678  0.00  0.00     0.182 A 
ATOM      9  N4  <0> d           9.897   3.117   3.857  0.00  0.00    -0.361 N 
ATOM     10  C11 <0> d           9.171   4.208   4.144  0.00  0.00     0.106 A 
ATOM     11  H20 <0> d          10.566   2.720   4.436  0.00  0.00     0.166 HD
ATOM     12  C10 <0> d           8.354   4.451   3.101  0.00  0.00     0.108 A 
ENDBRANCH   6   7
ENDBRANCH   5   6
ENDBRANCH   4   5
ENDBRANCH   3   4
BRANCH   3  13
ATOM     13  C13 <0> d           4.950   0.013  -0.185  0.00  0.00     0.164 C 
BRANCH  13  14
ATOM     14  C14 <0> d           4.737  -0.524  -1.577  0.00  0.00    -0.037 A 
ATOM     15  C18 <0> d           5.814  -0.766  -2.417  0.00  0.00     0.028 A 
ATOM     16  C17 <0> d           5.580  -1.265  -3.685  0.00  0.00     0.116 A 
ATOM     17  N5  <0> d           4.351  -1.499  -4.101  0.00  0.00    -0.273 NA
ATOM     18  C16 <0> d           3.303  -1.275  -3.332  0.00  0.00     0.116 A 
ATOM     19  C15 <0> d           3.460  -0.783  -2.050  0.00  0.00     0.028 A 
ENDBRANCH  13  14
ENDBRANCH   3  13
BRANCH   1  20
ATOM     20  C3  <0> d           3.459   3.506  -0.234  0.00  0.00     0.103 A 
ATOM     21  C2  <0> d           2.299   4.021  -0.730  0.00  0.00     0.035 A 
ATOM     22  C1  <0> d           2.156   5.410  -0.876  0.00  0.00     0.008 A 
ATOM     23  C5  <0> d           3.182   6.229  -0.518  0.00  0.00     0.074 A 
ATOM     24  C4  <0> d           4.373   5.669  -0.005  0.00  0.00     0.245 A 
ATOM     25  N1  <0> d           4.489   4.334   0.126  0.00  0.00    -0.319 N 
ATOM     26  O1  <0> d           5.298   6.396   0.318  0.00  0.00    -0.268 OA
ATOM     27  H1  <0> d           5.310   3.955   0.478  0.00  0.00     0.169 HD
ENDBRANCH   1  20
TORSDOF 7
