REMARK  6 active torsions:
REMARK  status: ('A' for Active; 'I' for Inactive)
REMARK    1  A    between atoms: C2_2  and  C3_3 
REMARK    2  A    between atoms: C3_3  and  N1_4 
REMARK       I    between atoms: N1_4  and  C4_5 
REMARK    3  A    between atoms: C4_5  and  C5_7 
REMARK    4  A    between atoms: C6_8  and  N2_16 
REMARK       I    between atoms: N2_16  and  C13_17 
REMARK    5  A    between atoms: C13_17  and  C14_19 
REMARK    6  A    between atoms: C15_20  and  C16_21 
ROOT
ATOM      1  C14 <0> d          -1.154  -4.079  -0.235  0.00  0.00     0.112 C 
ATOM      2  C15 <0> d          -1.867  -4.936  -1.058  0.00  0.00     0.038 C 
ATOM      3  C24 <0> d          -1.402  -2.669  -0.283  0.00  0.00     0.105 C 
ATOM      4  N4  <0> d          -1.599  -1.551  -0.321  0.00  0.00    -0.191 NA
ENDROOT
BRANCH   1   5
ATOM      5  C13 <0> d          -0.141  -4.617   0.690  0.00  0.00     0.263 C 
ATOM      6  N2  <0> d           0.475  -3.799   1.566  0.00  0.00    -0.342 N 
ATOM      7  H17 <0> d           0.202  -2.871   1.638  0.00  0.00     0.164 HD
ATOM      8  O2  <0> d           0.140  -5.800   0.663  0.00  0.00    -0.267 OA
BRANCH   6   9
ATOM      9  C6  <0> d           1.558  -4.310   2.410  0.00  0.00     0.168 C 
ATOM     10  C5  <0> d           2.593  -3.207   2.737  0.00  0.00     0.141 C 
ATOM     11  C8  <0> d           3.999  -3.751   2.743  0.00  0.00    -0.051 C 
ATOM     12  C7  <0> d           4.218  -4.904   2.128  0.00  0.00    -0.017 C 
ATOM     13  C9  <0> d           5.139  -3.001   3.430  0.00  0.00     0.036 C 
ATOM     14  S1  <0> d           2.658  -5.458   1.479  0.00  0.00    -0.107 SA
ATOM     15  C12 <0> d           5.530  -5.625   1.995  0.00  0.00     0.046 C 
ATOM     16  C11 <0> d           6.661  -4.665   2.354  0.00  0.00     0.005 C 
ATOM     17  C10 <0> d           6.301  -3.964   3.668  0.00  0.00     0.005 C 
BRANCH  10  18
ATOM     18  C4  <0> d           2.492  -2.115   1.703  0.00  0.00     0.229 C 
ATOM     19  N1  <0> d           1.740  -1.024   1.946  0.00  0.00    -0.357 N 
ATOM     20  H8  <0> d           1.326  -0.904   2.816  0.00  0.00     0.162 HD
ATOM     21  O1  <0> d           3.088  -2.219   0.652  0.00  0.00    -0.273 OA
BRANCH  19  22
ATOM     22  C3  <0> d           1.547  -0.018   0.899  0.00  0.00     0.149 C 
BRANCH  22  23
ATOM     23  C2  <0> d           0.737   1.129   1.446  0.00  0.00    -0.018 C 
ATOM     24  C1  <0> d           1.209   2.349   1.390  0.00  0.00     0.008 C 
ENDBRANCH  22  23
ENDBRANCH  19  22
ENDBRANCH  10  18
ENDBRANCH   6   9
ENDBRANCH   1   5
BRANCH   2  25
ATOM     25  C16 <0> d          -2.829  -4.425  -1.936  0.00  0.00    -0.026 A 
ATOM     26  C23 <0> d          -3.221  -2.975  -2.120  0.00  0.00     0.159 A 
ATOM     27  N3  <0> d          -4.263  -2.965  -3.152  0.00  0.00    -0.385 N 
ATOM     28  C22 <0> d          -4.497  -4.189  -3.545  0.00  0.00     0.039 A 
ATOM     29  H25 <0> d          -4.711  -2.173  -3.488  0.00  0.00     0.160 HD
ATOM     30  C17 <0> d          -3.629  -5.143  -2.817  0.00  0.00    -0.002 A 
ATOM     31  C21 <0> d          -5.432  -4.739  -4.537  0.00  0.00     0.030 A 
ATOM     32  C18 <0> d          -3.740  -6.519  -3.109  0.00  0.00     0.014 A 
ATOM     33  C19 <0> d          -4.626  -6.952  -4.037  0.00  0.00     0.001 A 
ATOM     34  C20 <0> d          -5.461  -6.075  -4.743  0.00  0.00     0.002 A 
ENDBRANCH   2  25
TORSDOF 6
