REMARK  4 active torsions:
REMARK  status: ('A' for Active; 'I' for Inactive)
REMARK    1  A    between atoms: C3_3  and  C6_7 
REMARK    2  A    between atoms: C6_7  and  C7_8 
REMARK    3  A    between atoms: C7_8  and  C8_9 
REMARK    4  A    between atoms: C8_9  and  N2_10 
ROOT
ATOM      1  C7  <0> d           4.305   1.484  -2.486  0.00  0.00     0.031 C 
ENDROOT
BRANCH   1   2
ATOM      2  C6  <0> d           3.610   1.943  -1.203  0.00  0.00     0.008 C 
BRANCH   2   3
ATOM      3  C3  <0> d           2.149   1.487  -1.223  0.00  0.00     0.011 C 
ATOM      4  C2  <0> d           1.420   2.051  -0.001  0.00  0.00     0.008 C 
ATOM      5  C1  <0> d          -0.019   1.526   0.010  0.00  0.00     0.028 C 
ATOM      6  C5  <0> d           0.002  -0.004   0.002  0.00  0.00     0.232 C 
ATOM      7  N1  <0> d           0.689  -0.481  -1.204  0.00  0.00    -0.075 N 
ATOM      8  C4  <0> d           2.090  -0.042  -1.186  0.00  0.00     0.237 C 
ATOM      9  H8  <0> d           0.231  -0.107  -2.021  0.00  0.00     0.277 HD
ATOM     10  H25 <0> d           0.654  -1.489  -1.234  0.00  0.00     0.277 HD
ENDBRANCH   2   3
ENDBRANCH   1   2
BRANCH   1  11
ATOM     11  C8  <0> d           5.766   1.940  -2.465  0.00  0.00     0.272 C 
BRANCH  11  12
ATOM     12  N2  <0> d           6.434   1.500  -3.697  0.00  0.00     0.090 N 
ATOM     13  C12 <0> d           7.757   2.114  -3.825  0.00  0.00     0.287 C 
ATOM     14  C11 <0> d           8.244   2.006  -5.273  0.00  0.00     0.170 C 
ATOM     15  S1  <0> d           8.399   0.245  -5.701  0.00  0.00     0.147 S 
ATOM     16  C10 <0> d           6.769  -0.399  -5.214  0.00  0.00     0.170 C 
ATOM     17  O1  <0> d           8.528   0.131  -7.112  0.00  0.00    -0.228 OA
ATOM     18  O2  <0> d           9.386  -0.343  -4.865  0.00  0.00    -0.228 OA
ATOM     19  C9  <0> d           6.484   0.038  -3.773  0.00  0.00     0.287 C 
ENDBRANCH  11  12
ENDBRANCH   1  11
TORSDOF 4
