REMARK  4 active torsions:
REMARK  status: ('A' for Active; 'I' for Inactive)
REMARK    1  A    between atoms: C2_2  and  N1_3 
REMARK    2  A    between atoms: N1_3  and  C3_4 
REMARK    3  A    between atoms: N1_3  and  S1_10 
REMARK    4  A    between atoms: S1_10  and  N3_13 
ROOT
ATOM      1  N1  <0> d          -0.107  -0.218  -0.905  0.00  0.00    -0.290 N 
ENDROOT
BRANCH   1   2
ATOM      2  C2  <0> d          -1.039   0.121   0.173  0.00  0.00     0.133 C 
ATOM      3  C1  <0> d          -1.579  -1.165   0.804  0.00  0.00     0.027 C 
ENDBRANCH   1   2
BRANCH   1   4
ATOM      4  C3  <0> d           1.310  -0.441  -0.605  0.00  0.00     0.100 C 
ATOM      5  C7  <0> d           1.937   0.860  -0.096  0.00  0.00     0.053 C 
ATOM      6  C6  <0> d           3.394   0.600   0.290  0.00  0.00     0.234 C 
ATOM      7  N2  <0> d           3.451  -0.418   1.346  0.00  0.00    -0.075 N 
ATOM      8  C5  <0> d           2.918  -1.689   0.841  0.00  0.00     0.234 C 
ATOM      9  H13 <0> d           2.902  -0.114   2.135  0.00  0.00     0.277 HD
ATOM     10  H28 <0> d           4.409  -0.548   1.635  0.00  0.00     0.277 HD
ATOM     11  C4  <0> d           1.441  -1.518   0.476  0.00  0.00     0.053 C 
ENDBRANCH   1   4
BRANCH   1  12
ATOM     12  S1  <0> d          -0.654  -0.350  -2.462  0.00  0.00     0.319 S 
ATOM     13  O1  <0> d           0.277  -1.172  -3.152  0.00  0.00    -0.182 OA
ATOM     14  O2  <0> d          -2.037  -0.668  -2.381  0.00  0.00    -0.182 OA
BRANCH  12  15
ATOM     15  N3  <0> d          -0.554   1.156  -3.145  0.00  0.00    -0.289 N 
ATOM     16  C11 <0> d          -1.635   2.139  -2.972  0.00  0.00     0.168 C 
ATOM     17  C10 <0> d          -2.020   2.687  -4.346  0.00  0.00     0.136 C 
ATOM     18  O3  <0> d          -0.845   3.146  -5.019  0.00  0.00    -0.378 OA
ATOM     19  C12 <0> d          -3.000   3.850  -4.180  0.00  0.00     0.041 C 
ATOM     20  C9  <0> d           0.118   2.122  -5.279  0.00  0.00     0.136 C 
ATOM     21  C8  <0> d           0.616   1.547  -3.948  0.00  0.00     0.168 C 
ATOM     22  C13 <0> d          -0.529   1.009  -6.106  0.00  0.00     0.041 C 
ENDBRANCH  12  15
ENDBRANCH   1  12
TORSDOF 4
