REMARK  6 active torsions:
REMARK  status: ('A' for Active; 'I' for Inactive)
REMARK    1  A    between atoms: C2_2  and  N1_3 
REMARK    2  A    between atoms: C3_4  and  C5_9 
REMARK    3  A    between atoms: C5_9  and  N4_10 
REMARK       I    between atoms: N4_10  and  C6_11 
REMARK    4  A    between atoms: C6_11  and  C7_13 
REMARK    5  A    between atoms: C7_13  and  C8_14 
REMARK    6  A    between atoms: C7_13  and  N5_17 
ROOT
ATOM      1  N4  <0> d          -2.857  -0.434   3.633  0.00  0.00    -0.352 N 
ATOM      2  C6  <0> d          -2.550  -0.787   4.897  0.00  0.00     0.252 C 
ATOM      3  O1  <0> d          -1.407  -0.692   5.292  0.00  0.00    -0.271 OA
ATOM      4  H12 <0> d          -3.755  -0.576   3.295  0.00  0.00     0.162 HD
ENDROOT
BRANCH   2   5
ATOM      5  C7  <0> d          -3.626  -1.299   5.820  0.00  0.00     0.317 C 
BRANCH   5   6
ATOM      6  C8  <0> d          -3.696  -2.825   5.724  0.00  0.00     0.020 C 
ATOM      7  C9  <0> d          -4.726  -3.352   6.725  0.00  0.00     0.012 C 
ATOM      8  C10 <0> d          -4.108  -3.229   4.307  0.00  0.00     0.012 C 
ENDBRANCH   5   6
BRANCH   5   9
ATOM      9  N5  <0> d          -3.313  -0.909   7.201  0.00  0.00     0.107 N 
ATOM     10  C14 <0> d          -3.103   0.543   7.303  0.00  0.00     0.305 C 
ATOM     11  C13 <0> d          -2.840   0.913   8.765  0.00  0.00     0.146 C 
ATOM     12  O2  <0> d          -1.718   0.168   9.246  0.00  0.00    -0.378 OA
ATOM     13  C15 <0> d          -2.542   2.410   8.869  0.00  0.00     0.041 C 
ATOM     14  C12 <0> d          -1.889  -1.249   9.162  0.00  0.00     0.146 C 
ATOM     15  C11 <0> d          -2.142  -1.641   7.703  0.00  0.00     0.305 C 
ATOM     16  C16 <0> d          -0.624  -1.948   9.666  0.00  0.00     0.041 C 
ENDBRANCH   5   9
ENDBRANCH   2   5
BRANCH   1  17
ATOM     17  C5  <0> d          -1.835   0.163   2.770  0.00  0.00     0.203 C 
BRANCH  17  18
ATOM     18  C3  <0> d          -2.432   0.462   1.419  0.00  0.00     0.146 A 
ATOM     19  N1  <0> d          -1.765   1.026   0.359  0.00  0.00    -0.308 N 
ATOM     20  C4  <0> d          -2.628   1.142  -0.671  0.00  0.00     0.196 A 
ATOM     21  N3  <0> d          -3.815   0.648  -0.261  0.00  0.00    -0.251 N 
ATOM     22  S1  <0> d          -2.280   1.792  -2.216  0.00  0.00    -0.039 SA
ATOM     23  N2  <0> d          -3.655   0.230   1.067  0.00  0.00    -0.157 NA
ATOM     24  H9  <0> d          -4.628   0.595  -0.787  0.00  0.00     0.191 HD
BRANCH  19  25
ATOM     25  C2  <0> d          -0.359   1.437   0.350  0.00  0.00     0.128 C 
ATOM     26  C1  <0> d          -0.250   2.891   0.812  0.00  0.00     0.027 C 
ENDBRANCH  19  25
ENDBRANCH  17  18
ENDBRANCH   1  17
TORSDOF 6
