REMARK  6 active torsions:
REMARK  status: ('A' for Active; 'I' for Inactive)
REMARK    1  A    between atoms: C5_5  and  N1_9 
REMARK       I    between atoms: N1_9  and  C9_10 
REMARK    2  A    between atoms: C9_10  and  C10_12 
REMARK    3  A    between atoms: C11_15  and  C13_17 
REMARK    4  A    between atoms: C16_20  and  O4_27 
REMARK    5  A    between atoms: C17_21  and  S1_23 
REMARK    6  A    between atoms: S1_23  and  N4_26 
ROOT
ATOM      1  C10 <0> d          -0.131  -6.300  -1.187  0.00  0.00     0.130 A 
ATOM      2  N2  <0> d          -0.136  -7.097  -0.150  0.00  0.00    -0.149 NA
ATOM      3  N3  <0> d          -0.226  -8.336  -0.439  0.00  0.00    -0.153 NA
ATOM      4  C11 <0> d          -0.298  -8.586  -1.727  0.00  0.00     0.073 A 
ATOM      5  C12 <0> d          -0.248  -7.219  -2.392  0.00  0.00     0.129 A 
ENDROOT
BRANCH   4   6
ATOM      6  C13 <0> d          -0.408  -9.893  -2.380  0.00  0.00    -0.008 A 
ATOM      7  C18 <0> d          -0.447 -11.063  -1.608  0.00  0.00     0.041 A 
ATOM      8  C17 <0> d          -0.556 -12.279  -2.222  0.00  0.00     0.113 A 
ATOM      9  C16 <0> d          -0.615 -12.358  -3.610  0.00  0.00     0.091 A 
ATOM     10  C15 <0> d          -0.571 -11.200  -4.381  0.00  0.00     0.039 A 
ATOM     11  C14 <0> d          -0.468  -9.979  -3.778  0.00  0.00     0.016 A 
BRANCH   8  12
ATOM     12  S1  <0> d          -0.614 -13.750  -1.255  0.00  0.00     0.259 S 
ATOM     13  O2  <0> d           0.335 -14.645  -1.819  0.00  0.00    -0.201 OA
ATOM     14  O3  <0> d          -0.562 -13.344   0.106  0.00  0.00    -0.201 OA
BRANCH  12  15
ATOM     15  N4  <0> d          -2.105 -14.432  -1.488  0.00  0.00    -0.324 N 
ATOM     16  H16 <0> d          -2.213 -15.394  -1.431  0.00  0.00     0.169 HD
ATOM     17  H17 <0> d          -2.871 -13.869  -1.682  0.00  0.00     0.169 HD
ENDBRANCH  12  15
ENDBRANCH   8  12
BRANCH   9  18
ATOM     18  O4  <0> d          -0.717 -13.568  -4.214  0.00  0.00    -0.354 OA
ATOM     19  C19 <0> d          -0.774 -13.578  -5.642  0.00  0.00     0.210 C 
ENDBRANCH   9  18
ENDBRANCH   4   6
BRANCH   1  20
ATOM     20  C9  <0> d          -0.040  -4.837  -1.187  0.00  0.00     0.272 C 
ATOM     21  N1  <0> d           0.059  -4.168  -0.021  0.00  0.00    -0.321 N 
ATOM     22  H10 <0> d           0.135  -4.657   0.814  0.00  0.00     0.169 HD
ATOM     23  O1  <0> d          -0.054  -4.227  -2.239  0.00  0.00    -0.266 OA
BRANCH  21  24
ATOM     24  C5  <0> d           0.050  -2.771  -0.014  0.00  0.00     0.041 A 
ATOM     25  C4  <0> d           0.642  -2.066  -1.055  0.00  0.00     0.030 A 
ATOM     26  C3  <0> d           0.631  -0.685  -1.046  0.00  0.00     0.009 A 
ATOM     27  C2  <0> d           0.033  -0.004  -0.002  0.00  0.00    -0.061 A 
ATOM     28  C1  <0> d           0.024   1.503   0.006  0.00  0.00     0.048 C 
ATOM     29  C7  <0> d          -0.551  -0.702   1.039  0.00  0.00     0.015 A 
ATOM     30  C6  <0> d          -0.549  -2.083   1.033  0.00  0.00    -0.035 A 
ATOM     31  C8  <0> d          -1.192  -2.843   2.164  0.00  0.00     0.050 C 
ENDBRANCH  21  24
ENDBRANCH   1  20
TORSDOF 6
