REMARK  4 active torsions:
REMARK  status: ('A' for Active; 'I' for Inactive)
REMARK    1  A    between atoms: C2_2  and  N1_3 
REMARK    2  A    between atoms: C4_5  and  C7_9 
REMARK    3  A    between atoms: C9_11  and  C11_18 
REMARK       I    between atoms: C11_18  and  N5_20 
REMARK    4  A    between atoms: N5_20  and  C12_21 
ROOT
ATOM      1  C12 <0> d           4.781  -6.894   6.210  0.00  0.00     0.098 A 
ATOM      2  C13 <0> d           5.861  -7.154   7.031  0.00  0.00     0.085 A 
ATOM      3  C14 <0> d           6.635  -8.363   6.759  0.00  0.00    -0.021 A 
ATOM      4  C15 <0> d           6.180  -9.082   5.716  0.00  0.00    -0.007 A 
ATOM      5  S2  <0> d           4.769  -8.178   5.132  0.00  0.00    -0.075 SA
ATOM      6  C16 <0> d           7.013 -10.312   5.477  0.00  0.00     0.047 C 
ATOM      7  C17 <0> d           8.324 -10.053   6.252  0.00  0.00     0.010 C 
ATOM      8  C18 <0> d           7.855  -9.071   7.345  0.00  0.00     0.042 C 
ATOM      9  C19 <0> d           6.209  -6.273   8.105  0.00  0.00     0.103 C 
ATOM     10  N6  <0> d           6.485  -5.574   8.957  0.00  0.00    -0.191 NA
ENDROOT
BRANCH   1  11
ATOM     11  N5  <0> d           3.903  -5.820   6.268  0.00  0.00    -0.318 N 
ATOM     12  C11 <0> d           2.892  -5.727   5.383  0.00  0.00     0.246 C 
ATOM     13  O3  <0> d           2.748  -6.582   4.535  0.00  0.00    -0.271 OA
ATOM     14  H18 <0> d           4.018  -5.136   6.946  0.00  0.00     0.169 HD
BRANCH  12  15
ATOM     15  C9  <0> d           1.939  -4.561   5.446  0.00  0.00     0.191 C 
ATOM     16  C8  <0> d           2.139  -3.672   4.219  0.00  0.00     0.066 C 
ATOM     17  C7  <0> d           1.266  -2.420   4.310  0.00  0.00     0.133 C 
ATOM     18  N4  <0> d          -0.153  -2.814   4.275  0.00  0.00    -0.293 N 
ATOM     19  S1  <0> d          -0.664  -3.918   5.415  0.00  0.00     0.318 S 
ATOM     20  H14 <0> d          -0.764  -2.446   3.617  0.00  0.00     0.174 HD
ATOM     21  N3  <0> d           0.553  -5.058   5.465  0.00  0.00    -0.285 N 
ATOM     22  O1  <0> d          -0.661  -3.252   6.670  0.00  0.00    -0.183 OA
ATOM     23  O2  <0> d          -1.816  -4.562   4.887  0.00  0.00    -0.183 OA
ATOM     24  C10 <0> d           0.255  -6.491   5.524  0.00  0.00     0.165 C 
BRANCH  17  25
ATOM     25  C4  <0> d           1.565  -1.512   3.146  0.00  0.00     0.008 A 
ATOM     26  C3  <0> d           0.832  -1.399   2.014  0.00  0.00     0.123 A 
ATOM     27  N1  <0> d           1.431  -0.484   1.224  0.00  0.00    -0.280 N 
ATOM     28  N2  <0> d           2.574  -0.023   1.889  0.00  0.00    -0.177 NA
ATOM     29  C5  <0> d           2.651  -0.635   3.043  0.00  0.00     0.060 A 
ATOM     30  C6  <0> d           3.726  -0.435   4.080  0.00  0.00     0.073 C 
BRANCH  27  31
ATOM     31  C2  <0> d           0.971  -0.053  -0.098  0.00  0.00     0.146 C 
ATOM     32  C1  <0> d           0.818   1.469  -0.114  0.00  0.00     0.028 C 
ENDBRANCH  27  31
ENDBRANCH  17  25
ENDBRANCH  12  15
ENDBRANCH   1  11
TORSDOF 4
