REMARK  2 active torsions:
REMARK  status: ('A' for Active; 'I' for Inactive)
REMARK    1  A    between atoms: C6_7  and  N2_11 
REMARK       I    between atoms: N2_11  and  C9_12 
REMARK    2  A    between atoms: C9_12  and  C10_14 
ROOT
ATOM      1  N2  <0> d          -1.498   5.956   0.046  0.00  0.00    -0.322 N 
ATOM      2  C9  <0> d          -0.286   5.393  -0.128  0.00  0.00     0.276 C 
ATOM      3  O1  <0> d           0.694   6.095  -0.282  0.00  0.00    -0.266 OA
ATOM      4  H7  <0> d          -2.290   5.397   0.092  0.00  0.00     0.169 HD
ENDROOT
BRANCH   1   5
ATOM      5  C6  <0> d          -1.615   7.346   0.159  0.00  0.00     0.036 A 
ATOM      6  C5  <0> d          -2.745   8.000  -0.328  0.00  0.00     0.032 A 
ATOM      7  C4  <0> d          -2.883   9.349  -0.231  0.00  0.00     0.035 A 
ATOM      8  C3  <0> d          -1.877  10.138   0.371  0.00  0.00     0.075 A 
ATOM      9  N1  <0> d          -1.842  11.475   0.553  0.00  0.00    -0.245 NA
ATOM     10  C8  <0> d          -0.742   9.450   0.857  0.00  0.00     0.037 A 
ATOM     11  C2  <0> d          -0.840  12.077   1.130  0.00  0.00     0.072 A 
ATOM     12  C1  <0> d          -0.664  13.549   1.400  0.00  0.00     0.079 C 
ATOM     13  S1  <0> d           0.242  10.774   1.514  0.00  0.00    -0.073 SA
ATOM     14  C7  <0> d          -0.608   8.087   0.763  0.00  0.00     0.051 A 
ENDBRANCH   1   5
BRANCH   2  15
ATOM     15  C10 <0> d          -0.148   3.921  -0.131  0.00  0.00     0.145 A 
ATOM     16  N4  <0> d          -1.209   3.163   0.036  0.00  0.00    -0.165 NA
ATOM     17  N3  <0> d          -1.143   1.881   0.035  0.00  0.00    -0.239 N 
ATOM     18  C13 <0> d           0.025   1.231  -0.125  0.00  0.00     0.263 A 
ATOM     19  C14 <0> d          -2.371   1.104   0.221  0.00  0.00     0.183 C 
ATOM     20  C12 <0> d           1.214   1.971  -0.310  0.00  0.00     0.078 A 
ATOM     21  O2  <0> d           0.056   0.012  -0.116  0.00  0.00    -0.267 OA
ATOM     22  C11 <0> d           1.126   3.331  -0.313  0.00  0.00     0.044 A 
ENDBRANCH   2  15
TORSDOF 2
