REMARK  6 active torsions:
REMARK  status: ('A' for Active; 'I' for Inactive)
REMARK    1  A    between atoms: C2_2  and  O1_3 
REMARK    2  A    between atoms: O1_3  and  C3_4 
REMARK    3  A    between atoms: C8_9  and  N1_10 
REMARK       I    between atoms: N1_10  and  C9_11 
REMARK    4  A    between atoms: C9_11  and  C10_13 
REMARK       I    between atoms: C10_13  and  N2_15 
REMARK    5  A    between atoms: N2_15  and  C11_16 
REMARK    6  A    between atoms: C11_16  and  C12_17 
ROOT
ATOM      1  N1  <0> d           1.952  -1.469  -3.423  0.00  0.00    -0.317 N 
ATOM      2  C9  <0> d           2.658  -1.970  -4.457  0.00  0.00     0.314 C 
ATOM      3  O2  <0> d           2.753  -3.171  -4.602  0.00  0.00    -0.262 OA
ATOM      4  H10 <0> d           1.823  -0.511  -3.343  0.00  0.00     0.169 HD
ENDROOT
BRANCH   2   5
ATOM      5  C10 <0> d           3.324  -1.046  -5.423  0.00  0.00     0.310 C 
ATOM      6  O3  <0> d           3.230   0.155  -5.278  0.00  0.00    -0.262 OA
ATOM      7  N2  <0> d           4.030  -1.546  -6.456  0.00  0.00    -0.345 N 
ATOM      8  H11 <0> d           4.105  -2.507  -6.572  0.00  0.00     0.163 HD
BRANCH   7   9
ATOM      9  C11 <0> d           4.683  -0.640  -7.404  0.00  0.00     0.211 C 
BRANCH   9  10
ATOM     10  C12 <0> d           5.401  -1.446  -8.456  0.00  0.00     0.186 A 
ATOM     11  O4  <0> d           6.673  -1.875  -8.399  0.00  0.00    -0.276 OA
ATOM     12  C13 <0> d           6.896  -2.551  -9.539  0.00  0.00     0.165 A 
ATOM     13  N4  <0> d           5.797  -2.511 -10.238  0.00  0.00    -0.127 NA
ATOM     14  C14 <0> d           8.182  -3.227  -9.938  0.00  0.00     0.102 C 
ATOM     15  N3  <0> d           4.903  -1.850  -9.591  0.00  0.00    -0.125 NA
ENDBRANCH   9  10
ENDBRANCH   7   9
ENDBRANCH   2   5
BRANCH   1  16
ATOM     16  C8  <0> d           1.407  -2.331  -2.466  0.00  0.00     0.068 A 
ATOM     17  C3  <0> d           1.339  -1.939  -1.130  0.00  0.00     0.095 A 
ATOM     18  C4  <0> d           0.793  -2.795  -0.188  0.00  0.00     0.039 A 
ATOM     19  C5  <0> d           0.323  -4.037  -0.572  0.00  0.00     0.003 A 
ATOM     20  C6  <0> d           0.395  -4.429  -1.896  0.00  0.00     0.002 A 
ATOM     21  C7  <0> d           0.938  -3.582  -2.842  0.00  0.00     0.032 A 
BRANCH  17  22
ATOM     22  O1  <0> d           1.801  -0.717  -0.754  0.00  0.00    -0.349 OA
BRANCH  22  23
ATOM     23  C2  <0> d           1.698  -0.382   0.631  0.00  0.00     0.171 C 
ATOM     24  C1  <0> d           2.265   1.020   0.860  0.00  0.00     0.034 C 
ENDBRANCH  22  23
ENDBRANCH  17  22
ENDBRANCH   1  16
TORSDOF 6
