REMARK  7 active torsions:
REMARK  status: ('A' for Active; 'I' for Inactive)
REMARK    1  A    between atoms: C3_3  and  C5_6 
REMARK    2  A    between atoms: C5_6  and  C6_7 
REMARK    3  A    between atoms: C6_7  and  C7_8 
REMARK       I    between atoms: C7_8  and  N1_10 
REMARK    4  A    between atoms: N1_10  and  C8_11 
REMARK    5  A    between atoms: C11_14  and  C14_18 
REMARK    6  A    between atoms: C15_19  and  C16_20 
REMARK    7  A    between atoms: C16_20  and  N2_21 
ROOT
ATOM      1  C8  <0> d           7.707   0.425   2.488  0.00  0.00     0.073 A 
ATOM      2  C9  <0> d           8.346   0.430   1.254  0.00  0.00     0.034 A 
ATOM      3  C10 <0> d           9.717   0.307   1.185  0.00  0.00     0.023 A 
ATOM      4  C11 <0> d          10.465   0.179   2.357  0.00  0.00     0.020 A 
ATOM      5  C12 <0> d           9.822   0.174   3.596  0.00  0.00     0.065 A 
ATOM      6  C13 <0> d           8.449   0.302   3.659  0.00  0.00     0.144 A 
ATOM      7  F1  <0> d           7.825   0.303   4.857  0.00  0.00    -0.204 F 
ENDROOT
BRANCH   1   8
ATOM      8  N1  <0> d           6.315   0.549   2.553  0.00  0.00    -0.325 N 
ATOM      9  C7  <0> d           5.644   1.156   1.554  0.00  0.00     0.222 C 
ATOM     10  O2  <0> d           6.254   1.682   0.646  0.00  0.00    -0.273 OA
ATOM     11  H8  <0> d           5.832   0.199   3.318  0.00  0.00     0.169 HD
BRANCH   9  12
ATOM     12  C6  <0> d           4.138   1.180   1.563  0.00  0.00     0.110 C 
BRANCH  12  13
ATOM     13  C5  <0> d           3.632   1.924   0.325  0.00  0.00     0.074 C 
BRANCH  13  14
ATOM     14  C3  <0> d           2.125   1.949   0.335  0.00  0.00     0.053 A 
ATOM     15  C2  <0> d           1.357   2.900   0.896  0.00  0.00     0.034 A 
ATOM     16  C1  <0> d           0.013   2.527   0.669  0.00  0.00     0.027 A 
ATOM     17  C4  <0> d           0.039   1.370  -0.017  0.00  0.00     0.142 A 
ATOM     18  O1  <0> d           1.321   1.025  -0.217  0.00  0.00    -0.327 OA
ENDBRANCH  13  14
ENDBRANCH  12  13
ENDBRANCH   9  12
ENDBRANCH   1   8
BRANCH   4  19
ATOM     19  C14 <0> d          11.890   0.051   2.288  0.00  0.00    -0.065 C 
ATOM     20  C15 <0> d          13.058  -0.054   2.232  0.00  0.00    -0.074 C 
BRANCH  20  21
ATOM     21  C16 <0> d          14.522  -0.185   2.161  0.00  0.00     0.323 C 
BRANCH  21  22
ATOM     22  N2  <0> d          15.069  -0.305   3.519  0.00  0.00    -0.069 N 
ATOM     23  H14 <0> d          14.680  -1.120   3.968  0.00  0.00     0.275 HD
ATOM     24  H15 <0> d          16.073  -0.395   3.470  0.00  0.00     0.275 HD
ATOM     25  H16 <0> d          14.831   0.518   4.052  0.00  0.00     0.275 HD
ENDBRANCH  21  22
ENDBRANCH  20  21
ENDBRANCH   4  19
TORSDOF 7
