REMARK  5 active torsions:
REMARK  status: ('A' for Active; 'I' for Inactive)
REMARK    1  A    between atoms: C3_3  and  N2_20 
REMARK    2  A    between atoms: C6_6  and  C7_7 
REMARK    3  A    between atoms: C7_7  and  C8_8 
REMARK    4  A    between atoms: C7_7  and  O2_19 
REMARK    5  A    between atoms: C8_8  and  N1_9 
ROOT
ATOM      1  C7  <0> d          -1.315  -0.731   0.018  0.00  0.00     0.179 C 
ENDROOT
BRANCH   1   2
ATOM      2  C6  <0> d          -0.043   0.078   0.019  0.00  0.00    -0.028 A 
ATOM      3  C1  <0> d          -0.103   1.459   0.058  0.00  0.00     0.012 A 
ATOM      4  C2  <0> d           1.060   2.203   0.059  0.00  0.00     0.029 A 
ATOM      5  C3  <0> d           2.292   1.562   0.022  0.00  0.00     0.025 A 
ATOM      6  C4  <0> d           2.350   0.175  -0.017  0.00  0.00     0.029 A 
ATOM      7  C5  <0> d           1.182  -0.563  -0.019  0.00  0.00     0.012 A 
BRANCH   5   8
ATOM      8  N2  <0> d           3.471   2.311   0.023  0.00  0.00    -0.399 N 
ATOM      9  H23 <0> d           3.430   3.280   0.050  0.00  0.00     0.156 HD
ATOM     10  H24 <0> d           4.331   1.863  -0.003  0.00  0.00     0.156 HD
ENDBRANCH   5   8
ENDBRANCH   1   2
BRANCH   1  11
ATOM     11  C8  <0> d          -1.654  -1.150   1.449  0.00  0.00     0.309 C 
BRANCH  11  12
ATOM     12  N1  <0> d          -2.974  -1.794   1.471  0.00  0.00     0.100 N 
ATOM     13  C12 <0> d          -3.510  -1.848   2.837  0.00  0.00     0.252 C 
ATOM     14  C11 <0> d          -4.911  -2.466   2.802  0.00  0.00     0.154 C 
ATOM     15  C13 <0> d          -3.595  -0.440   3.426  0.00  0.00     0.038 C 
ATOM     16  O1  <0> d          -4.835  -3.767   2.217  0.00  0.00    -0.382 OA
ATOM     17  C16 <0> d          -5.455  -2.560   4.228  0.00  0.00     0.034 C 
ATOM     18  C10 <0> d          -4.311  -3.763   0.885  0.00  0.00     0.198 C 
ATOM     19  C9  <0> d          -2.911  -3.143   0.889  0.00  0.00     0.299 C 
ATOM     20  C15 <0> d          -5.539  -1.155   4.829  0.00  0.00     0.003 C 
ATOM     21  C14 <0> d          -4.146  -0.521   4.851  0.00  0.00     0.002 C 
ENDBRANCH  11  12
ENDBRANCH   1  11
BRANCH   1  22
ATOM     22  O2  <0> d          -1.137  -1.896  -0.791  0.00  0.00    -0.389 OA
ATOM     23  H22 <0> d          -0.428  -2.480  -0.489  0.00  0.00     0.210 HD
ENDBRANCH   1  22
TORSDOF 5
