REMARK  8 active torsions:
REMARK  status: ('A' for Active; 'I' for Inactive)
REMARK    1  A    between atoms: N1_2  and  C3_4 
REMARK    2  A    between atoms: C6_7  and  C9_10 
REMARK    3  A    between atoms: C9_10  and  C10_11 
REMARK    4  A    between atoms: C9_10  and  N4_24 
REMARK    5  A    between atoms: C10_11  and  N2_12 
REMARK       I    between atoms: N2_12  and  C11_13 
REMARK    6  A    between atoms: C11_13  and  C12_15 
REMARK       I    between atoms: C12_15  and  N3_17 
REMARK    7  A    between atoms: N3_17  and  C13_18 
REMARK    8  A    between atoms: C13_18  and  C14_19 
ROOT
ATOM      1  C10 <0> d          -1.223  -3.087  -5.130  0.00  0.00     0.161 C 
ENDROOT
BRANCH   1   2
ATOM      2  C9  <0> d           0.260  -2.877  -4.817  0.00  0.00     0.237 C 
BRANCH   2   3
ATOM      3  C6  <0> d           0.402  -2.274  -3.443  0.00  0.00    -0.026 A 
ATOM      4  C5  <0> d           0.728  -3.079  -2.367  0.00  0.00     0.011 A 
ATOM      5  C4  <0> d           0.860  -2.530  -1.107  0.00  0.00     0.030 A 
ATOM      6  C3  <0> d           0.665  -1.167  -0.921  0.00  0.00     0.029 A 
ATOM      7  C8  <0> d           0.332  -0.362  -2.003  0.00  0.00     0.030 A 
ATOM      8  C7  <0> d           0.207  -0.917  -3.261  0.00  0.00     0.011 A 
BRANCH   6   9
ATOM      9  N1  <0> d           0.797  -0.608   0.353  0.00  0.00    -0.390 N 
ATOM     10  C1  <0> d           0.585   0.828   0.548  0.00  0.00     0.149 C 
ATOM     11  C2  <0> d           1.149  -1.459   1.493  0.00  0.00     0.149 C 
ENDBRANCH   6   9
ENDBRANCH   2   3
BRANCH   2  12
ATOM     12  N4  <0> d           0.847  -1.970  -5.812  0.00  0.00    -0.069 N 
ATOM     13  C18 <0> d           2.260  -1.733  -5.486  0.00  0.00     0.270 C 
ATOM     14  C19 <0> d           0.749  -2.578  -7.146  0.00  0.00     0.270 C 
ATOM     15  H31 <0> d           0.348  -1.093  -5.805  0.00  0.00     0.279 HD
ENDBRANCH   2  12
ENDBRANCH   1   2
BRANCH   1  16
ATOM     16  N2  <0> d          -1.784  -4.071  -4.201  0.00  0.00    -0.351 N 
ATOM     17  C11 <0> d          -3.063  -4.473  -4.338  0.00  0.00     0.309 C 
ATOM     18  O1  <0> d          -3.750  -4.021  -5.230  0.00  0.00    -0.262 OA
ATOM     19  H15 <0> d          -1.235  -4.432  -3.488  0.00  0.00     0.162 HD
BRANCH  17  20
ATOM     20  C12 <0> d          -3.636  -5.477  -3.390  0.00  0.00     0.309 C 
ATOM     21  O2  <0> d          -2.949  -5.930  -2.498  0.00  0.00    -0.262 OA
ATOM     22  N3  <0> d          -4.915  -5.880  -3.526  0.00  0.00    -0.350 N 
ATOM     23  H16 <0> d          -5.464  -5.518  -4.239  0.00  0.00     0.162 HD
BRANCH  22  24
ATOM     24  C13 <0> d          -5.476  -6.864  -2.597  0.00  0.00     0.155 C 
BRANCH  24  25
ATOM     25  C14 <0> d          -6.933  -7.144  -2.970  0.00  0.00     0.139 C 
ATOM     26  O3  <0> d          -6.991  -7.801  -4.242  0.00  0.00    -0.384 OA
ATOM     27  C17 <0> d          -7.575  -9.107  -4.091  0.00  0.00     0.168 C 
ATOM     28  C16 <0> d          -8.443  -9.017  -2.811  0.00  0.00     0.029 C 
ATOM     29  C15 <0> d          -7.568  -8.088  -1.926  0.00  0.00     0.035 C 
ENDBRANCH  24  25
ENDBRANCH  22  24
ENDBRANCH  17  20
ENDBRANCH   1  16
TORSDOF 8
