REMARK  5 active torsions:
REMARK  status: ('A' for Active; 'I' for Inactive)
REMARK    1  A    between atoms: C2_2  and  C3_3 
REMARK    2  A    between atoms: C2_2  and  N6_19 
REMARK    3  A    between atoms: C3_3  and  N1_4 
REMARK       I    between atoms: N1_4  and  C4_5 
REMARK       I    between atoms: C4_5  and  N2_7 
REMARK    4  A    between atoms: N2_7  and  C5_8 
REMARK    5  A    between atoms: C8_11  and  N4_14 
ROOT
ATOM      1  N1  <0> d           0.577  -2.148   1.033  0.00  0.00    -0.341 N 
ATOM      2  C4  <0> d           1.177  -2.948   1.937  0.00  0.00     0.320 C 
ATOM      3  O1  <0> d           1.669  -2.470   2.941  0.00  0.00    -0.247 OA
ATOM      4  N2  <0> d           1.230  -4.279   1.729  0.00  0.00    -0.308 N 
ATOM      5  H7  <0> d           0.185  -2.530   0.233  0.00  0.00     0.164 HD
ATOM      6  H8  <0> d           0.897  -4.653   0.898  0.00  0.00     0.170 HD
ENDROOT
BRANCH   1   7
ATOM      7  C3  <0> d           0.519  -0.702   1.260  0.00  0.00     0.157 C 
BRANCH   7   8
ATOM      8  C2  <0> d          -0.086  -0.018   0.033  0.00  0.00     0.202 C 
ATOM      9  C1  <0> d          -0.076   1.499   0.238  0.00  0.00     0.042 C 
BRANCH   8  10
ATOM     10  N6  <0> d           0.706  -0.356  -1.157  0.00  0.00    -0.061 N 
ATOM     11  C21 <0> d           0.049   0.179  -2.353  0.00  0.00     0.274 C 
ATOM     12  C20 <0> d           0.915  -0.022  -3.568  0.00  0.00    -0.026 A 
ATOM     13  C15 <0> d           2.267  -0.272  -3.462  0.00  0.00    -0.049 A 
ATOM     14  C19 <0> d           0.326   0.055  -4.822  0.00  0.00     0.009 A 
ATOM     15  C14 <0> d           2.945  -0.369  -2.119  0.00  0.00     0.067 C 
ATOM     16  C16 <0> d           3.030  -0.442  -4.606  0.00  0.00     0.007 A 
ATOM     17  C13 <0> d           2.047   0.239  -1.041  0.00  0.00     0.240 C 
ATOM     18  C17 <0> d           2.443  -0.363  -5.854  0.00  0.00     0.001 A 
ATOM     19  C18 <0> d           1.087  -0.115  -5.961  0.00  0.00     0.001 A 
ATOM     20  H25 <0> d           0.786  -1.359  -1.236  0.00  0.00     0.280 HD
ENDBRANCH   8  10
ENDBRANCH   7   8
ENDBRANCH   1   7
BRANCH   4  21
ATOM     21  C5  <0> d           1.768  -5.121   2.711  0.00  0.00     0.054 A 
ATOM     22  C9  <0> d           2.426  -6.288   2.353  0.00  0.00     0.148 A 
ATOM     23  N3  <0> d           2.938  -7.083   3.272  0.00  0.00    -0.239 NA
ATOM     24  C8  <0> d           2.838  -6.809   4.562  0.00  0.00     0.150 A 
ATOM     25  C7  <0> d           2.188  -5.660   4.997  0.00  0.00     0.054 A 
ATOM     26  C6  <0> d           1.642  -4.799   4.061  0.00  0.00     0.035 A 
BRANCH  24  27
ATOM     27  N4  <0> d           3.393  -7.685   5.500  0.00  0.00    -0.227 N 
ATOM     28  N5  <0> d           3.368  -7.529   6.892  0.00  0.00    -0.179 NA
ATOM     29  C12 <0> d           3.985  -8.550   7.431  0.00  0.00     0.141 A 
ATOM     30  C11 <0> d           4.433  -9.387   6.402  0.00  0.00     0.040 A 
ATOM     31  C10 <0> d           4.059  -8.837   5.224  0.00  0.00     0.122 A 
ENDBRANCH  24  27
ENDBRANCH   4  21
TORSDOF 5
