REMARK  9 active torsions:
REMARK  status: ('A' for Active; 'I' for Inactive)
REMARK    1  A    between atoms: N1_2  and  C3_4 
REMARK    2  A    between atoms: C3_4  and  C4_5 
REMARK    3  A    between atoms: C4_5  and  N2_6 
REMARK    4  A    between atoms: N2_6  and  S1_7 
REMARK    5  A    between atoms: S1_7  and  C5_10 
REMARK    6  A    between atoms: C7_12  and  C10_16 
REMARK    7  A    between atoms: C11_17  and  C12_18 
REMARK    8  A    between atoms: C12_18  and  C13_19 
REMARK    9  A    between atoms: C13_19  and  O3_20 
ROOT
ATOM      1  C5  <0> d           5.455  -0.396  -1.502  0.00  0.00     0.098 A 
ATOM      2  C6  <0> d           5.649   0.407  -0.392  0.00  0.00     0.048 A 
ATOM      3  C7  <0> d           6.554  -0.021   0.586  0.00  0.00     0.036 A 
ATOM      4  C8  <0> d           7.222  -1.233   0.403  0.00  0.00     0.136 A 
ATOM      5  N3  <0> d           7.003  -1.962  -0.672  0.00  0.00    -0.270 NA
ATOM      6  C9  <0> d           6.151  -1.587  -1.607  0.00  0.00     0.141 A 
ENDROOT
BRANCH   1   7
ATOM      7  S1  <0> d           4.328   0.090  -2.766  0.00  0.00     0.260 S 
ATOM      8  O1  <0> d           4.735  -0.578  -3.953  0.00  0.00    -0.200 OA
ATOM      9  O2  <0> d           4.216   1.504  -2.688  0.00  0.00    -0.200 OA
BRANCH   7  10
ATOM     10  N2  <0> d           2.845  -0.526  -2.362  0.00  0.00    -0.314 N 
ATOM     11  H11 <0> d           2.430  -1.199  -2.924  0.00  0.00     0.172 HD
BRANCH  10  12
ATOM     12  C4  <0> d           2.159  -0.053  -1.157  0.00  0.00     0.160 C 
BRANCH  12  13
ATOM     13  C3  <0> d           0.690  -0.478  -1.207  0.00  0.00     0.254 C 
BRANCH  13  14
ATOM     14  N1  <0> d           0.002  -0.004   0.002  0.00  0.00    -0.077 N 
ATOM     15  C1  <0> d          -0.018   1.465   0.010  0.00  0.00     0.269 C 
ATOM     16  C2  <0> d          -1.376  -0.512   0.012  0.00  0.00     0.269 C 
ATOM     17  H20 <0> d           0.490  -0.338   0.820  0.00  0.00     0.279 HD
ENDBRANCH  13  14
ENDBRANCH  12  13
ENDBRANCH  10  12
ENDBRANCH   7  10
ENDBRANCH   1   7
BRANCH   3  18
ATOM     18  C10 <0> d           6.792   0.772   1.754  0.00  0.00    -0.065 C 
ATOM     19  C11 <0> d           6.987   1.422   2.712  0.00  0.00    -0.099 C 
BRANCH  19  20
ATOM     20  C12 <0> d           7.232   2.237   3.913  0.00  0.00     0.120 C 
BRANCH  20  21
ATOM     21  C13 <0> d           8.259   1.536   4.805  0.00  0.00     0.176 C 
BRANCH  21  22
ATOM     22  O3  <0> d           8.497   2.328   5.971  0.00  0.00    -0.400 OA
ATOM     23  H19 <0> d           9.139   1.943   6.583  0.00  0.00     0.209 HD
ENDBRANCH  21  22
ENDBRANCH  20  21
ENDBRANCH  19  20
ENDBRANCH   3  18
TORSDOF 9
