REMARK  3 active torsions:
REMARK  status: ('A' for Active; 'I' for Inactive)
REMARK    1  A    between atoms: C5_5  and  C12_16 
REMARK    2  A    between atoms: N1_8  and  C7_9 
REMARK    3  A    between atoms: C7_9  and  C8_10 
ROOT
ATOM      1  C1  <0> d          -0.061   1.726   0.159  0.00  0.00     0.068 C 
ATOM      2  C2  <0> d          -0.039   0.227   0.006  0.00  0.00     0.011 A 
ATOM      3  C3  <0> d          -0.158  -0.318  -1.233  0.00  0.00     0.026 A 
ATOM      4  C4  <0> d          -0.140  -1.702  -1.393  0.00  0.00     0.026 A 
ATOM      5  C5  <0> d           0.003  -2.511  -0.264  0.00  0.00     0.108 A 
ATOM      6  C6  <0> d           0.124  -1.894   1.009  0.00  0.00     0.265 A 
ATOM      7  O1  <0> d           0.251  -2.576   2.010  0.00  0.00    -0.267 OA
ATOM      8  N1  <0> d           0.105  -0.551   1.105  0.00  0.00    -0.311 N 
ENDROOT
BRANCH   8   9
ATOM      9  C7  <0> d           0.236   0.080   2.421  0.00  0.00     0.208 C 
BRANCH   9  10
ATOM     10  C8  <0> d           1.675   0.465   2.652  0.00  0.00     0.101 A 
ATOM     11  N3  <0> d           2.635  -0.342   3.152  0.00  0.00    -0.348 N 
ATOM     12  C10 <0> d           3.793   0.387   3.199  0.00  0.00     0.108 A 
ATOM     13  C11 <0> d           2.470  -1.738   3.563  0.00  0.00     0.157 C 
ATOM     14  C9  <0> d           3.498   1.616   2.735  0.00  0.00     0.106 A 
ATOM     15  N2  <0> d           2.197   1.636   2.409  0.00  0.00    -0.353 N 
ATOM     16  H13 <0> d           1.720   2.399   2.048  0.00  0.00     0.166 HD
ENDBRANCH   9  10
ENDBRANCH   8   9
BRANCH   5  17
ATOM     17  C12 <0> d           0.027  -3.972  -0.391  0.00  0.00     0.215 C 
ATOM     18  O2  <0> d          -0.079  -4.492  -1.494  0.00  0.00    -0.644 OA
ATOM     19  O3  <0> d           0.153  -4.671   0.607  0.00  0.00    -0.644 OA
ENDBRANCH   5  17
TORSDOF 3
