REMARK  3 active torsions:
REMARK  status: ('A' for Active; 'I' for Inactive)
REMARK    1  A    between atoms: C3_3  and  C7_9 
REMARK    2  A    between atoms: C9_12  and  C10_14 
REMARK    3  A    between atoms: C10_14  and  N4_21 
ROOT
ATOM      1  C7  <0> d          -0.283  -0.700  -2.624  0.00  0.00     0.078 A 
ATOM      2  C8  <0> d          -0.310  -1.709  -3.547  0.00  0.00     0.084 A 
ATOM      3  S1  <0> d          -0.531  -0.773  -5.051  0.00  0.00    -0.082 SA
ATOM      4  C9  <0> d          -0.565   0.764  -4.369  0.00  0.00     0.111 A 
ATOM      5  N3  <0> d          -0.421   0.532  -3.089  0.00  0.00    -0.242 NA
ENDROOT
BRANCH   4   6
ATOM      6  C10 <0> d          -0.729   2.091  -5.065  0.00  0.00     0.174 C 
ATOM      7  C15 <0> d          -0.870   1.863  -6.571  0.00  0.00     0.046 C 
ATOM      8  C14 <0> d          -1.035   3.210  -7.277  0.00  0.00     0.007 C 
ATOM      9  C13 <0> d          -2.287   3.913  -6.748  0.00  0.00    -0.019 C 
ATOM     10  C12 <0> d          -2.146   4.141  -5.242  0.00  0.00     0.007 C 
ATOM     11  C16 <0> d          -3.515   3.041  -7.019  0.00  0.00     0.010 C 
ATOM     12  C11 <0> d          -1.980   2.794  -4.536  0.00  0.00     0.046 C 
BRANCH   6  13
ATOM     13  N4  <0> d           0.450   2.928  -4.804  0.00  0.00    -0.064 N 
ATOM     14  H23 <0> d           1.276   2.465  -5.153  0.00  0.00     0.275 HD
ATOM     15  H24 <0> d           0.341   3.817  -5.270  0.00  0.00     0.275 HD
ATOM     16  H25 <0> d           0.543   3.079  -3.811  0.00  0.00     0.275 HD
ENDBRANCH   6  13
ENDBRANCH   4   6
BRANCH   1  17
ATOM     17  C3  <0> d          -0.113  -0.972  -1.173  0.00  0.00     0.043 A 
ATOM     18  C2  <0> d           0.846  -1.824  -0.593  0.00  0.00     0.065 A 
ATOM     19  C1  <0> d           1.885  -2.623  -1.338  0.00  0.00     0.073 C 
ATOM     20  N2  <0> d           0.676  -1.806   0.703  0.00  0.00    -0.177 NA
ATOM     21  N1  <0> d          -0.384  -0.942   1.000  0.00  0.00    -0.278 N 
ATOM     22  C4  <0> d          -0.858  -0.442  -0.161  0.00  0.00     0.041 A 
ATOM     23  C5  <0> d          -0.895  -0.636   2.339  0.00  0.00     0.179 C 
ATOM     24  C6  <0> d          -2.003   0.526  -0.312  0.00  0.00     0.071 C 
ENDBRANCH   1  17
TORSDOF 3
