REMARK  5 active torsions:
REMARK  status: ('A' for Active; 'I' for Inactive)
REMARK    1  A    between atoms: N1_2  and  C2_3 
REMARK    2  A    between atoms: N1_2  and  C9_12 
REMARK    3  A    between atoms: C2_3  and  C3_4 
REMARK    4  A    between atoms: C12_15  and  C15_18 
REMARK    5  A    between atoms: C15_18  and  N2_19 
ROOT
ATOM      1  C9  <0> d          -0.580  -0.872  -1.058  0.00  0.00     0.030 A 
ATOM      2  C10 <0> d          -1.107  -2.121  -0.743  0.00  0.00     0.030 A 
ATOM      3  C11 <0> d          -1.652  -2.908  -1.730  0.00  0.00     0.017 A 
ATOM      4  C12 <0> d          -1.677  -2.453  -3.051  0.00  0.00     0.007 A 
ATOM      5  C13 <0> d          -1.148  -1.199  -3.365  0.00  0.00     0.017 A 
ATOM      6  C14 <0> d          -0.608  -0.413  -2.372  0.00  0.00     0.030 A 
ENDROOT
BRANCH   1   7
ATOM      7  N1  <0> d          -0.029  -0.077  -0.057  0.00  0.00    -0.381 N 
ATOM      8  C1  <0> d           0.664   1.165  -0.406  0.00  0.00     0.150 C 
BRANCH   7   9
ATOM      9  C2  <0> d          -0.143  -0.483   1.346  0.00  0.00     0.164 C 
BRANCH   9  10
ATOM     10  C3  <0> d          -1.286   0.256   1.992  0.00  0.00     0.003 A 
ATOM     11  C8  <0> d          -2.555  -0.295   1.993  0.00  0.00     0.043 A 
ATOM     12  C7  <0> d          -3.602   0.382   2.592  0.00  0.00     0.024 A 
ATOM     13 Cl1  <0> d          -2.830  -1.840   1.250  0.00  0.00    -0.084 Cl
ATOM     14  C6  <0> d          -3.384   1.614   3.178  0.00  0.00     0.003 A 
ATOM     15  C5  <0> d          -2.118   2.169   3.171  0.00  0.00     0.024 A 
ATOM     16  C4  <0> d          -1.068   1.490   2.578  0.00  0.00     0.043 A 
ATOM     17 Cl2  <0> d           0.522   2.186   2.571  0.00  0.00    -0.084 Cl
ENDBRANCH   9  10
ENDBRANCH   7   9
ENDBRANCH   1   7
BRANCH   4  18
ATOM     18  C15 <0> d          -2.262  -3.296  -4.114  0.00  0.00     0.102 C 
ATOM     19  N3  <0> d          -2.766  -4.492  -3.813  0.00  0.00    -0.385 N 
ATOM     20  H14 <0> d          -2.749  -4.810  -2.896  0.00  0.00     0.157 HD
ATOM     21  H15 <0> d          -3.150  -5.046  -4.511  0.00  0.00     0.157 HD
BRANCH  18  22
ATOM     22  N2  <0> d          -2.285  -2.860  -5.373  0.00  0.00    -0.385 N 
ATOM     23  H13 <0> d          -1.918  -1.989  -5.592  0.00  0.00     0.157 HD
ATOM     24  H16 <0> d          -2.669  -3.414  -6.071  0.00  0.00     0.157 HD
ENDBRANCH  18  22
ENDBRANCH   4  18
TORSDOF 5
