REMARK  3 active torsions:
REMARK  status: ('A' for Active; 'I' for Inactive)
REMARK    1  A    between atoms: C2_2  and  C3_3 
REMARK    2  A    between atoms: C2_2  and  N3_9 
REMARK    3  A    between atoms: N3_9  and  C7_10 
ROOT
ATOM      1  C7  <0> d           0.111  -0.222   2.389  0.00  0.00     0.221 C 
ATOM      2  C8  <0> d          -1.111  -1.120   2.463  0.00  0.00     0.048 C 
ATOM      3  C9  <0> d          -1.825  -0.887   3.802  0.00  0.00     0.082 C 
ATOM      4  S1  <0> d          -2.619   0.746   3.706  0.00  0.00    -0.129 SA
ATOM      5  C10 <0> d          -1.358   1.770   3.016  0.00  0.00     0.009 A 
ATOM      6  C11 <0> d          -0.211   1.241   2.457  0.00  0.00    -0.008 A 
ATOM      7  C12 <0> d           0.732   2.112   1.916  0.00  0.00     0.052 A 
ATOM      8  C13 <0> d           0.535   3.478   1.942  0.00  0.00     0.117 A 
ATOM      9  C14 <0> d          -0.614   4.002   2.511  0.00  0.00     0.043 A 
ATOM     10  C15 <0> d          -1.551   3.151   3.046  0.00  0.00     0.022 A 
ATOM     11  F1  <0> d           1.463   4.304   1.411  0.00  0.00    -0.206 F 
ENDROOT
BRANCH   1  12
ATOM     12  N3  <0> d           0.814  -0.489   1.126  0.00  0.00    -0.059 N 
ATOM     13  H11 <0> d           1.174  -1.431   1.135  0.00  0.00     0.278 HD
ATOM     14  H19 <0> d           1.578   0.162   1.022  0.00  0.00     0.278 HD
BRANCH  12  15
ATOM     15  C2  <0> d          -0.120  -0.332   0.003  0.00  0.00     0.218 C 
ATOM     16  C1  <0> d          -0.508   1.142  -0.135  0.00  0.00     0.045 C 
BRANCH  15  17
ATOM     17  C3  <0> d           0.540  -0.798  -1.268  0.00  0.00     0.008 A 
ATOM     18  C5  <0> d          -0.050  -1.508  -2.258  0.00  0.00     0.122 A 
ATOM     19  N2  <0> d           0.874  -1.723  -3.217  0.00  0.00    -0.285 N 
ATOM     20  N1  <0> d           2.074  -1.134  -2.800  0.00  0.00    -0.185 NA
ATOM     21  C6  <0> d           0.661  -2.450  -4.471  0.00  0.00     0.179 C 
ATOM     22  C4  <0> d           1.873  -0.580  -1.632  0.00  0.00     0.149 A 
ENDBRANCH  15  17
ENDBRANCH  12  15
ENDBRANCH   1  12
TORSDOF 3
