REMARK  6 active torsions:
REMARK  status: ('A' for Active; 'I' for Inactive)
REMARK    1  A    between atoms: C2_2  and  C3_3 
REMARK    2  A    between atoms: C3_3  and  C4_4 
REMARK    3  A    between atoms: C4_4  and  N1_5 
REMARK    4  A    between atoms: C7_9  and  C8_10 
REMARK    5  A    between atoms: N3_13  and  C11_16 
REMARK    6  A    between atoms: C10_14  and  O2_15 
ROOT
ATOM      1  N1  <0> d          -0.698   1.558   1.213  0.00  0.00    -0.264 N 
ATOM      2  C5  <0> d          -0.435   2.714   1.854  0.00  0.00     0.278 A 
ATOM      3  O1  <0> d           0.403   3.540   1.540  0.00  0.00    -0.265 OA
ATOM      4  C6  <0> d          -1.319   2.787   2.963  0.00  0.00     0.106 A 
ATOM      5  C7  <0> d          -1.401   3.788   3.880  0.00  0.00     0.053 C 
ATOM      6  N4  <0> d          -2.089   1.613   2.920  0.00  0.00    -0.304 N 
ATOM      7  C16 <0> d          -1.682   0.903   1.851  0.00  0.00     0.330 A 
ATOM      8  O3  <0> d          -2.137  -0.174   1.514  0.00  0.00    -0.246 OA
ATOM      9  H24 <0> d          -2.786   1.361   3.546  0.00  0.00     0.171 HD
ENDROOT
BRANCH   5  10
ATOM     10  C8  <0> d          -2.374   3.702   4.972  0.00  0.00     0.045 A 
ATOM     11  C10 <0> d          -2.116   3.891   6.328  0.00  0.00     0.172 A 
ATOM     12  N3  <0> d          -3.284   3.722   6.981  0.00  0.00    -0.238 N 
ATOM     13  N2  <0> d          -4.279   3.428   6.043  0.00  0.00    -0.174 NA
ATOM     14  C9  <0> d          -3.755   3.419   4.849  0.00  0.00     0.065 A 
ATOM     15  C15 <0> d          -4.492   3.148   3.563  0.00  0.00     0.073 C 
BRANCH  11  16
ATOM     16  O2  <0> d          -0.919   4.187   6.886  0.00  0.00    -0.344 OA
ATOM     17  H11 <0> d          -0.744   5.136   6.960  0.00  0.00     0.219 HD
ENDBRANCH  11  16
BRANCH  12  18
ATOM     18  C11 <0> d          -3.477   3.829   8.429  0.00  0.00     0.047 C 
ATOM     19  C12 <0> d          -3.088   5.234   8.893  0.00  0.00     0.040 C 
ATOM     20  C13 <0> d          -4.946   3.569   8.768  0.00  0.00     0.040 C 
ATOM     21  C14 <0> d          -2.599   2.796   9.138  0.00  0.00     0.040 C 
ENDBRANCH  12  18
ENDBRANCH   5  10
BRANCH   1  22
ATOM     22  C4  <0> d          -0.013   1.086   0.008  0.00  0.00     0.137 C 
BRANCH  22  23
ATOM     23  C3  <0> d          -0.753   1.593  -1.232  0.00  0.00     0.020 C 
BRANCH  23  24
ATOM     24  C2  <0> d          -0.037   1.099  -2.490  0.00  0.00    -0.003 C 
ATOM     25  C1  <0> d          -0.777   1.606  -3.730  0.00  0.00     0.005 C 
ENDBRANCH  23  24
ENDBRANCH  22  23
ENDBRANCH   1  22
TORSDOF 6
