REMARK  10 active torsions:
REMARK  status: ('A' for Active; 'I' for Inactive)
REMARK    1  A    between atoms: C2_2  and  O1_3 
REMARK    2  A    between atoms: O1_3  and  C3_4 
REMARK    3  A    between atoms: C3_4  and  C4_6 
REMARK    4  A    between atoms: C7_10  and  N1_11 
REMARK       I    between atoms: N1_11  and  C8_12 
REMARK    5  A    between atoms: C8_12  and  C9_14 
REMARK    6  A    between atoms: C9_14  and  N2_24 
REMARK    7  A    between atoms: C10_15  and  C11_16 
REMARK    8  A    between atoms: C10_15  and  N2_24 
REMARK    9  A    between atoms: C11_16  and  C12_17 
REMARK   10  A    between atoms: C12_17  and  N3_27 
ROOT
ATOM      1  N1  <0> d           1.143   1.898   0.001  0.00  0.00    -0.319 N 
ATOM      2  C8  <0> d          -0.014   1.209   0.009  0.00  0.00     0.248 C 
ATOM      3  O3  <0> d           0.002  -0.004   0.002  0.00  0.00    -0.271 OA
ATOM      4  H6  <0> d           1.130   2.868   0.007  0.00  0.00     0.169 HD
ENDROOT
BRANCH   1   5
ATOM      5  C7  <0> d           2.353   1.222  -0.014  0.00  0.00     0.094 A 
ATOM      6  C4  <0> d           3.634   1.749  -0.029  0.00  0.00     0.080 A 
ATOM      7  C5  <0> d           4.753   0.806  -0.039  0.00  0.00    -0.026 A 
ATOM      8  C17 <0> d           6.280   0.900  -0.055  0.00  0.00     0.041 C 
ATOM      9  C6  <0> d           4.406  -0.493  -0.043  0.00  0.00    -0.008 A 
ATOM     10  C16 <0> d           6.782  -0.492   0.376  0.00  0.00     0.010 C 
ATOM     11  C15 <0> d           5.608  -1.398  -0.056  0.00  0.00     0.047 C 
ATOM     12  S1  <0> d           2.630  -0.487  -0.026  0.00  0.00    -0.075 SA
BRANCH   6  13
ATOM     13  C3  <0> d           3.860   3.195  -0.030  0.00  0.00     0.296 C 
ATOM     14  O2  <0> d           3.967   3.795   1.022  0.00  0.00    -0.259 OA
BRANCH  13  15
ATOM     15  O1  <0> d           3.950   3.863  -1.199  0.00  0.00    -0.318 OA
BRANCH  15  16
ATOM     16  C2  <0> d           4.174   5.295  -1.125  0.00  0.00     0.174 C 
ATOM     17  C1  <0> d           4.247   5.875  -2.539  0.00  0.00     0.034 C 
ENDBRANCH  15  16
ENDBRANCH  13  15
ENDBRANCH   6  13
ENDBRANCH   1   5
BRANCH   2  18
ATOM     18  C9  <0> d          -1.330   1.944   0.019  0.00  0.00     0.334 C 
BRANCH  18  19
ATOM     19  N2  <0> d          -2.432   0.964   0.019  0.00  0.00    -0.067 N 
ATOM     20  H27 <0> d          -2.358   0.371   0.854  0.00  0.00     0.277 HD
ATOM     21  H28 <0> d          -2.366   0.380  -0.823  0.00  0.00     0.277 HD
BRANCH  19  22
ATOM     22  C10 <0> d          -3.734   1.657   0.029  0.00  0.00     0.234 C 
BRANCH  22  23
ATOM     23  C11 <0> d          -4.856   0.617   0.028  0.00  0.00     0.055 C 
BRANCH  23  24
ATOM     24  C12 <0> d          -6.210   1.328   0.039  0.00  0.00     0.235 C 
BRANCH  24  25
ATOM     25  N3  <0> d          -7.283   0.311   0.017  0.00  0.00    -0.079 N 
ATOM     26  C13 <0> d          -7.289  -0.444   1.288  0.00  0.00     0.269 C 
ATOM     27  C14 <0> d          -8.593   0.963  -0.190  0.00  0.00     0.269 C 
ATOM     28  H29 <0> d          -7.109  -0.341  -0.757  0.00  0.00     0.278 HD
ENDBRANCH  24  25
ENDBRANCH  23  24
ENDBRANCH  22  23
ENDBRANCH  19  22
ENDBRANCH  18  19
ENDBRANCH   2  18
TORSDOF 10
