REMARK  4 active torsions:
REMARK  status: ('A' for Active; 'I' for Inactive)
REMARK    1  A    between atoms: C1_1  and  C2_2 
REMARK       I    between atoms: C2_2  and  N1_4 
REMARK    2  A    between atoms: N1_4  and  C3_5 
REMARK    3  A    between atoms: C3_5  and  C4_6 
REMARK    4  A    between atoms: C3_5  and  O2_10 
ROOT
ATOM      1  C3  <0> d          -2.449   1.117   0.020  0.00  0.00     0.275 C 
ENDROOT
BRANCH   1   2
ATOM      2  N1  <0> d          -1.191   1.867   0.018  0.00  0.00    -0.330 N 
ATOM      3  C2  <0> d          -0.014   1.209   0.009  0.00  0.00     0.233 C 
ATOM      4  O1  <0> d           0.002  -0.004   0.002  0.00  0.00    -0.272 OA
ATOM      5  H4  <0> d          -1.204   2.837   0.023  0.00  0.00     0.165 HD
BRANCH   3   6
ATOM      6  C1  <0> d           1.280   1.980   0.001  0.00  0.00     0.217 C 
ATOM      7 Cl4  <0> d           2.667   0.827  -0.019  0.00  0.00    -0.121 Cl
ENDBRANCH   3   6
ENDBRANCH   1   2
BRANCH   1   8
ATOM      8  C4  <0> d          -3.457   1.810  -0.899  0.00  0.00     0.231 C 
ATOM      9 Cl1  <0> d          -3.756   3.487  -0.307  0.00  0.00    -0.079 Cl
ATOM     10 Cl2  <0> d          -2.798   1.873  -2.576  0.00  0.00    -0.079 Cl
ATOM     11 Cl3  <0> d          -5.006   0.888  -0.897  0.00  0.00    -0.079 Cl
ENDBRANCH   1   8
BRANCH   1  12
ATOM     12  O2  <0> d          -2.972   1.067   1.349  0.00  0.00    -0.372 OA
ATOM     13  H5  <0> d          -3.156   1.935   1.732  0.00  0.00     0.212 HD
ENDBRANCH   1  12
TORSDOF 4
