REMARK  7 active torsions:
REMARK  status: ('A' for Active; 'I' for Inactive)
REMARK    1  A    between atoms: C5_5  and  C8_8 
REMARK    2  A    between atoms: C8_8  and  S1_9 
REMARK    3  A    between atoms: S1_9  and  C9_10 
REMARK    4  A    between atoms: C9_10  and  C10_11 
REMARK       I    between atoms: C10_11  and  N1_13 
REMARK    5  A    between atoms: N1_13  and  C11_14 
REMARK    6  A    between atoms: C13_16  and  S2_22 
REMARK    7  A    between atoms: S2_22  and  N2_25 
ROOT
ATOM      1  C11 <0> d          -2.553   1.410   3.131  0.00  0.00     0.042 A 
ATOM      2  C12 <0> d          -1.440   0.903   2.473  0.00  0.00     0.055 A 
ATOM      3  C13 <0> d          -0.516   1.766   1.918  0.00  0.00     0.082 A 
ATOM      4  C14 <0> d          -0.694   3.133   2.021  0.00  0.00     0.032 A 
ATOM      5  C15 <0> d          -1.803   3.641   2.672  0.00  0.00    -0.052 A 
ATOM      6  C16 <0> d          -2.732   2.784   3.229  0.00  0.00    -0.029 A 
ATOM      7  C17 <0> d          -3.938   3.338   3.943  0.00  0.00     0.051 C 
ATOM      8  C18 <0> d          -1.997   5.132   2.778  0.00  0.00     0.049 C 
ENDROOT
BRANCH   1   9
ATOM      9  N1  <0> d          -3.492   0.539   3.695  0.00  0.00    -0.326 N 
ATOM     10  C10 <0> d          -3.768  -0.635   3.093  0.00  0.00     0.231 C 
ATOM     11  O1  <0> d          -3.146  -0.973   2.108  0.00  0.00    -0.272 OA
ATOM     12  H12 <0> d          -3.944   0.780   4.519  0.00  0.00     0.169 HD
BRANCH  10  13
ATOM     13  C9  <0> d          -4.851  -1.527   3.642  0.00  0.00     0.177 C 
BRANCH  13  14
ATOM     14  S1  <0> d          -4.981  -3.020   2.620  0.00  0.00    -0.155 SA
BRANCH  14  15
ATOM     15  C8  <0> d          -6.310  -3.974   3.405  0.00  0.00     0.112 C 
BRANCH  15  16
ATOM     16  C5  <0> d          -6.523  -5.258   2.644  0.00  0.00    -0.049 A 
ATOM     17  C4  <0> d          -5.816  -6.393   2.992  0.00  0.00     0.008 A 
ATOM     18  C3  <0> d          -6.012  -7.570   2.294  0.00  0.00     0.007 A 
ATOM     19  C2  <0> d          -6.915  -7.612   1.249  0.00  0.00    -0.062 A 
ATOM     20  C1  <0> d          -7.129  -8.895   0.488  0.00  0.00     0.048 C 
ATOM     21  C7  <0> d          -7.622  -6.476   0.901  0.00  0.00     0.007 A 
ATOM     22  C6  <0> d          -7.430  -5.300   1.602  0.00  0.00     0.008 A 
ENDBRANCH  15  16
ENDBRANCH  14  15
ENDBRANCH  13  14
ENDBRANCH  10  13
ENDBRANCH   1   9
BRANCH   3  23
ATOM     23  S2  <0> d           0.896   1.123   1.082  0.00  0.00     0.256 S 
ATOM     24  O2  <0> d           1.116  -0.182   1.601  0.00  0.00    -0.201 OA
ATOM     25  O3  <0> d           1.890   2.138   1.126  0.00  0.00    -0.201 OA
BRANCH  23  26
ATOM     26  N2  <0> d           0.480   0.936  -0.510  0.00  0.00    -0.324 N 
ATOM     27  H21 <0> d          -0.412   1.172  -0.809  0.00  0.00     0.169 HD
ATOM     28  H22 <0> d           1.129   0.590  -1.143  0.00  0.00     0.169 HD
ENDBRANCH  23  26
ENDBRANCH   3  23
TORSDOF 7
