REMARK  5 active torsions:
REMARK  status: ('A' for Active; 'I' for Inactive)
REMARK    1  A    between atoms: C4_5  and  C5_6 
REMARK    2  A    between atoms: C5_6  and  C6_7 
REMARK    3  A    between atoms: C5_6  and  N2_10 
REMARK       I    between atoms: C6_7  and  N1_9 
REMARK    4  A    between atoms: N2_10  and  C7_11 
REMARK    5  A    between atoms: C7_11  and  C8_12 
ROOT
ATOM      1  C5  <0> d          -1.156  -0.969   0.008  0.00  0.00     0.316 C 
ENDROOT
BRANCH   1   2
ATOM      2  C4  <0> d           0.002  -0.004   0.002  0.00  0.00     0.023 A 
ATOM      3  C1  <0> d          -0.016   1.351   0.009  0.00  0.00     0.036 A 
ATOM      4  C2  <0> d           1.184   2.038   0.002  0.00  0.00     0.018 A 
ATOM      5  C3  <0> d           2.343   1.335  -0.013  0.00  0.00     0.069 A 
ATOM      6 Br1  <0> d           1.208   3.929   0.011  0.00  0.00    -0.051 Br
ATOM      7  S1  <0> d           1.753  -0.350  -0.017  0.00  0.00    -0.102 SA
ENDBRANCH   1   2
BRANCH   1   8
ATOM      8  C6  <0> d          -1.397  -1.472  -1.391  0.00  0.00     0.251 C 
ATOM      9  O1  <0> d          -1.318  -2.659  -1.631  0.00  0.00    -0.271 OA
ATOM     10  N1  <0> d          -1.702  -0.605  -2.377  0.00  0.00    -0.368 N 
ATOM     11  H5  <0> d          -1.766   0.344  -2.185  0.00  0.00     0.159 HD
ATOM     12  H6  <0> d          -1.858  -0.929  -3.277  0.00  0.00     0.159 HD
ENDBRANCH   1   8
BRANCH   1  13
ATOM     13  N2  <0> d          -0.844  -2.102   0.889  0.00  0.00    -0.055 N 
ATOM     14  H7  <0> d          -0.067  -2.620   0.508  0.00  0.00     0.278 HD
ATOM     15  H16 <0> d          -0.602  -1.758   1.807  0.00  0.00     0.278 HD
BRANCH  13  16
ATOM     16  C7  <0> d          -2.016  -2.981   0.990  0.00  0.00     0.265 C 
BRANCH  16  17
ATOM     17  C8  <0> d          -1.692  -4.162   1.908  0.00  0.00     0.147 C 
ATOM     18  O2  <0> d          -1.497  -3.696   3.248  0.00  0.00    -0.384 OA
ATOM     19  C11 <0> d          -2.486  -4.276   4.116  0.00  0.00     0.168 C 
ATOM     20  C10 <0> d          -2.920  -5.588   3.414  0.00  0.00     0.029 C 
ATOM     21  C9  <0> d          -2.875  -5.153   1.924  0.00  0.00     0.036 C 
ENDBRANCH  16  17
ENDBRANCH  13  16
ENDBRANCH   1  13
TORSDOF 5
