REMARK  7 active torsions:
REMARK  status: ('A' for Active; 'I' for Inactive)
REMARK    1  A    between atoms: O1_2  and  C2_3 
REMARK    2  A    between atoms: C7_9  and  C10_12 
REMARK    3  A    between atoms: C10_12  and  C11_13 
REMARK    4  A    between atoms: C11_13  and  N2_14 
REMARK       I    between atoms: N2_14  and  C12_15 
REMARK    5  A    between atoms: C12_15  and  C13_17 
REMARK    6  A    between atoms: C16_21  and  C20_30 
REMARK    7  A    between atoms: C18_23  and  C19_26 
ROOT
ATOM      1  C13 <0> d           2.187  -8.518  -1.720  0.00  0.00     0.195 A 
ATOM      2  C14 <0> d           1.036  -8.139  -2.623  0.00  0.00     0.054 A 
ATOM      3  C15 <0> d           1.452  -8.345  -3.892  0.00  0.00     0.121 A 
ATOM      4  N3  <0> d           0.771  -8.148  -5.048  0.00  0.00    -0.339 N 
ATOM      5  C16 <0> d           1.329  -8.402  -6.218  0.00  0.00     0.070 A 
ATOM      6  C17 <0> d           2.703  -8.905  -6.267  0.00  0.00     0.068 A 
ATOM      7  C18 <0> d           3.370  -9.096  -5.113  0.00  0.00     0.139 A 
ATOM      8  N4  <0> d           2.754  -8.820  -3.913  0.00  0.00    -0.256 N 
ATOM      9  N5  <0> d           3.253  -8.948  -2.641  0.00  0.00    -0.214 NA
ATOM     10  H17 <0> d           4.083  -8.387  -2.519  0.00  0.00     0.148 HD
ATOM     11  H22 <0> d          -0.139  -7.816  -5.016  0.00  0.00     0.167 HD
ENDROOT
BRANCH   1  12
ATOM     12  C12 <0> d           2.636  -7.328  -0.912  0.00  0.00     0.240 C 
ATOM     13  N2  <0> d           1.793  -6.755  -0.031  0.00  0.00    -0.359 N 
ATOM     14  H14 <0> d           0.897  -7.108   0.083  0.00  0.00     0.162 HD
ATOM     15  O2  <0> d           3.756  -6.886  -1.055  0.00  0.00    -0.271 OA
BRANCH  13  16
ATOM     16  C11 <0> d           2.230  -5.598   0.754  0.00  0.00     0.127 C 
BRANCH  16  17
ATOM     17  C10 <0> d           1.092  -5.144   1.671  0.00  0.00     0.056 C 
BRANCH  17  18
ATOM     18  C7  <0> d           1.541  -3.954   2.479  0.00  0.00    -0.048 A 
ATOM     19  C6  <0> d           2.308  -3.978   3.782  0.00  0.00     0.155 A 
ATOM     20  N1  <0> d           2.500  -2.573   4.161  0.00  0.00    -0.385 N 
ATOM     21  C5  <0> d           1.947  -1.815   3.248  0.00  0.00     0.039 A 
ATOM     22  H21 <0> d           2.961  -2.259   4.955  0.00  0.00     0.160 HD
ATOM     23  C4  <0> d           1.839  -0.358   3.116  0.00  0.00     0.033 A 
ATOM     24  C8  <0> d           1.340  -2.650   2.185  0.00  0.00    -0.003 A 
ATOM     25  C3  <0> d           1.202   0.173   2.051  0.00  0.00     0.039 A 
ATOM     26  C2  <0> d           0.626  -0.619   1.042  0.00  0.00     0.069 A 
ATOM     27  C9  <0> d           0.667  -1.972   1.072  0.00  0.00     0.050 A 
BRANCH  26  28
ATOM     28  O1  <0> d           0.002  -0.004   0.002  0.00  0.00    -0.356 OA
ATOM     29  C1  <0> d          -0.017   1.425   0.010  0.00  0.00     0.210 C 
ENDBRANCH  26  28
ENDBRANCH  17  18
ENDBRANCH  16  17
ENDBRANCH  13  16
ENDBRANCH   1  12
BRANCH   7  30
ATOM     30  C19 <0> d           4.785  -9.613  -5.134  0.00  0.00     0.434 C 
ATOM     31  F1  <0> d           5.187  -9.818  -6.459  0.00  0.00    -0.165 F 
ATOM     32  F2  <0> d           5.632  -8.678  -4.529  0.00  0.00    -0.165 F 
ATOM     33  F3  <0> d           4.851 -10.823  -4.435  0.00  0.00    -0.165 F 
ENDBRANCH   7  30
BRANCH   5  34
ATOM     34  C20 <0> d           0.575  -8.183  -7.462  0.00  0.00     0.101 A 
ATOM     35  O3  <0> d          -0.691  -7.728  -7.551  0.00  0.00    -0.321 OA
ATOM     36  C23 <0> d          -1.047  -7.651  -8.841  0.00  0.00     0.142 A 
ATOM     37  C22 <0> d          -0.013  -8.067  -9.602  0.00  0.00     0.027 A 
ATOM     38  C21 <0> d           1.032  -8.411  -8.726  0.00  0.00     0.041 A 
ENDBRANCH   5  34
TORSDOF 7
