REMARK  6 active torsions:
REMARK  status: ('A' for Active; 'I' for Inactive)
REMARK    1  A    between atoms: C4_4  and  C7_7 
REMARK    2  A    between atoms: C8_8  and  N3_17 
REMARK    3  A    between atoms: C9_10  and  S2_12 
REMARK    4  A    between atoms: S2_12  and  C10_13 
REMARK    5  A    between atoms: C10_13  and  C11_14 
REMARK       I    between atoms: C11_14  and  N2_16 
REMARK       I    between atoms: N3_17  and  C12_18 
REMARK    6  A    between atoms: C12_18  and  C13_20 
ROOT
ATOM      1  C7  <0> d          -3.683   1.618   0.028  0.00  0.00     0.102 A 
ATOM      2  C8  <0> d          -2.388   1.157   0.020  0.00  0.00     0.109 A 
ATOM      3  S1  <0> d          -2.663  -0.609   0.004  0.00  0.00    -0.043 SA
ATOM      4  C9  <0> d          -4.450  -0.562   0.020  0.00  0.00     0.137 A 
ATOM      5  N1  <0> d          -4.683   0.736   0.028  0.00  0.00    -0.231 NA
ENDROOT
BRANCH   2   6
ATOM      6  N3  <0> d          -1.191   1.870   0.018  0.00  0.00    -0.315 N 
ATOM      7  C12 <0> d          -0.014   1.212   0.009  0.00  0.00     0.262 C 
ATOM      8  O2  <0> d           0.002  -0.004   0.002  0.00  0.00    -0.267 OA
ATOM      9  H10 <0> d          -1.204   2.840   0.023  0.00  0.00     0.170 HD
BRANCH   7  10
ATOM     10  C13 <0> d           1.250   1.966   0.001  0.00  0.00     0.108 A 
ATOM     11  C21 <0> d           2.538   1.263  -0.015  0.00  0.00     0.304 A 
ATOM     12  O3  <0> d           3.687   1.959  -0.023  0.00  0.00    -0.274 OA
ATOM     13  O4  <0> d           2.566   0.046  -0.023  0.00  0.00    -0.259 OA
ATOM     14  C20 <0> d           3.692   3.309  -0.015  0.00  0.00     0.089 A 
ATOM     15  C15 <0> d           2.487   4.035   0.001  0.00  0.00    -0.001 A 
ATOM     16  C19 <0> d           4.901   3.998  -0.023  0.00  0.00     0.038 A 
ATOM     17  C14 <0> d           1.246   3.350   0.002  0.00  0.00     0.037 A 
ATOM     18  C16 <0> d           2.520   5.438   0.008  0.00  0.00     0.014 A 
ATOM     19  C17 <0> d           3.718   6.090   0.000  0.00  0.00     0.001 A 
ATOM     20  C18 <0> d           4.909   5.376  -0.016  0.00  0.00     0.003 A 
ENDBRANCH   7  10
ENDBRANCH   2   6
BRANCH   1  21
ATOM     21  C4  <0> d          -3.962   3.072   0.037  0.00  0.00    -0.004 A 
ATOM     22  C3  <0> d          -5.069   3.576  -0.647  0.00  0.00     0.014 A 
ATOM     23  C2  <0> d          -5.324   4.932  -0.635  0.00  0.00     0.001 A 
ATOM     24  C1  <0> d          -4.485   5.791   0.053  0.00  0.00     0.000 A 
ATOM     25  C6  <0> d          -3.386   5.297   0.733  0.00  0.00     0.001 A 
ATOM     26  C5  <0> d          -3.124   3.942   0.734  0.00  0.00     0.014 A 
ENDBRANCH   1  21
BRANCH   4  27
ATOM     27  S2  <0> d          -5.598  -1.899   0.018  0.00  0.00    -0.094 SA
BRANCH  27  28
ATOM     28  C10 <0> d          -4.450  -3.299   0.005  0.00  0.00     0.184 C 
BRANCH  28  29
ATOM     29  C11 <0> d          -5.231  -4.588   0.002  0.00  0.00     0.225 C 
ATOM     30  O1  <0> d          -6.443  -4.563   0.008  0.00  0.00    -0.273 OA
ATOM     31  N2  <0> d          -4.581  -5.769  -0.007  0.00  0.00    -0.369 N 
ATOM     32  H8  <0> d          -3.611  -5.789  -0.012  0.00  0.00     0.159 HD
ATOM     33  H9  <0> d          -5.083  -6.598  -0.010  0.00  0.00     0.159 HD
ENDBRANCH  28  29
ENDBRANCH  27  28
ENDBRANCH   4  27
TORSDOF 6
