REMARK  6 active torsions:
REMARK  status: ('A' for Active; 'I' for Inactive)
REMARK    1  A    between atoms: C4_4  and  C7_7 
REMARK    2  A    between atoms: C8_8  and  C20_24 
REMARK    3  A    between atoms: N1_9  and  C10_12 
REMARK    4  A    between atoms: C10_12  and  C11_13 
REMARK    5  A    between atoms: C11_13  and  C12_14 
REMARK    6  A    between atoms: C11_13  and  N3_19 
ROOT
ATOM      1  C7  <0> d           3.539  -0.695  -0.102  0.00  0.00     0.296 C 
ATOM      2  C8  <0> d           3.967  -1.237  -1.480  0.00  0.00     0.329 C 
ATOM      3  N1  <0> d           4.106  -2.703  -1.306  0.00  0.00     0.133 N 
ATOM      4  C9  <0> d           4.348  -2.882   0.148  0.00  0.00     0.542 C 
ATOM      5  N2  <0> d           3.456  -1.879   0.786  0.00  0.00     0.123 N 
ATOM      6  H11 <0> d           3.770  -1.654   1.718  0.00  0.00     0.319 HD
ENDROOT
BRANCH   3   7
ATOM      7  C10 <0> d           5.231  -3.222  -2.095  0.00  0.00     0.316 C 
BRANCH   7   8
ATOM      8  C11 <0> d           5.116  -4.743  -2.207  0.00  0.00     0.273 C 
BRANCH   8   9
ATOM      9  C12 <0> d           3.880  -5.097  -2.993  0.00  0.00     0.085 A 
ATOM     10  O1  <0> d           3.767  -5.074  -4.331  0.00  0.00    -0.325 OA
ATOM     11  C15 <0> d           2.527  -5.452  -4.682  0.00  0.00     0.142 A 
ATOM     12  C14 <0> d           1.829  -5.714  -3.562  0.00  0.00     0.027 A 
ATOM     13  C13 <0> d           2.702  -5.485  -2.473  0.00  0.00     0.037 A 
ENDBRANCH   8   9
BRANCH   8  14
ATOM     14  N3  <0> d           6.302  -5.275  -2.893  0.00  0.00    -0.059 N 
ATOM     15  C19 <0> d           6.227  -6.750  -2.972  0.00  0.00     0.236 C 
ATOM     16  C18 <0> d           7.663  -7.284  -2.817  0.00  0.00     0.029 C 
ATOM     17  C17 <0> d           8.541  -6.028  -2.615  0.00  0.00     0.029 C 
ATOM     18  C16 <0> d           7.526  -4.973  -2.108  0.00  0.00     0.236 C 
ATOM     19  H28 <0> d           6.375  -4.880  -3.819  0.00  0.00     0.280 HD
ENDBRANCH   8  14
ENDBRANCH   7   8
ENDBRANCH   3   7
BRANCH   2  20
ATOM     20  C20 <0> d           2.913  -0.930  -2.511  0.00  0.00     0.117 A 
ATOM     21  N5  <0> d           2.858   0.162  -3.256  0.00  0.00    -0.353 N 
ATOM     22  C22 <0> d           1.777   0.073  -4.058  0.00  0.00     0.106 A 
ATOM     23  H25 <0> d           3.489   0.899  -3.231  0.00  0.00     0.166 HD
ATOM     24  C21 <0> d           1.166  -1.096  -3.781  0.00  0.00     0.106 A 
ATOM     25  N4  <0> d           1.886  -1.707  -2.817  0.00  0.00    -0.353 N 
ATOM     26  H29 <0> d           1.685  -2.568  -2.417  0.00  0.00     0.166 HD
ENDBRANCH   2  20
BRANCH   1  27
ATOM     27  C4  <0> d           2.193  -0.024  -0.203  0.00  0.00    -0.023 A 
ATOM     28  C3  <0> d           2.111   1.355  -0.260  0.00  0.00     0.009 A 
ATOM     29  C2  <0> d           0.877   1.970  -0.353  0.00  0.00     0.001 A 
ATOM     30  C1  <0> d          -0.275   1.207  -0.389  0.00  0.00     0.000 A 
ATOM     31  C6  <0> d          -0.193  -0.172  -0.332  0.00  0.00     0.001 A 
ATOM     32  C5  <0> d           1.041  -0.787  -0.238  0.00  0.00     0.009 A 
ENDBRANCH   1  27
TORSDOF 6
