REMARK  4 active torsions:
REMARK  status: ('A' for Active; 'I' for Inactive)
REMARK    1  A    between atoms: N1_2  and  C3_4 
REMARK    2  A    between atoms: C4_5  and  C8_10 
REMARK    3  A    between atoms: C8_10  and  N3_11 
REMARK       I    between atoms: N3_11  and  C9_12 
REMARK       I    between atoms: C9_12  and  N4_14 
REMARK    4  A    between atoms: N4_14  and  C10_15 
ROOT
ATOM      1  N3  <0> d          -1.611  -2.877   0.551  0.00  0.00    -0.339 N 
ATOM      2  C9  <0> d          -1.947  -3.496   1.700  0.00  0.00     0.316 C 
ATOM      3  O1  <0> d          -1.089  -4.024   2.380  0.00  0.00    -0.247 OA
ATOM      4  N4  <0> d          -3.236  -3.530   2.094  0.00  0.00    -0.338 N 
ATOM      5  H13 <0> d          -2.295  -2.456   0.008  0.00  0.00     0.164 HD
ATOM      6  H14 <0> d          -3.920  -3.109   1.552  0.00  0.00     0.164 HD
ENDROOT
BRANCH   1   7
ATOM      7  C8  <0> d          -0.210  -2.841   0.122  0.00  0.00     0.166 C 
BRANCH   7   8
ATOM      8  C4  <0> d          -0.104  -2.095  -1.184  0.00  0.00     0.004 A 
ATOM      9  C3  <0> d          -0.138  -0.704  -1.206  0.00  0.00     0.110 A 
ATOM     10  N2  <0> d          -0.050  -0.047  -2.352  0.00  0.00    -0.352 N 
ATOM     11  C7  <0> d           0.083  -0.678  -3.504  0.00  0.00     0.089 A 
ATOM     12  H21 <0> d          -0.080   0.923  -2.345  0.00  0.00     0.166 HD
ATOM     13  C6  <0> d           0.123  -2.056  -3.555  0.00  0.00     0.018 A 
ATOM     14  C5  <0> d           0.029  -2.784  -2.376  0.00  0.00     0.014 A 
BRANCH   9  15
ATOM     15  N1  <0> d          -0.271   0.001  -0.016  0.00  0.00    -0.376 N 
ATOM     16  C1  <0> d          -1.596   0.439   0.432  0.00  0.00     0.150 C 
ATOM     17  C2  <0> d           0.913   0.307   0.791  0.00  0.00     0.150 C 
ENDBRANCH   9  15
ENDBRANCH   7   8
ENDBRANCH   1   7
BRANCH   4  18
ATOM     18  C10 <0> d          -3.602  -4.203   3.343  0.00  0.00     0.101 C 
ATOM     19  C13 <0> d          -4.924  -3.600   3.896  0.00  0.00     0.165 C 
ATOM     20  S1  <0> d          -5.462  -4.949   5.030  0.00  0.00     0.146 S 
ATOM     21  C12 <0> d          -4.522  -6.352   4.301  0.00  0.00     0.142 C 
ATOM     22  O2  <0> d          -4.961  -4.685   6.333  0.00  0.00    -0.228 OA
ATOM     23  O3  <0> d          -6.852  -5.181   4.848  0.00  0.00    -0.228 OA
ATOM     24  C11 <0> d          -3.832  -5.700   3.078  0.00  0.00     0.041 C 
ENDBRANCH   4  18
TORSDOF 4
