REMARK  4 active torsions:
REMARK  status: ('A' for Active; 'I' for Inactive)
REMARK    1  A    between atoms: C3_4  and  N2_6 
REMARK       I    between atoms: N2_6  and  C4_7 
REMARK    2  A    between atoms: C4_7  and  C5_9 
REMARK    3  A    between atoms: C5_9  and  C6_10 
REMARK    4  A    between atoms: C8_13  and  N4_15 
ROOT
ATOM      1  C6  <0> d          -0.853  -5.065  -0.017  0.00  0.00     0.052 A 
ATOM      2  C7  <0> d          -1.181  -5.979  -0.963  0.00  0.00     0.081 A 
ATOM      3  S2  <0> d          -2.825  -6.431  -0.433  0.00  0.00    -0.061 SA
ATOM      4  C8  <0> d          -2.919  -5.426   0.914  0.00  0.00     0.182 A 
ATOM      5  N3  <0> d          -1.753  -4.817   0.915  0.00  0.00    -0.227 NA
ENDROOT
BRANCH   4   6
ATOM      6  N4  <0> d          -3.974  -5.277   1.812  0.00  0.00    -0.229 N 
ATOM      7  C16 <0> d          -5.139  -5.969   1.714  0.00  0.00     0.238 C 
ATOM      8  C15 <0> d          -5.860  -5.760   3.012  0.00  0.00     0.095 C 
ATOM      9  O3  <0> d          -5.518  -6.625   0.767  0.00  0.00    -0.272 OA
ATOM     10  C10 <0> d          -5.344  -4.336   3.383  0.00  0.00     0.095 C 
ATOM     11  C14 <0> d          -7.364  -5.677   3.002  0.00  0.00     0.042 C 
ATOM     12  C9  <0> d          -3.939  -4.423   2.868  0.00  0.00     0.238 C 
ATOM     13  C11 <0> d          -5.552  -4.173   4.874  0.00  0.00     0.042 C 
ATOM     14  O2  <0> d          -2.967  -3.847   3.306  0.00  0.00    -0.272 OA
ATOM     15  C12 <0> d          -7.013  -4.465   5.148  0.00  0.00    -0.030 C 
ATOM     16  C13 <0> d          -7.798  -5.105   4.335  0.00  0.00    -0.030 C 
ENDBRANCH   4   6
BRANCH   1  17
ATOM     17  C5  <0> d           0.483  -4.368  -0.026  0.00  0.00     0.163 C 
BRANCH  17  18
ATOM     18  C4  <0> d           0.272  -2.876  -0.016  0.00  0.00     0.229 C 
ATOM     19  N2  <0> d           1.333  -2.045  -0.022  0.00  0.00    -0.305 N 
ATOM     20  H5  <0> d           2.232  -2.407  -0.032  0.00  0.00     0.171 HD
ATOM     21  O1  <0> d          -0.854  -2.423  -0.003  0.00  0.00    -0.273 OA
BRANCH  19  22
ATOM     22  C3  <0> d           1.137  -0.669  -0.012  0.00  0.00     0.172 A 
ATOM     23  S1  <0> d           2.296   0.552  -0.017  0.00  0.00    -0.062 SA
ATOM     24  C2  <0> d           1.183   1.948   0.001  0.00  0.00     0.072 A 
ATOM     25  C1  <0> d          -0.016   1.316   0.009  0.00  0.00     0.126 A 
ATOM     26  N1  <0> d           0.002  -0.004   0.002  0.00  0.00    -0.236 NA
ENDBRANCH  19  22
ENDBRANCH  17  18
ENDBRANCH   1  17
TORSDOF 4
