REMARK  7 active torsions:
REMARK  status: ('A' for Active; 'I' for Inactive)
REMARK    1  A    between atoms: C2_2  and  C4_4 
REMARK    2  A    between atoms: C7_7  and  N1_10 
REMARK    3  A    between atoms: C12_14  and  S1_15 
REMARK    4  A    between atoms: S1_15  and  C13_16 
REMARK    5  A    between atoms: C13_16  and  C14_17 
REMARK    6  A    between atoms: C14_17  and  C15_19 
REMARK    7  A    between atoms: N3_21  and  C19_28 
ROOT
ATOM      1  C14 <0> d           0.848   6.175   7.436  0.00  0.00     0.178 C 
ATOM      2  O1  <0> d           1.649   6.165   6.523  0.00  0.00    -0.291 OA
ENDROOT
BRANCH   1   3
ATOM      3  C13 <0> d          -0.099   5.016   7.621  0.00  0.00     0.166 C 
BRANCH   3   4
ATOM      4  S1  <0> d           0.203   3.780   6.335  0.00  0.00    -0.084 SA
BRANCH   4   5
ATOM      5  C12 <0> d          -1.003   2.575   6.779  0.00  0.00     0.173 A 
ATOM      6  N1  <0> d          -1.229   1.395   6.133  0.00  0.00    -0.300 N 
ATOM      7  C10 <0> d          -2.248   0.757   6.807  0.00  0.00     0.118 A 
ATOM      8  C11 <0> d          -2.609   1.560   7.823  0.00  0.00     0.137 A 
ATOM      9  N2  <0> d          -1.841   2.662   7.786  0.00  0.00    -0.235 NA
BRANCH   6  10
ATOM     10  C7  <0> d          -0.550   0.920   5.002  0.00  0.00     0.041 A 
ATOM     11  C6  <0> d          -0.397   1.735   3.889  0.00  0.00     0.030 A 
ATOM     12  C5  <0> d           0.278   1.265   2.779  0.00  0.00     0.010 A 
ATOM     13  C4  <0> d           0.791  -0.019   2.772  0.00  0.00    -0.055 A 
ATOM     14  C9  <0> d           0.639  -0.833   3.879  0.00  0.00     0.010 A 
ATOM     15  C8  <0> d          -0.029  -0.367   4.994  0.00  0.00     0.030 A 
BRANCH  13  16
ATOM     16  C2  <0> d           1.521  -0.530   1.557  0.00  0.00     0.010 C 
ATOM     17  C1  <0> d           2.734   0.360   1.279  0.00  0.00     0.015 C 
ATOM     18  C3  <0> d           0.583  -0.504   0.349  0.00  0.00     0.015 C 
ENDBRANCH  13  16
ENDBRANCH   6  10
ENDBRANCH   4   5
ENDBRANCH   3   4
ENDBRANCH   1   3
BRANCH   1  19
ATOM     19  C15 <0> d           0.803   7.271   8.324  0.00  0.00     0.122 A 
ATOM     20  C18 <0> d          -0.245   7.375   9.348  0.00  0.00     0.267 A 
ATOM     21  N4  <0> d          -0.240   8.444  10.171  0.00  0.00    -0.274 N 
ATOM     22  O3  <0> d          -1.099   6.514   9.452  0.00  0.00    -0.267 OA
ATOM     23  C17 <0> d           0.701   9.395  10.059  0.00  0.00     0.331 A 
ATOM     24  H1  <0> d          -0.947   8.529  10.873  0.00  0.00     0.173 HD
ATOM     25  N3  <0> d           1.675   9.338   9.138  0.00  0.00    -0.280 N 
ATOM     26  O2  <0> d           0.669  10.342  10.820  0.00  0.00    -0.246 OA
ATOM     27  C16 <0> d           1.764   8.295   8.261  0.00  0.00     0.125 A 
ATOM     28  N5  <0> d           2.762   8.251   7.337  0.00  0.00    -0.384 N 
ATOM     29  H22 <0> d           2.629   7.776   6.502  0.00  0.00     0.157 HD
ATOM     30  H23 <0> d           3.606   8.694   7.514  0.00  0.00     0.157 HD
BRANCH  25  31
ATOM     31  C19 <0> d           2.668  10.414   9.076  0.00  0.00     0.096 A 
ATOM     32  C21 <0> d           2.711  11.264   7.804  0.00  0.00     0.028 A 
ATOM     33  C20 <0> d           2.152  11.854   9.102  0.00  0.00     0.028 A 
ENDBRANCH  25  31
ENDBRANCH   1  19
TORSDOF 7
