REMARK  6 active torsions:
REMARK  status: ('A' for Active; 'I' for Inactive)
REMARK    1  A    between atoms: C2_2  and  N1_3 
REMARK    2  A    between atoms: C4_5  and  S1_9 
REMARK    3  A    between atoms: S1_9  and  N3_12 
REMARK    4  A    between atoms: N3_12  and  C7_13 
REMARK    5  A    between atoms: C7_13  and  C14_20 
REMARK    6  A    between atoms: C14_20  and  N4_21 
ROOT
ATOM      1  N3  <0> d           2.165  -1.302  -5.811  0.00  0.00    -0.303 N 
ATOM      2  H10 <0> d           1.636  -1.589  -6.572  0.00  0.00     0.173 HD
ENDROOT
BRANCH   1   3
ATOM      3  S1  <0> d           1.643  -0.046  -4.866  0.00  0.00     0.278 S 
ATOM      4  O1  <0> d           1.969  -0.384  -3.525  0.00  0.00    -0.199 OA
ATOM      5  O2  <0> d           0.315   0.247  -5.277  0.00  0.00    -0.199 OA
BRANCH   3   6
ATOM      6  C4  <0> d           2.621   1.359  -5.283  0.00  0.00     0.188 A 
ATOM      7  C3  <0> d           2.229   2.646  -5.210  0.00  0.00     0.138 A 
ATOM      8  N1  <0> d           3.289   3.407  -5.623  0.00  0.00    -0.343 N 
ATOM      9  C5  <0> d           4.291   2.558  -5.939  0.00  0.00     0.103 A 
ATOM     10  N2  <0> d           3.886   1.336  -5.728  0.00  0.00    -0.221 NA
ATOM     11  C6  <0> d           5.652   2.957  -6.447  0.00  0.00     0.091 C 
BRANCH   8  12
ATOM     12  C2  <0> d           3.327   4.869  -5.712  0.00  0.00     0.125 C 
ATOM     13  C1  <0> d           2.974   5.303  -7.136  0.00  0.00     0.027 C 
ENDBRANCH   8  12
ENDBRANCH   3   6
ENDBRANCH   1   3
BRANCH   1  14
ATOM     14  C7  <0> d           3.424  -1.981  -5.497  0.00  0.00     0.064 C 
ATOM     15  C13 <0> d           4.504  -1.333  -6.227  0.00  0.00     0.033 C 
ATOM     16  C12 <0> d           4.279  -1.358  -7.753  0.00  0.00     0.002 C 
ATOM     17  C11 <0> d           4.678  -2.712  -8.272  0.00  0.00     0.000 C 
ATOM     18  C10 <0> d           3.484  -3.681  -8.369  0.00  0.00     0.000 C 
ATOM     19  C9  <0> d           2.541  -3.591  -7.154  0.00  0.00     0.002 C 
ATOM     20  C8  <0> d           3.289  -3.476  -5.853  0.00  0.00     0.033 C 
BRANCH  14  21
ATOM     21  C14 <0> d           3.695  -1.854  -3.996  0.00  0.00     0.261 C 
BRANCH  21  22
ATOM     22  N4  <0> d           4.899  -2.621  -3.649  0.00  0.00    -0.077 N 
ATOM     23  H25 <0> d           5.701  -2.210  -4.101  0.00  0.00     0.274 HD
ATOM     24  H26 <0> d           5.031  -2.604  -2.648  0.00  0.00     0.274 HD
ATOM     25  H27 <0> d           4.790  -3.575  -3.958  0.00  0.00     0.274 HD
ENDBRANCH  21  22
ENDBRANCH  14  21
ENDBRANCH   1  14
TORSDOF 6
