REMARK  3 active torsions:
REMARK  status: ('A' for Active; 'I' for Inactive)
REMARK    1  A    between atoms: C5_6  and  C6_7 
REMARK    2  A    between atoms: C8_10  and  N3_12 
REMARK       I    between atoms: N3_12  and  C9_13 
REMARK    3  A    between atoms: C9_13  and  C10_15 
REMARK       I    between atoms: N4_18  and  C15_21 
REMARK       I    between atoms: C15_21  and  N5_23 
ROOT
ATOM      1  N3  <0> d          -0.080  -2.203   5.699  0.00  0.00    -0.305 N 
ATOM      2  C9  <0> d          -0.177  -1.449   6.812  0.00  0.00     0.228 C 
ATOM      3  O1  <0> d          -0.748  -0.380   6.772  0.00  0.00    -0.273 OA
ATOM      4  H23 <0> d           0.377  -3.058   5.731  0.00  0.00     0.171 HD
ENDROOT
BRANCH   1   5
ATOM      5  C8  <0> d          -0.633  -1.755   4.506  0.00  0.00     0.173 A 
ATOM      6  S1  <0> d          -1.517  -0.239   4.170  0.00  0.00    -0.061 SA
ATOM      7  C7  <0> d          -1.825  -0.537   2.434  0.00  0.00     0.087 A 
ATOM      8  C6  <0> d          -1.228  -1.758   2.275  0.00  0.00     0.093 A 
ATOM      9  N2  <0> d          -0.650  -2.340   3.323  0.00  0.00    -0.222 NA
BRANCH   8  10
ATOM     10  C5  <0> d          -1.231  -2.427   0.956  0.00  0.00     0.063 A 
ATOM     11  N1  <0> d          -1.909  -2.008  -0.159  0.00  0.00    -0.359 N 
ATOM     12  C1  <0> d          -2.759  -0.817  -0.247  0.00  0.00     0.156 C 
ATOM     13  C2  <0> d          -1.657  -2.882  -1.177  0.00  0.00     0.091 A 
ATOM     14  C3  <0> d          -0.834  -3.848  -0.716  0.00  0.00     0.020 A 
ATOM     15  C4  <0> d          -0.562  -3.569   0.634  0.00  0.00     0.033 A 
ENDBRANCH   8  10
ENDBRANCH   1   5
BRANCH   2  16
ATOM     16  C10 <0> d           0.424  -1.934   8.106  0.00  0.00     0.081 C 
ATOM     17  C14 <0> d           0.175  -0.898   9.204  0.00  0.00     0.034 C 
ATOM     18  C13 <0> d           0.816  -1.378  10.509  0.00  0.00     0.128 C 
ATOM     19  N4  <0> d           0.307  -2.721  10.820  0.00  0.00    -0.334 N 
ATOM     20  C12 <0> d           0.415  -3.771   9.798  0.00  0.00     0.128 C 
ATOM     21  C15 <0> d          -0.248  -2.984  12.020  0.00  0.00     0.319 C 
ATOM     22  C11 <0> d          -0.222  -3.264   8.501  0.00  0.00     0.034 C 
ATOM     23  O2  <0> d          -0.846  -4.028  12.197  0.00  0.00    -0.247 OA
ATOM     24  N5  <0> d          -0.140  -2.091  13.023  0.00  0.00    -0.343 N 
ATOM     25  C16 <0> d          -1.027  -2.184  14.185  0.00  0.00     0.154 C 
ATOM     26  C17 <0> d           0.864  -1.026  12.951  0.00  0.00     0.154 C 
ENDBRANCH   2  16
TORSDOF 3
