REMARK  7 active torsions:
REMARK  status: ('A' for Active; 'I' for Inactive)
REMARK    1  A    between atoms: C6_6  and  C7_7 
REMARK    2  A    between atoms: C10_10  and  C11_12 
REMARK    3  A    between atoms: C11_12  and  N1_13 
REMARK    4  A    between atoms: N1_13  and  C12_14 
REMARK    5  A    between atoms: C12_14  and  C13_15 
REMARK    6  A    between atoms: C13_15  and  C14_16 
REMARK    7  A    between atoms: C14_16  and  N2_17 
ROOT
ATOM      1  C7  <0> d          -1.266  -0.763   0.010  0.00  0.00     0.086 A 
ATOM      2  C8  <0> d          -1.385  -2.117   0.009  0.00  0.00     0.040 A 
ATOM      3  C9  <0> d          -2.766  -2.403   0.020  0.00  0.00     0.037 A 
ATOM      4  C10 <0> d          -3.413  -1.222   0.026  0.00  0.00     0.079 A 
ATOM      5  O1  <0> d          -2.504  -0.233   0.025  0.00  0.00    -0.313 OA
ENDROOT
BRANCH   4   6
ATOM      6  C11 <0> d          -4.909  -1.040   0.037  0.00  0.00     0.296 C 
BRANCH   6   7
ATOM      7  N1  <0> d          -5.385  -0.983   1.426  0.00  0.00    -0.069 N 
ATOM      8  H8  <0> d          -5.147  -1.842   1.898  0.00  0.00     0.277 HD
ATOM      9  H18 <0> d          -4.949  -0.206   1.899  0.00  0.00     0.277 HD
BRANCH   7  10
ATOM     10  C12 <0> d          -6.843  -0.806   1.437  0.00  0.00     0.234 C 
BRANCH  10  11
ATOM     11  C13 <0> d          -7.339  -0.746   2.883  0.00  0.00     0.048 C 
BRANCH  11  12
ATOM     12  C14 <0> d          -8.858  -0.561   2.894  0.00  0.00     0.131 C 
BRANCH  12  13
ATOM     13  N2  <0> d          -9.333  -0.504   4.279  0.00  0.00    -0.352 N 
ATOM     14  C17 <0> d          -9.461   0.606   5.037  0.00  0.00     0.182 A 
ATOM     15  N3  <0> d          -9.914   0.261   6.211  0.00  0.00    -0.361 N 
ATOM     16  C16 <0> d         -10.081  -1.070   6.247  0.00  0.00     0.106 A 
ATOM     17  H19 <0> d         -10.098   0.870   6.943  0.00  0.00     0.166 HD
ATOM     18  C15 <0> d          -9.723  -1.567   5.048  0.00  0.00     0.108 A 
ENDBRANCH  12  13
ENDBRANCH  11  12
ENDBRANCH  10  11
ENDBRANCH   7  10
ENDBRANCH   6   7
ENDBRANCH   4   6
BRANCH   1  19
ATOM     19  C6  <0> d           0.002  -0.004   0.002  0.00  0.00    -0.001 A 
ATOM     20  C1  <0> d          -0.017   1.391   0.010  0.00  0.00     0.017 A 
ATOM     21  C2  <0> d           1.170   2.095   0.002  0.00  0.00     0.045 A 
ATOM     22  C3  <0> d           2.379   1.420  -0.013  0.00  0.00     0.138 A 
ATOM     23  C4  <0> d           2.404   0.033  -0.021  0.00  0.00     0.073 A 
ATOM     24  F1  <0> d           3.538   2.114  -0.021  0.00  0.00    -0.204 F 
ATOM     25  C5  <0> d           1.223  -0.681  -0.013  0.00  0.00     0.041 A 
ATOM     26 Cl1  <0> d           3.924  -0.806  -0.040  0.00  0.00    -0.081 Cl
ENDBRANCH   1  19
TORSDOF 7
