REMARK  7 active torsions:
REMARK  status: ('A' for Active; 'I' for Inactive)
REMARK    1  A    between atoms: C7_8  and  C8_10 
REMARK    2  A    between atoms: C8_10  and  N1_11 
REMARK    3  A    between atoms: N1_11  and  C9_12 
REMARK    4  A    between atoms: C9_12  and  C10_13 
REMARK    5  A    between atoms: C10_13  and  N2_14 
REMARK    6  A    between atoms: N2_14  and  C11_15 
REMARK    7  A    between atoms: C11_15  and  C12_16 
ROOT
ATOM      1  C9  <0> d           3.807  -4.953   2.437  0.00  0.00     0.262 C 
ENDROOT
BRANCH   1   2
ATOM      2  N1  <0> d           2.759  -4.218   1.717  0.00  0.00    -0.071 N 
ATOM      3  H15 <0> d           2.233  -3.655   2.369  0.00  0.00     0.277 HD
ATOM      4  H33 <0> d           2.140  -4.872   1.263  0.00  0.00     0.277 HD
BRANCH   2   5
ATOM      5  C8  <0> d           3.377  -3.347   0.708  0.00  0.00     0.266 C 
BRANCH   5   6
ATOM      6  C7  <0> d           2.285  -2.581  -0.043  0.00  0.00     0.174 C 
ATOM      7  C6  <0> d           2.896  -1.748  -1.198  0.00  0.00     0.205 C 
ATOM      8  O1  <0> d           1.927  -0.680  -1.338  0.00  0.00    -0.352 OA
ATOM      9  C4  <0> d           1.481  -0.419  -0.004  0.00  0.00     0.164 C 
ATOM     10  C3  <0> d           2.235   0.792   0.584  0.00  0.00     0.068 C 
ATOM     11  O2  <0> d           1.688  -1.576   0.805  0.00  0.00    -0.346 OA
ATOM     12  C5  <0> d           0.002  -0.004   0.002  0.00  0.00     0.068 C 
ATOM     13  C2  <0> d           1.454   1.996  -0.001  0.00  0.00     0.006 C 
ATOM     14  C1  <0> d          -0.019   1.536   0.011  0.00  0.00     0.006 C 
ENDBRANCH   5   6
ENDBRANCH   2   5
ENDBRANCH   1   2
BRANCH   1  15
ATOM     15  C10 <0> d           3.163  -5.860   3.488  0.00  0.00     0.297 C 
BRANCH  15  16
ATOM     16  N2  <0> d           4.212  -6.595   4.208  0.00  0.00     0.087 N 
ATOM     17  H20 <0> d           4.793  -7.116   3.568  0.00  0.00     0.316 HD
BRANCH  16  18
ATOM     18  C11 <0> d           3.629  -7.478   5.228  0.00  0.00     0.303 C 
BRANCH  18  19
ATOM     19  C12 <0> d           4.749  -8.225   5.955  0.00  0.00     0.177 C 
ATOM     20  O4  <0> d           5.532  -7.308   6.743  0.00  0.00    -0.346 OA
ATOM     21  C14 <0> d           5.392  -7.713   8.110  0.00  0.00     0.164 C 
ATOM     22  O3  <0> d           5.049  -9.109   8.106  0.00  0.00    -0.352 OA
ATOM     23  C18 <0> d           6.693  -7.481   8.886  0.00  0.00     0.068 C 
ATOM     24  C15 <0> d           4.294  -6.897   8.809  0.00  0.00     0.068 C 
ATOM     25  C13 <0> d           4.155  -9.226   6.971  0.00  0.00     0.205 C 
ATOM     26  C17 <0> d           6.345  -6.518  10.041  0.00  0.00     0.006 C 
ATOM     27  C16 <0> d           4.823  -6.714  10.255  0.00  0.00     0.006 C 
ENDBRANCH  18  19
ENDBRANCH  16  18
ENDBRANCH  15  16
ENDBRANCH   1  15
TORSDOF 7
