REMARK  5 active torsions:
REMARK  status: ('A' for Active; 'I' for Inactive)
REMARK    1  A    between atoms: N1_13  and  C13_17 
REMARK    2  A    between atoms: C13_17  and  C14_18 
REMARK    3  A    between atoms: C15_20  and  N7_32 
REMARK    4  A    between atoms: C16_22  and  N6_24 
REMARK    5  A    between atoms: N6_24  and  C17_25 
ROOT
ATOM      1  C14 <0> d           7.797  -0.001   0.793  0.00  0.00     0.182 A 
ATOM      2  N3  <0> d           7.803  -0.599   1.972  0.00  0.00    -0.045 NA
ATOM      3  C15 <0> d           8.772  -1.458   2.279  0.00  0.00     0.737 A 
ATOM      4  N4  <0> d           9.740  -1.706   1.403  0.00  0.00     0.130 NA
ATOM      5  C16 <0> d           9.733  -1.099   0.222  0.00  0.00     0.744 A 
ATOM      6  N5  <0> d           8.758  -0.245  -0.081  0.00  0.00    -0.044 NA
ENDROOT
BRANCH   1   7
ATOM      7  C13 <0> d           6.695   0.967   0.447  0.00  0.00     0.218 C 
BRANCH   7   8
ATOM      8  N1  <0> d           5.594   0.244  -0.194  0.00  0.00    -0.260 N 
ATOM      9  C11 <0> d           4.557  -0.304   0.473  0.00  0.00     0.261 A 
ATOM     10  C10 <0> d           3.683  -0.937  -0.587  0.00  0.00     0.144 A 
ATOM     11  O1  <0> d           4.367  -0.293   1.670  0.00  0.00    -0.270 OA
ATOM     12  C4  <0> d           2.325  -0.294  -0.590  0.00  0.00    -0.014 A 
ATOM     13  C9  <0> d           3.588  -2.441  -0.365  0.00  0.00     0.047 C 
ATOM     14  N2  <0> d           4.386  -0.648  -1.845  0.00  0.00    -0.320 N 
ATOM     15  C3  <0> d           2.253   1.083  -0.423  0.00  0.00     0.011 A 
ATOM     16  C5  <0> d           1.166  -1.021  -0.759  0.00  0.00    -0.049 A 
ATOM     17  C2  <0> d           1.034   1.728  -0.429  0.00  0.00     0.001 A 
ATOM     18  C1  <0> d          -0.127   0.999  -0.604  0.00  0.00     0.001 A 
ATOM     19  C6  <0> d          -0.060  -0.369  -0.768  0.00  0.00     0.007 A 
ATOM     20  C7  <0> d           1.170  -2.517  -0.928  0.00  0.00     0.039 C 
ATOM     21  C8  <0> d           2.554  -3.011  -1.344  0.00  0.00     0.008 C 
ATOM     22  C12 <0> d           5.492   0.045  -1.514  0.00  0.00     0.326 A 
ATOM     23  H11 <0> d           4.109  -0.907  -2.738  0.00  0.00     0.165 HD
ATOM     24  O2  <0> d           6.306   0.446  -2.323  0.00  0.00    -0.247 OA
ENDBRANCH   7   8
ENDBRANCH   1   7
BRANCH   5  25
ATOM     25  N6  <0> d          10.737  -1.354  -0.692  0.00  0.00    -0.188 N 
ATOM     26  H14 <0> d          10.690  -0.973  -1.583  0.00  0.00     0.184 HD
BRANCH  25  27
ATOM     27  C17 <0> d          11.822  -2.161  -0.333  0.00  0.00     0.049 A 
ATOM     28  C22 <0> d          12.430  -2.973  -1.282  0.00  0.00     0.033 A 
ATOM     29  C21 <0> d          13.501  -3.768  -0.925  0.00  0.00     0.044 A 
ATOM     30  C20 <0> d          13.969  -3.757   0.378  0.00  0.00     0.116 A 
ATOM     31  C19 <0> d          13.364  -2.949   1.326  0.00  0.00     0.044 A 
ATOM     32  F1  <0> d          15.017  -4.537   0.725  0.00  0.00    -0.206 F 
ATOM     33  C18 <0> d          12.297  -2.148   0.972  0.00  0.00     0.033 A 
ENDBRANCH  25  27
ENDBRANCH   5  25
BRANCH   3  34
ATOM     34  N7  <0> d           8.774  -2.086   3.507  0.00  0.00    -0.230 N 
ATOM     35  H19 <0> d           9.482  -2.710   3.732  0.00  0.00     0.174 HD
ATOM     36  H20 <0> d           8.067  -1.905   4.146  0.00  0.00     0.174 HD
ENDBRANCH   3  34
TORSDOF 5
