REMARK  4 active torsions:
REMARK  status: ('A' for Active; 'I' for Inactive)
REMARK    1  A    between atoms: C3_3  and  C7_11 
REMARK    2  A    between atoms: C6_6  and  N1_7 
REMARK    3  A    between atoms: C7_11  and  N2_12 
REMARK    4  A    between atoms: C11_16  and  C12_17 
ROOT
ATOM      1  C1  <0> d           1.335  -0.733  -0.556  0.00  0.00     0.037 A 
ATOM      2  C2  <0> d           2.475   0.049  -0.547  0.00  0.00     0.012 A 
ATOM      3  C3  <0> d           2.429   1.331  -0.032  0.00  0.00    -0.015 A 
ATOM      4  C4  <0> d           1.243   1.831   0.474  0.00  0.00     0.021 A 
ATOM      5  C5  <0> d           0.103   1.048   0.465  0.00  0.00     0.055 A 
ATOM      6  C6  <0> d           0.149  -0.234  -0.050  0.00  0.00     0.104 A 
ATOM      7 Br1  <0> d           1.180   3.585   1.179  0.00  0.00    -0.050 Br
ENDROOT
BRANCH   3   8
ATOM      8  C7  <0> d           3.672   2.184  -0.022  0.00  0.00     0.275 C 
BRANCH   8   9
ATOM      9  N2  <0> d           4.229   2.221   1.337  0.00  0.00    -0.053 N 
ATOM     10  C11 <0> d           5.358   3.168   1.385  0.00  0.00     0.288 C 
ATOM     11  C10 <0> d           6.613   2.363   1.782  0.00  0.00     0.046 C 
ATOM     12  C9  <0> d           6.238   0.911   1.383  0.00  0.00     0.030 C 
ATOM     13  C8  <0> d           4.724   0.878   1.709  0.00  0.00     0.236 C 
ATOM     14  H13 <0> d           3.515   2.510   1.989  0.00  0.00     0.281 HD
BRANCH  10  15
ATOM     15  C12 <0> d           5.088   4.237   2.412  0.00  0.00     0.205 C 
ATOM     16  O3  <0> d           4.408   3.983   3.392  0.00  0.00    -0.646 OA
ATOM     17  O4  <0> d           5.550   5.355   2.264  0.00  0.00    -0.646 OA
ENDBRANCH  10  15
ENDBRANCH   8   9
ENDBRANCH   3   8
BRANCH   6  18
ATOM     18  N1  <0> d          -1.071  -1.072  -0.060  0.00  0.00    -0.116 N 
ATOM     19  O1  <0> d          -1.030  -2.193  -0.511  0.00  0.00    -0.532 OA
ATOM     20  O2  <0> d          -2.108  -0.635   0.382  0.00  0.00    -0.532 OA
ENDBRANCH   6  18
TORSDOF 4
