REMARK  4 active torsions:
REMARK  status: ('A' for Active; 'I' for Inactive)
REMARK    1  A    between atoms: C2_2  and  N1_3 
REMARK    2  A    between atoms: C6_7  and  C10_13 
REMARK    3  A    between atoms: C10_13  and  C11_14 
REMARK    4  A    between atoms: C10_13  and  N2_20 
ROOT
ATOM      1  N1  <0> d           0.711  -0.489   1.189  0.00  0.00    -0.291 N 
ATOM      2  C3  <0> d           2.079  -0.741   1.287  0.00  0.00     0.073 A 
ATOM      3  C4  <0> d           3.133  -0.632   0.394  0.00  0.00     0.033 A 
ATOM      4  C5  <0> d           4.412  -0.965   0.796  0.00  0.00     0.012 A 
ATOM      5  C6  <0> d           4.642  -1.407   2.088  0.00  0.00    -0.023 A 
ATOM      6  C7  <0> d           3.596  -1.517   2.984  0.00  0.00     0.049 A 
ATOM      7  C8  <0> d           2.310  -1.185   2.589  0.00  0.00     0.108 A 
ATOM      8  O1  <0> d           1.115  -1.192   3.230  0.00  0.00    -0.259 OA
ATOM      9  C9  <0> d           0.160  -0.769   2.387  0.00  0.00     0.372 A 
ATOM     10  O2  <0> d          -1.019  -0.657   2.661  0.00  0.00    -0.237 OA
ENDROOT
BRANCH   5  11
ATOM     11  C10 <0> d           6.040  -1.768   2.519  0.00  0.00     0.245 C 
BRANCH  11  12
ATOM     12  C11 <0> d           6.816  -0.493   2.855  0.00  0.00     0.156 C 
ATOM     13  O3  <0> d           6.156   0.200   3.916  0.00  0.00    -0.383 OA
ATOM     14  C15 <0> d           6.787   1.425   4.293  0.00  0.00     0.168 C 
ATOM     15  C14 <0> d           8.207   1.135   4.789  0.00  0.00     0.026 C 
ATOM     16  C13 <0> d           8.987   0.415   3.686  0.00  0.00     0.005 C 
ATOM     17  C12 <0> d           8.236  -0.861   3.293  0.00  0.00     0.034 C 
ENDBRANCH  11  12
BRANCH  11  18
ATOM     18  N2  <0> d           6.719  -2.482   1.429  0.00  0.00    -0.069 N 
ATOM     19  H19 <0> d           6.207  -3.323   1.207  0.00  0.00     0.275 HD
ATOM     20  H20 <0> d           6.761  -1.889   0.614  0.00  0.00     0.275 HD
ATOM     21  H21 <0> d           7.655  -2.724   1.717  0.00  0.00     0.275 HD
ENDBRANCH  11  18
ENDBRANCH   5  11
BRANCH   1  22
ATOM     22  C2  <0> d           0.002  -0.004   0.002  0.00  0.00     0.130 C 
ATOM     23  C1  <0> d          -0.019   1.526   0.010  0.00  0.00     0.027 C 
ENDBRANCH   1  22
TORSDOF 4
