REMARK  4 active torsions:
REMARK  status: ('A' for Active; 'I' for Inactive)
REMARK    1  A    between atoms: C12_12  and  C13_13 
REMARK       I    between atoms: C13_13  and  N1_15 
REMARK    2  A    between atoms: C15_17  and  C22_25 
REMARK       I    between atoms: C22_25  and  N3_27 
REMARK    3  A    between atoms: N3_27  and  C23_28 
REMARK    4  A    between atoms: C23_28  and  C24_29 
ROOT
ATOM      1  C13 <0> d          -0.833  -3.090   0.027  0.00  0.00     0.254 C 
ATOM      2  O1  <0> d          -1.369  -2.005   0.140  0.00  0.00    -0.267 OA
ATOM      3  N1  <0> d          -1.583  -4.204  -0.084  0.00  0.00    -0.346 N 
ATOM      4  C14 <0> d          -1.119  -5.611  -0.119  0.00  0.00     0.141 C 
ATOM      5  C15 <0> d          -2.164  -6.386   0.715  0.00  0.00     0.106 C 
ATOM      6  C16 <0> d          -3.434  -5.521   0.656  0.00  0.00    -0.007 C 
ATOM      7  C17 <0> d          -3.058  -4.299  -0.194  0.00  0.00     0.136 C 
ATOM      8  C18 <0> d          -4.571  -6.296  -0.003  0.00  0.00     0.039 C 
ATOM      9  C19 <0> d          -5.838  -5.436   0.002  0.00  0.00     0.233 C 
ATOM     10  N2  <0> d          -6.192  -5.091   1.384  0.00  0.00    -0.075 N 
ATOM     11  C20 <0> d          -5.133  -4.267   1.981  0.00  0.00     0.233 C 
ATOM     12  C21 <0> d          -3.836  -5.077   2.059  0.00  0.00     0.039 C 
ATOM     13  H17 <0> d          -7.060  -4.577   1.390  0.00  0.00     0.277 HD
ATOM     14  H27 <0> d          -6.302  -5.937   1.923  0.00  0.00     0.277 HD
ENDROOT
BRANCH   1  15
ATOM     15  C12 <0> d           0.641  -3.187   0.013  0.00  0.00     0.044 A 
ATOM     16  C7  <0> d           1.398  -2.543   1.000  0.00  0.00     0.005 A 
ATOM     17  C5  <0> d           1.006  -1.708   2.162  0.00  0.00    -0.010 A 
ATOM     18  C8  <0> d           2.798  -2.646   0.972  0.00  0.00     0.027 A 
ATOM     19  C4  <0> d           2.169  -1.304   2.839  0.00  0.00     0.026 A 
ATOM     20  C6  <0> d          -0.236  -1.303   2.635  0.00  0.00     0.013 A 
ATOM     21  C3  <0> d           2.070  -0.507   3.973  0.00  0.00     0.016 A 
ATOM     22  C25 <0> d           3.333  -1.876   2.120  0.00  0.00     0.194 A 
ATOM     23  C2  <0> d           0.824  -0.112   4.432  0.00  0.00     0.001 A 
ATOM     24  C1  <0> d          -0.321  -0.507   3.768  0.00  0.00     0.001 A 
ATOM     25  O3  <0> d           4.503  -1.739   2.415  0.00  0.00    -0.287 OA
ATOM     26  C9  <0> d           3.420  -3.383  -0.030  0.00  0.00     0.016 A 
ATOM     27  C10 <0> d           2.662  -4.017  -1.002  0.00  0.00     0.002 A 
ATOM     28  C11 <0> d           1.287  -3.924  -0.986  0.00  0.00     0.018 A 
ENDBRANCH   1  15
BRANCH   5  29
ATOM     29  C22 <0> d          -1.693  -6.535   2.139  0.00  0.00     0.224 C 
ATOM     30  O2  <0> d          -1.028  -5.660   2.652  0.00  0.00    -0.273 OA
ATOM     31  N3  <0> d          -2.010  -7.640   2.842  0.00  0.00    -0.358 N 
ATOM     32  H22 <0> d          -2.542  -8.340   2.432  0.00  0.00     0.162 HD
BRANCH  31  33
ATOM     33  C23 <0> d          -1.552  -7.785   4.226  0.00  0.00     0.153 C 
BRANCH  33  34
ATOM     34  C24 <0> d          -2.046  -9.119   4.790  0.00  0.00     0.241 C 
ATOM     35  F1  <0> d          -1.608  -9.257   6.112  0.00  0.00    -0.254 F 
ENDBRANCH  33  34
ENDBRANCH  31  33
ENDBRANCH   5  29
TORSDOF 4
