REMARK  7 active torsions:
REMARK  status: ('A' for Active; 'I' for Inactive)
REMARK    1  A    between atoms: C2_2  and  C3_3 
REMARK       I    between atoms: C3_3  and  N1_5 
REMARK    2  A    between atoms: C10_12  and  C12_14 
REMARK    3  A    between atoms: C12_14  and  C13_15 
REMARK    4  A    between atoms: C12_14  and  O3_29 
REMARK    5  A    between atoms: C13_15  and  N2_32 
REMARK    6  A    between atoms: C16_18  and  C19_21 
REMARK    7  A    between atoms: C16_18  and  O2_28 
ROOT
ATOM      1  C13 <0> d          -2.199   5.244   1.473  0.00  0.00     0.271 C 
ENDROOT
BRANCH   1   2
ATOM      2  C12 <0> d          -1.966   4.754   0.042  0.00  0.00     0.177 C 
BRANCH   2   3
ATOM      3  C10 <0> d          -0.795   3.806   0.021  0.00  0.00    -0.027 A 
ATOM      4  C9  <0> d           0.496   4.299   0.025  0.00  0.00     0.012 A 
ATOM      5  C8  <0> d           1.570   3.433   0.005  0.00  0.00     0.031 A 
ATOM      6  C7  <0> d           1.361   2.053  -0.018  0.00  0.00     0.043 A 
ATOM      7  N1  <0> d           2.298   1.015  -0.040  0.00  0.00    -0.317 N 
ATOM      8  C6  <0> d           0.062   1.569  -0.022  0.00  0.00    -0.029 A 
ATOM      9  C3  <0> d           3.635   1.181  -0.042  0.00  0.00     0.224 C 
ATOM     10  C4  <0> d           1.612  -0.280  -0.060  0.00  0.00     0.137 A 
ATOM     11  O1  <0> d           4.108   2.299  -0.024  0.00  0.00    -0.273 OA
ATOM     12  C5  <0> d           0.112   0.058  -0.049  0.00  0.00     0.061 A 
ATOM     13  C11 <0> d          -1.010   2.440   0.003  0.00  0.00     0.019 A 
BRANCH   9  14
ATOM     14  C2  <0> d           4.544  -0.021  -0.066  0.00  0.00     0.099 C 
ATOM     15  C1  <0> d           6.002   0.442  -0.063  0.00  0.00     0.014 C 
ENDBRANCH   9  14
ENDBRANCH   2   3
BRANCH   2  16
ATOM     16  O3  <0> d          -1.690   5.871  -0.805  0.00  0.00    -0.389 OA
ATOM     17  H32 <0> d          -0.907   6.378  -0.546  0.00  0.00     0.210 HD
ENDBRANCH   2  16
ENDBRANCH   1   2
BRANCH   1  18
ATOM     18  N2  <0> d          -3.313   6.215   1.473  0.00  0.00    -0.068 N 
ATOM     19  C14 <0> d          -4.502   5.619   0.828  0.00  0.00     0.238 C 
ATOM     20  C15 <0> d          -5.601   6.681   0.735  0.00  0.00     0.071 C 
ATOM     21  C16 <0> d          -5.963   7.159   2.143  0.00  0.00     0.088 C 
ATOM     22  C17 <0> d          -4.707   7.705   2.827  0.00  0.00     0.071 C 
ATOM     23  C18 <0> d          -3.634   6.614   2.860  0.00  0.00     0.238 C 
ATOM     24  H33 <0> d          -3.029   7.048   0.944  0.00  0.00     0.280 HD
BRANCH  21  25
ATOM     25  C19 <0> d          -7.002   8.246   2.056  0.00  0.00    -0.024 A 
ATOM     26  C24 <0> d          -8.345   7.922   2.078  0.00  0.00     0.017 A 
ATOM     27  C23 <0> d          -9.299   8.920   1.998  0.00  0.00    -0.061 A 
ATOM     28  C22 <0> d          -8.909  10.242   1.896  0.00  0.00     0.007 A 
ATOM     29  C25 <0> d         -10.764   8.567   2.022  0.00  0.00     0.048 C 
ATOM     30  C21 <0> d          -7.565  10.567   1.875  0.00  0.00     0.001 A 
ATOM     31  C20 <0> d          -6.612   9.569   1.959  0.00  0.00     0.010 A 
ENDBRANCH  21  25
BRANCH  21  32
ATOM     32  O2  <0> d          -6.481   6.063   2.901  0.00  0.00    -0.385 OA
ATOM     33  H31 <0> d          -7.279   5.667   2.525  0.00  0.00     0.211 HD
ENDBRANCH  21  32
ENDBRANCH   1  18
TORSDOF 7
