REMARK  3 active torsions:
REMARK  status: ('A' for Active; 'I' for Inactive)
REMARK    1  A    between atoms: C6_6  and  C10_11 
REMARK    2  A    between atoms: C10_11  and  C11_12 
REMARK    3  A    between atoms: C10_11  and  N1_18 
ROOT
ATOM      1  C10 <0> d           5.883  -1.186  -1.171  0.00  0.00     0.256 C 
ENDROOT
BRANCH   1   2
ATOM      2  C6  <0> d           4.542  -0.999  -0.508  0.00  0.00    -0.022 A 
ATOM      3  C5  <0> d           3.399  -0.875  -1.278  0.00  0.00     0.019 A 
ATOM      4  C4  <0> d           2.175  -0.704  -0.670  0.00  0.00    -0.022 A 
ATOM      5  C3  <0> d           0.775  -0.535  -1.228  0.00  0.00     0.073 C 
ATOM      6  C9  <0> d           2.069  -0.661   0.714  0.00  0.00     0.075 A 
ATOM      7  C2  <0> d           0.002  -0.004   0.002  0.00  0.00     0.129 C 
ATOM      8  C1  <0> d          -0.019   1.526   0.010  0.00  0.00     0.040 C 
ATOM      9  O1  <0> d           0.770  -0.509   1.108  0.00  0.00    -0.345 OA
ATOM     10  C8  <0> d           3.225  -0.783   1.482  0.00  0.00     0.038 A 
ATOM     11  C7  <0> d           4.450  -0.950   0.871  0.00  0.00     0.012 A 
ENDBRANCH   1   2
BRANCH   1  12
ATOM     12  C11 <0> d           6.262  -2.644  -1.132  0.00  0.00     0.018 A 
ATOM     13  S1  <0> d           6.960  -3.589   0.212  0.00  0.00    -0.085 SA
ATOM     14  C14 <0> d           7.069  -5.166  -0.618  0.00  0.00     0.051 A 
ATOM     15  C13 <0> d           6.581  -4.869  -1.848  0.00  0.00     0.028 A 
ATOM     16 Br1  <0> d           7.707  -6.819   0.043  0.00  0.00    -0.043 Br
ATOM     17  C12 <0> d           6.168  -3.577  -2.111  0.00  0.00     0.019 A 
ENDBRANCH   1  12
BRANCH   1  18
ATOM     18  N1  <0> d           6.896  -0.398  -0.457  0.00  0.00    -0.066 N 
ATOM     19  H13 <0> d           7.794  -0.523  -0.900  0.00  0.00     0.275 HD
ATOM     20  H14 <0> d           6.642   0.579  -0.482  0.00  0.00     0.275 HD
ATOM     21  H15 <0> d           6.948  -0.707   0.502  0.00  0.00     0.275 HD
ENDBRANCH   1  18
TORSDOF 3
