REMARK  5 active torsions:
REMARK  status: ('A' for Active; 'I' for Inactive)
REMARK    1  A    between atoms: C2_2  and  O1_3 
REMARK    2  A    between atoms: O1_3  and  C3_4 
REMARK    3  A    between atoms: C3_4  and  C4_6 
REMARK    4  A    between atoms: C7_10  and  N1_11 
REMARK       I    between atoms: N1_11  and  C8_12 
REMARK    5  A    between atoms: C8_12  and  C9_14 
ROOT
ATOM      1  C4  <0> d          -3.336   1.556   2.161  0.00  0.00     0.080 A 
ATOM      2  C5  <0> d          -2.434   1.650   1.029  0.00  0.00    -0.023 A 
ATOM      3  C6  <0> d          -2.963   1.294  -0.163  0.00  0.00     0.018 A 
ATOM      4  S1  <0> d          -4.632   0.836   0.203  0.00  0.00    -0.074 SA
ATOM      5  C7  <0> d          -4.631   1.115   1.913  0.00  0.00     0.094 A 
ATOM      6  C19 <0> d          -2.260   1.298  -1.485  0.00  0.00     0.281 C 
ATOM      7  C20 <0> d          -0.264   1.656  -0.160  0.00  0.00     0.239 C 
ATOM      8  C21 <0> d          -0.985   2.107   1.113  0.00  0.00     0.068 C 
ATOM      9  C22 <0> d          -0.197   1.990  -2.558  0.00  0.00     0.270 C 
ATOM     10  N2  <0> d          -1.028   2.110  -1.340  0.00  0.00    -0.070 N 
ATOM     11  H31 <0> d          -1.289   3.095  -1.210  0.00  0.00     0.279 HD
ENDROOT
BRANCH   5  12
ATOM     12  N1  <0> d          -5.668   0.941   2.815  0.00  0.00    -0.320 N 
ATOM     13  C8  <0> d          -6.867   0.500   2.385  0.00  0.00     0.235 C 
ATOM     14  O3  <0> d          -7.038   0.256   1.210  0.00  0.00    -0.272 OA
ATOM     15  H7  <0> d          -5.532   1.135   3.755  0.00  0.00     0.169 HD
BRANCH  13  16
ATOM     16  C9  <0> d          -7.996   0.310   3.366  0.00  0.00     0.065 C 
ATOM     17  C13 <0> d          -9.345  -0.228   2.772  0.00  0.00     0.029 C 
ATOM     18  C12 <0> d         -10.120  -0.252   4.137  0.00  0.00    -0.001 C 
ATOM     19  C11 <0> d          -9.923   1.215   4.630  0.00  0.00     0.007 C 
ATOM     20  C14 <0> d          -9.126  -1.086   5.004  0.00  0.00    -0.020 C 
ATOM     21  C10 <0> d          -8.475   1.595   4.108  0.00  0.00     0.024 C 
ATOM     22  C15 <0> d          -7.746  -0.711   4.485  0.00  0.00    -0.063 C 
ATOM     23  C17 <0> d          -9.379  -2.583   4.812  0.00  0.00     0.020 C 
ATOM     24  C18 <0> d          -9.259  -0.710   6.481  0.00  0.00     0.020 C 
ATOM     25  C16 <0> d          -6.590  -1.164   4.903  0.00  0.00     0.016 C 
ENDBRANCH  13  16
ENDBRANCH   5  12
BRANCH   1  26
ATOM     26  C3  <0> d          -2.900   1.911   3.513  0.00  0.00     0.296 C 
ATOM     27  O2  <0> d          -2.411   1.064   4.237  0.00  0.00    -0.259 OA
BRANCH  26  28
ATOM     28  O1  <0> d          -3.039   3.178   3.956  0.00  0.00    -0.318 OA
BRANCH  28  29
ATOM     29  C2  <0> d          -2.585   3.457   5.306  0.00  0.00     0.174 C 
ATOM     30  C1  <0> d          -2.823   4.934   5.629  0.00  0.00     0.034 C 
ENDBRANCH  28  29
ENDBRANCH  26  28
ENDBRANCH   1  26
TORSDOF 5
