REMARK  5 active torsions:
REMARK  status: ('A' for Active; 'I' for Inactive)
REMARK    1  A    between atoms: C2_2  and  C3_3 
REMARK    2  A    between atoms: N2_10  and  C9_13 
REMARK    3  A    between atoms: C9_13  and  C10_14 
REMARK       I    between atoms: C10_14  and  N3_16 
REMARK    4  A    between atoms: N3_16  and  C11_17 
REMARK    5  A    between atoms: N5_21  and  C14_22 
ROOT
ATOM      1  C10 <0> d           5.723  -2.366  -1.897  0.00  0.00     0.241 C 
ATOM      2  O2  <0> d           6.053  -2.587  -3.043  0.00  0.00    -0.271 OA
ATOM      3  N3  <0> d           4.622  -1.630  -1.643  0.00  0.00    -0.310 N 
ATOM      4  H10 <0> d           4.323  -1.429  -0.604  0.00  0.00     0.170 HD
ENDROOT
BRANCH   1   5
ATOM      5  C9  <0> d           6.543  -2.913  -0.757  0.00  0.00     0.236 C 
BRANCH   5   6
ATOM      6  N2  <0> d           7.677  -3.671  -1.292  0.00  0.00    -0.299 N 
ATOM      7  C7  <0> d           7.536  -5.001  -1.528  0.00  0.00     0.214 A 
ATOM      8  N1  <0> d           8.522  -5.710  -2.008  0.00  0.00    -0.235 NA
ATOM      9  C6  <0> d           9.701  -5.154  -2.272  0.00  0.00     0.115 A 
ATOM     10  C5  <0> d           9.944  -3.786  -2.055  0.00  0.00     0.069 A 
ATOM     11  S1  <0> d          11.246  -5.753  -2.906  0.00  0.00    -0.074 SA
ATOM     12  C4  <0> d          11.281  -3.339  -2.394  0.00  0.00     0.034 A 
ATOM     13  C8  <0> d           8.839  -3.037  -1.533  0.00  0.00     0.262 A 
ATOM     14  C3  <0> d          12.167  -4.226  -2.875  0.00  0.00    -0.015 A 
ATOM     15  O1  <0> d           8.951  -1.843  -1.311  0.00  0.00    -0.267 OA
BRANCH  14  16
ATOM     16  C2  <0> d          13.596  -3.989  -3.291  0.00  0.00     0.042 C 
ATOM     17  C1  <0> d          14.518  -4.199  -2.088  0.00  0.00     0.010 C 
ENDBRANCH  14  16
ENDBRANCH   5   6
ENDBRANCH   1   5
BRANCH   3  18
ATOM     18  C11 <0> d           3.864  -1.124  -2.698  0.00  0.00     0.128 A 
ATOM     19  N5  <0> d           2.743  -0.375  -2.589  0.00  0.00    -0.249 N 
ATOM     20  N4  <0> d           2.293  -0.082  -3.882  0.00  0.00    -0.183 NA
ATOM     21  C13 <0> d           3.117  -0.627  -4.739  0.00  0.00     0.142 A 
ATOM     22  C12 <0> d           4.116  -1.294  -4.025  0.00  0.00     0.071 A 
BRANCH  19  23
ATOM     23  C14 <0> d           2.108   0.049  -1.338  0.00  0.00     0.115 C 
ATOM     24  C18 <0> d           2.062   1.579  -1.280  0.00  0.00     0.055 C 
ATOM     25  C17 <0> d           1.344   2.014   0.000  0.00  0.00     0.236 C 
ATOM     26  N6  <0> d          -0.018   1.464   0.010  0.00  0.00    -0.075 N 
ATOM     27  C16 <0> d           0.002  -0.004   0.002  0.00  0.00     0.236 C 
ATOM     28  C19 <0> d          -0.783   1.974   1.156  0.00  0.00     0.269 C 
ATOM     29  H25 <0> d          -0.521   1.798  -0.910  0.00  0.00     0.279 HD
ATOM     30  C15 <0> d           0.680  -0.499  -1.278  0.00  0.00     0.055 C 
ENDBRANCH  19  23
ENDBRANCH   3  18
TORSDOF 5
