REMARK  4 active torsions:
REMARK  status: ('A' for Active; 'I' for Inactive)
REMARK    1  A    between atoms: C3_3  and  N3_16 
REMARK    2  A    between atoms: C5_5  and  S1_7 
REMARK    3  A    between atoms: S1_7  and  N1_10 
REMARK       I    between atoms: N3_16  and  C11_17 
REMARK    4  A    between atoms: C11_17  and  C12_19 
ROOT
ATOM      1  C1  <0> d          -0.013   1.375  -0.179  0.00  0.00     0.004 A 
ATOM      2  C2  <0> d           1.175   2.081  -0.182  0.00  0.00     0.029 A 
ATOM      3  C3  <0> d           2.380   1.411  -0.018  0.00  0.00     0.036 A 
ATOM      4  C4  <0> d           2.387   0.032   0.148  0.00  0.00     0.054 A 
ATOM      5  C5  <0> d           1.197  -0.668   0.150  0.00  0.00     0.083 A 
ATOM      6  C6  <0> d          -0.002   0.002  -0.014  0.00  0.00     0.025 A 
ENDROOT
BRANCH   5   7
ATOM      7  S1  <0> d           1.206  -2.417   0.360  0.00  0.00     0.284 S 
ATOM      8  O1  <0> d           0.003  -2.902  -0.221  0.00  0.00    -0.198 OA
ATOM      9  O2  <0> d           2.487  -2.870  -0.054  0.00  0.00    -0.198 OA
BRANCH   7  10
ATOM     10  N1  <0> d           1.100  -2.716   1.985  0.00  0.00    -0.147 NA
ATOM     11  C7  <0> d           1.087  -3.934   2.420  0.00  0.00     0.113 C 
ATOM     12  N2  <0> d           1.003  -4.300   3.735  0.00  0.00    -0.378 N 
ATOM     13  C8  <0> d           1.167  -5.169   1.550  0.00  0.00     0.080 C 
ATOM     14  C10 <0> d           0.999  -5.761   3.872  0.00  0.00     0.121 C 
ATOM     15  H11 <0> d           0.952  -3.677   4.477  0.00  0.00     0.160 HD
ATOM     16  C9  <0> d           1.538  -6.304   2.531  0.00  0.00     0.027 C 
ENDBRANCH   7  10
ENDBRANCH   5   7
BRANCH   3  17
ATOM     17  N3  <0> d           3.584   2.123  -0.021  0.00  0.00    -0.326 N 
ATOM     18  C11 <0> d           3.628   3.375   0.478  0.00  0.00     0.235 C 
ATOM     19  O3  <0> d           2.649   3.848   1.016  0.00  0.00    -0.272 OA
ATOM     20  H12 <0> d           4.387   1.717  -0.382  0.00  0.00     0.169 HD
BRANCH  18  21
ATOM     21  C12 <0> d           4.893   4.186   0.368  0.00  0.00     0.217 C 
ATOM     22 Cl1  <0> d           4.638   5.803   1.123  0.00  0.00    -0.121 Cl
ENDBRANCH  18  21
ENDBRANCH   3  17
TORSDOF 4
