REMARK  5 active torsions:
REMARK  status: ('A' for Active; 'I' for Inactive)
REMARK    1  A    between atoms: C2_2  and  N1_3 
REMARK    2  A    between atoms: N1_3  and  C3_4 
REMARK    3  A    between atoms: C3_4  and  C5_6 
REMARK    4  A    between atoms: C3_4  and  C11_14 
REMARK    5  A    between atoms: C5_6  and  N2_7 
ROOT
ATOM      1  C3  <0> d           0.838  -1.954   1.242  0.00  0.00     0.226 C 
ATOM      2  C4  <0> d          -0.539  -2.619   1.213  0.00  0.00     0.060 C 
ENDROOT
BRANCH   1   3
ATOM      3  N1  <0> d           0.679  -0.495   1.171  0.00  0.00    -0.055 N 
ATOM      4  H6  <0> d           0.282  -0.243   0.278  0.00  0.00     0.278 HD
ATOM      5  H19 <0> d           1.580  -0.053   1.274  0.00  0.00     0.278 HD
BRANCH   3   6
ATOM      6  C2  <0> d          -0.213  -0.046   2.248  0.00  0.00     0.229 C 
ATOM      7  C1  <0> d          -0.283   1.482   2.250  0.00  0.00     0.034 C 
ENDBRANCH   3   6
ENDBRANCH   1   3
BRANCH   1   8
ATOM      8  C5  <0> d           1.557  -2.325   2.540  0.00  0.00     0.201 C 
BRANCH   8   9
ATOM      9  N2  <0> d           1.716  -3.780   2.611  0.00  0.00    -0.271 N 
ATOM     10  N3  <0> d           2.803  -4.515   2.122  0.00  0.00    -0.177 NA
ATOM     11  C8  <0> d           2.587  -5.781   2.373  0.00  0.00     0.053 A 
ATOM     12  C7  <0> d           1.352  -5.893   3.020  0.00  0.00     0.055 A 
ATOM     13  C9  <0> d           3.506  -6.922   2.019  0.00  0.00     0.072 C 
ATOM     14  C6  <0> d           0.838  -4.649   3.154  0.00  0.00     0.029 A 
ATOM     15  C10 <0> d          -0.479  -4.296   3.796  0.00  0.00     0.070 C 
ENDBRANCH   8   9
ENDBRANCH   1   8
BRANCH   1  16
ATOM     16  C11 <0> d           1.650  -2.428   0.064  0.00  0.00     0.212 C 
ATOM     17  O1  <0> d           2.160  -1.618  -0.691  0.00  0.00    -0.646 OA
ATOM     18  O2  <0> d           1.797  -3.622  -0.133  0.00  0.00    -0.646 OA
ENDBRANCH   1  16
TORSDOF 5
