REMARK  7 active torsions:
REMARK  status: ('A' for Active; 'I' for Inactive)
REMARK    1  A    between atoms: C2_2  and  O1_3 
REMARK    2  A    between atoms: O1_3  and  C3_4 
REMARK    3  A    between atoms: C8_9  and  N1_10 
REMARK    4  A    between atoms: C11_14  and  S1_17 
REMARK    5  A    between atoms: S1_17  and  C13_18 
REMARK    6  A    between atoms: C13_18  and  C14_19 
REMARK    7  A    between atoms: C14_19  and  N2_20 
ROOT
ATOM      1  N1  <0> d          -3.904  -1.564   0.031  0.00  0.00    -0.248 N 
ATOM      2  C9  <0> d          -4.500  -1.131  -1.087  0.00  0.00     0.232 A 
ATOM      3  O2  <0> d          -4.152  -1.398  -2.217  0.00  0.00    -0.273 OA
ATOM      4  C10 <0> d          -5.676  -0.255  -0.716  0.00  0.00     0.128 A 
ATOM      5  C11 <0> d          -5.657  -0.257   0.826  0.00  0.00     0.149 A 
ATOM      6  C12 <0> d          -4.475  -1.138   1.165  0.00  0.00     0.245 A 
ATOM      7  O3  <0> d          -4.102  -1.413   2.285  0.00  0.00    -0.271 OA
ENDROOT
BRANCH   1   8
ATOM      8  C8  <0> d          -2.777  -2.400   0.016  0.00  0.00     0.078 A 
ATOM      9  C3  <0> d          -1.498  -1.849   0.006  0.00  0.00     0.096 A 
ATOM     10  C4  <0> d          -0.389  -2.679  -0.003  0.00  0.00     0.039 A 
ATOM     11  C5  <0> d          -0.553  -4.052  -0.008  0.00  0.00     0.003 A 
ATOM     12  C6  <0> d          -1.823  -4.600  -0.005  0.00  0.00     0.002 A 
ATOM     13  C7  <0> d          -2.934  -3.778   0.004  0.00  0.00     0.033 A 
BRANCH   9  14
ATOM     14  O1  <0> d          -1.339  -0.499   0.012  0.00  0.00    -0.349 OA
BRANCH  14  15
ATOM     15  C2  <0> d           0.002  -0.004   0.002  0.00  0.00     0.171 C 
ATOM     16  C1  <0> d          -0.019   1.526   0.010  0.00  0.00     0.034 C 
ENDBRANCH  14  15
ENDBRANCH   9  14
ENDBRANCH   1   8
BRANCH   5  17
ATOM     17  S1  <0> d          -5.415   1.424   1.464  0.00  0.00    -0.153 SA
BRANCH  17  18
ATOM     18  C13 <0> d          -5.573   1.239   3.261  0.00  0.00     0.102 C 
BRANCH  18  19
ATOM     19  C14 <0> d          -5.388   2.601   3.933  0.00  0.00     0.239 C 
BRANCH  19  20
ATOM     20  N2  <0> d          -5.516   2.451   5.388  0.00  0.00    -0.079 N 
ATOM     21  H17 <0> d          -5.394   3.349   5.831  0.00  0.00     0.274 HD
ATOM     22  H18 <0> d          -6.431   2.088   5.610  0.00  0.00     0.274 HD
ATOM     23  H19 <0> d          -4.811   1.812   5.724  0.00  0.00     0.274 HD
ENDBRANCH  19  20
ENDBRANCH  18  19
ENDBRANCH  17  18
ENDBRANCH   5  17
TORSDOF 7
