REMARK  7 active torsions:
REMARK  status: ('A' for Active; 'I' for Inactive)
REMARK    1  A    between atoms: C2_2  and  C4_4 
REMARK    2  A    between atoms: C4_4  and  C5_5 
REMARK    3  A    between atoms: C7_8  and  N2_10 
REMARK    4  A    between atoms: N2_10  and  C8_11 
REMARK    5  A    between atoms: C8_11  and  C9_12 
REMARK    6  A    between atoms: C12_15  and  S2_18 
REMARK    7  A    between atoms: S2_18  and  N3_21 
ROOT
ATOM      1  C8  <0> d          -2.615  -2.448  -5.514  0.00  0.00     0.160 C 
ENDROOT
BRANCH   1   2
ATOM      2  N2  <0> d          -1.688  -1.929  -4.505  0.00  0.00    -0.367 N 
ATOM      3  H13 <0> d          -0.731  -2.029  -4.629  0.00  0.00     0.161 HD
BRANCH   2   4
ATOM      4  C7  <0> d          -2.175  -1.301  -3.382  0.00  0.00     0.136 C 
ATOM      5  S1  <0> d          -3.885  -1.014  -2.960  0.00  0.00    -0.092 SA
ATOM      6  C6  <0> d          -3.634  -0.528  -1.199  0.00  0.00     0.107 C 
ATOM      7  C5  <0> d          -2.135  -0.131  -1.286  0.00  0.00     0.093 C 
ATOM      8  N1  <0> d          -1.486  -0.792  -2.403  0.00  0.00    -0.366 N 
ATOM      9  H22 <0> d          -0.518  -0.854  -2.421  0.00  0.00     0.162 HD
BRANCH   7  10
ATOM     10  C4  <0> d          -1.433  -0.534   0.013  0.00  0.00     0.029 C 
BRANCH  10  11
ATOM     11  C2  <0> d           0.002  -0.004   0.002  0.00  0.00    -0.021 C 
ATOM     12  C1  <0> d          -0.019   1.526   0.010  0.00  0.00     0.009 C 
ATOM     13  C3  <0> d           0.742  -0.511   1.242  0.00  0.00     0.009 C 
ENDBRANCH  10  11
ENDBRANCH   7  10
ENDBRANCH   2   4
ENDBRANCH   1   2
BRANCH   1  14
ATOM     14  C9  <0> d          -1.834  -3.084  -6.635  0.00  0.00    -0.040 A 
ATOM     15  C14 <0> d          -1.511  -4.427  -6.576  0.00  0.00     0.010 A 
ATOM     16  C13 <0> d          -0.797  -5.012  -7.606  0.00  0.00     0.026 A 
ATOM     17  C12 <0> d          -0.400  -4.252  -8.690  0.00  0.00     0.079 A 
ATOM     18  C11 <0> d          -0.719  -2.908  -8.746  0.00  0.00     0.026 A 
ATOM     19  C10 <0> d          -1.435  -2.324  -7.718  0.00  0.00     0.010 A 
BRANCH  17  20
ATOM     20  S2  <0> d           0.513  -4.996 -10.001  0.00  0.00     0.256 S 
ATOM     21  O1  <0> d           0.211  -6.384  -9.968  0.00  0.00    -0.201 OA
ATOM     22  O2  <0> d           0.293  -4.196 -11.154  0.00  0.00    -0.201 OA
BRANCH  20  23
ATOM     23  N3  <0> d           2.119  -4.851  -9.623  0.00  0.00    -0.324 N 
ATOM     24  H20 <0> d           2.385  -4.415  -8.799  0.00  0.00     0.169 HD
ATOM     25  H21 <0> d           2.792  -5.203 -10.226  0.00  0.00     0.169 HD
ENDBRANCH  20  23
ENDBRANCH  17  20
ENDBRANCH   1  14
TORSDOF 7
