REMARK  5 active torsions:
REMARK  status: ('A' for Active; 'I' for Inactive)
REMARK    1  A    between atoms: C6_6  and  O3_28 
REMARK    2  A    between atoms: C7_7  and  C11_11 
REMARK       I    between atoms: C11_11  and  N1_13 
REMARK    3  A    between atoms: N1_13  and  N2_14 
REMARK       I    between atoms: N2_14  and  C12_15 
REMARK       I    between atoms: C12_15  and  N3_17 
REMARK    4  A    between atoms: N3_17  and  C13_18 
REMARK    5  A    between atoms: C17_22  and  C19_24 
ROOT
ATOM      1  C11 <0> d           2.278   3.760   8.003  0.00  0.00     0.273 C 
ATOM      2  O1  <0> d           1.724   4.238   8.975  0.00  0.00    -0.266 OA
ATOM      3  N1  <0> d           1.560   3.437   6.909  0.00  0.00    -0.262 N 
ATOM      4  H7  <0> d           2.002   3.056   6.135  0.00  0.00     0.190 HD
ENDROOT
BRANCH   3   5
ATOM      5  N2  <0> d           0.176   3.653   6.891  0.00  0.00    -0.248 N 
ATOM      6  C12 <0> d          -0.542   3.330   5.797  0.00  0.00     0.339 C 
ATOM      7  O2  <0> d          -1.743   3.518   5.781  0.00  0.00    -0.245 OA
ATOM      8  N3  <0> d           0.072   2.800   4.720  0.00  0.00    -0.308 N 
ATOM      9  H9  <0> d           1.018   2.588   4.757  0.00  0.00     0.170 HD
ATOM     10  H8  <0> d          -0.266   4.035   7.666  0.00  0.00     0.192 HD
BRANCH   8  11
ATOM     11  C13 <0> d          -0.655   2.555   3.550  0.00  0.00     0.037 A 
ATOM     12  C18 <0> d          -0.054   2.721   2.310  0.00  0.00     0.045 A 
ATOM     13  C17 <0> d          -0.775   2.479   1.156  0.00  0.00     0.050 A 
ATOM     14  C16 <0> d          -2.095   2.078   1.236  0.00  0.00     0.016 A 
ATOM     15  C15 <0> d          -2.696   1.906   2.470  0.00  0.00     0.003 A 
ATOM     16  C14 <0> d          -1.981   2.147   3.627  0.00  0.00     0.029 A 
BRANCH  13  17
ATOM     17  C19 <0> d          -0.123   2.660  -0.190  0.00  0.00     0.417 C 
ATOM     18  F1  <0> d           0.469   1.456  -0.587  0.00  0.00    -0.166 F 
ATOM     19  F2  <0> d           0.856   3.655  -0.105  0.00  0.00    -0.166 F 
ATOM     20  F3  <0> d          -1.089   3.036  -1.130  0.00  0.00    -0.166 F 
ENDBRANCH  13  17
ENDBRANCH   8  11
ENDBRANCH   3   5
BRANCH   1  21
ATOM     21  C7  <0> d           3.736   3.533   8.023  0.00  0.00     0.067 A 
ATOM     22  C6  <0> d           4.484   3.878   9.169  0.00  0.00     0.082 A 
ATOM     23  C5  <0> d           5.831   3.670   9.209  0.00  0.00     0.049 A 
ATOM     24  C4  <0> d           6.490   3.119   8.097  0.00  0.00    -0.023 A 
ATOM     25  C3  <0> d           7.879   2.902   8.114  0.00  0.00     0.012 A 
ATOM     26  C9  <0> d           5.748   2.774   6.938  0.00  0.00    -0.025 A 
ATOM     27  C2  <0> d           8.491   2.367   7.022  0.00  0.00     0.001 A 
ATOM     28  C1  <0> d           7.762   2.028   5.884  0.00  0.00     0.001 A 
ATOM     29  C10 <0> d           6.417   2.223   5.830  0.00  0.00     0.012 A 
ATOM     30  C8  <0> d           4.362   2.988   6.914  0.00  0.00     0.032 A 
BRANCH  22  31
ATOM     31  O3  <0> d           3.855   4.416  10.244  0.00  0.00    -0.360 OA
ATOM     32  H14 <0> d           3.542   3.763  10.885  0.00  0.00     0.217 HD
ENDBRANCH  22  31
ENDBRANCH   1  21
TORSDOF 5
