REMARK  3 active torsions:
REMARK  status: ('A' for Active; 'I' for Inactive)
REMARK    1  A    between atoms: C3_3  and  S2_10 
REMARK    2  A    between atoms: C5_5  and  C6_7 
REMARK       I    between atoms: C6_7  and  N1_9 
REMARK    3  A    between atoms: S2_10  and  N2_13 
ROOT
ATOM      1  C1  <0> d           2.207   4.162   0.002  0.00  0.00     0.058 C 
ATOM      2  C2  <0> d           1.077   3.165   0.008  0.00  0.00     0.003 A 
ATOM      3  C3  <0> d           1.149   1.808   0.001  0.00  0.00     0.093 A 
ATOM      4  C4  <0> d          -0.013   1.076   0.008  0.00  0.00     0.051 A 
ATOM      5  C5  <0> d          -1.205   1.783   0.017  0.00  0.00     0.074 A 
ATOM      6  S1  <0> d          -0.629   3.471   0.026  0.00  0.00    -0.088 SA
ENDROOT
BRANCH   3   7
ATOM      7  S2  <0> d           2.713   0.998  -0.018  0.00  0.00     0.262 S 
ATOM      8  O2  <0> d           3.496   1.601   1.002  0.00  0.00    -0.200 OA
ATOM      9  O3  <0> d           2.447  -0.398  -0.050  0.00  0.00    -0.200 OA
BRANCH   7  10
ATOM     10  N2  <0> d           3.441   1.373  -1.458  0.00  0.00    -0.303 N 
ATOM     11  C10 <0> d           4.305   2.558  -1.580  0.00  0.00     0.163 C 
ATOM     12  C9  <0> d           3.839   3.376  -2.789  0.00  0.00     0.255 C 
ATOM     13  N3  <0> d           3.826   2.499  -3.980  0.00  0.00    -0.072 N 
ATOM     14  C8  <0> d           2.818   1.430  -3.814  0.00  0.00     0.255 C 
ATOM     15  C11 <0> d           3.524   3.294  -5.188  0.00  0.00     0.269 C 
ATOM     16  H18 <0> d           4.753   2.070  -4.087  0.00  0.00     0.279 HD
ATOM     17  C7  <0> d           3.247   0.528  -2.645  0.00  0.00     0.163 C 
ENDBRANCH   7  10
ENDBRANCH   3   7
BRANCH   5  18
ATOM     18  C6  <0> d          -2.580   1.276   0.021  0.00  0.00     0.256 C 
ATOM     19  O1  <0> d          -2.786   0.076   0.015  0.00  0.00    -0.267 OA
ATOM     20  N1  <0> d          -3.616   2.137   0.030  0.00  0.00    -0.366 N 
ATOM     21  H5  <0> d          -3.452   3.093   0.035  0.00  0.00     0.159 HD
ATOM     22  H6  <0> d          -4.526   1.802   0.032  0.00  0.00     0.159 HD
ENDBRANCH   5  18
TORSDOF 3
