REMARK  5 active torsions:
REMARK  status: ('A' for Active; 'I' for Inactive)
REMARK    1  A    between atoms: C3_3  and  C4_4 
REMARK    2  A    between atoms: C4_4  and  C5_5 
REMARK    3  A    between atoms: C4_4  and  N2_14 
REMARK       I    between atoms: C5_5  and  N1_7 
REMARK    4  A    between atoms: N1_7  and  C6_8 
REMARK       I    between atoms: N2_14  and  C13_16 
REMARK    5  A    between atoms: C13_16  and  C14_18 
ROOT
ATOM      1  C4  <0> d          -2.229   0.109  -0.115  0.00  0.00     0.201 C 
ENDROOT
BRANCH   1   2
ATOM      2  C3  <0> d          -0.837  -0.461  -0.032  0.00  0.00     0.003 C 
ATOM      3  C2  <0> d          -0.450  -1.374  -0.889  0.00  0.00    -0.033 C 
ATOM      4  C1  <0> d          -1.352  -1.764  -2.032  0.00  0.00     0.036 C 
ENDBRANCH   1   2
BRANCH   1   5
ATOM      5  C5  <0> d          -2.991  -0.244   1.137  0.00  0.00     0.244 C 
ATOM      6  O1  <0> d          -3.428   0.636   1.849  0.00  0.00    -0.271 OA
ATOM      7  N1  <0> d          -3.187  -1.536   1.466  0.00  0.00    -0.354 N 
ATOM      8  H8  <0> d          -2.837  -2.239   0.896  0.00  0.00     0.162 HD
BRANCH   7   9
ATOM      9  C6  <0> d          -3.927  -1.879   2.683  0.00  0.00     0.084 C 
ATOM     10  C11 <0> d          -4.543  -3.271   2.530  0.00  0.00     0.025 C 
ATOM     11  C10 <0> d          -5.316  -3.628   3.801  0.00  0.00     0.002 C 
ATOM     12  C9  <0> d          -4.362  -3.621   4.997  0.00  0.00     0.000 C 
ATOM     13  C8  <0> d          -3.746  -2.229   5.150  0.00  0.00     0.002 C 
ATOM     14  C7  <0> d          -2.973  -1.871   3.879  0.00  0.00     0.025 C 
ENDBRANCH   7   9
ENDBRANCH   1   5
BRANCH   1  15
ATOM     15  N2  <0> d          -2.154   1.566  -0.247  0.00  0.00    -0.338 N 
ATOM     16  C12 <0> d          -1.397   2.352   0.731  0.00  0.00     0.154 C 
ATOM     17  C13 <0> d          -2.781   2.183  -1.268  0.00  0.00     0.243 C 
ATOM     18  O2  <0> d          -3.407   1.532  -2.077  0.00  0.00    -0.271 OA
BRANCH  17  19
ATOM     19  C14 <0> d          -2.703   3.682  -1.403  0.00  0.00     0.177 C 
ATOM     20  N3  <0> d          -3.084   4.089  -2.761  0.00  0.00    -0.348 N 
ATOM     21  C17 <0> d          -4.342   4.567  -2.791  0.00  0.00     0.218 C 
ATOM     22  H27 <0> d          -2.503   4.023  -3.535  0.00  0.00     0.163 HD
ATOM     23  C16 <0> d          -4.945   4.534  -1.404  0.00  0.00     0.105 C 
ATOM     24  O3  <0> d          -4.910   4.966  -3.786  0.00  0.00    -0.274 OA
ATOM     25  C15 <0> d          -3.729   4.357  -0.466  0.00  0.00     0.044 C 
ENDBRANCH  17  19
ENDBRANCH   1  15
TORSDOF 5
