REMARK  6 active torsions:
REMARK  status: ('A' for Active; 'I' for Inactive)
REMARK    1  A    between atoms: C5_5  and  N1_9 
REMARK       I    between atoms: N1_9  and  C9_10 
REMARK    2  A    between atoms: C9_10  and  C10_12 
REMARK       I    between atoms: C10_12  and  N2_14 
REMARK    3  A    between atoms: N2_14  and  C11_15 
REMARK    4  A    between atoms: C11_15  and  C12_16 
REMARK    5  A    between atoms: C12_16  and  C13_17 
REMARK    6  A    between atoms: C12_16  and  N3_22 
ROOT
ATOM      1  C10 <0> d          -0.425  -6.301  -1.211  0.00  0.00     0.309 C 
ATOM      2  O2  <0> d          -0.381  -6.898  -0.155  0.00  0.00    -0.262 OA
ATOM      3  N2  <0> d          -0.437  -6.986  -2.372  0.00  0.00    -0.351 N 
ATOM      4  H12 <0> d          -0.473  -6.509  -3.216  0.00  0.00     0.162 HD
ENDROOT
BRANCH   3   5
ATOM      5  C11 <0> d          -0.396  -8.450  -2.359  0.00  0.00     0.163 C 
BRANCH   5   6
ATOM      6  C12 <0> d          -0.300  -8.971  -3.795  0.00  0.00     0.262 C 
BRANCH   6   7
ATOM      7  C13 <0> d          -0.392 -10.475  -3.791  0.00  0.00     0.085 A 
ATOM      8  O3  <0> d          -1.527 -11.192  -3.735  0.00  0.00    -0.325 OA
ATOM      9  C16 <0> d          -1.230 -12.501  -3.755  0.00  0.00     0.142 A 
ATOM     10  C15 <0> d           0.107 -12.633  -3.815  0.00  0.00     0.027 A 
ATOM     11  C14 <0> d           0.647 -11.327  -3.838  0.00  0.00     0.037 A 
ENDBRANCH   6   7
BRANCH   6  12
ATOM     12  N3  <0> d          -1.401  -8.414  -4.592  0.00  0.00    -0.059 N 
ATOM     13  C21 <0> d          -1.377  -9.004  -5.936  0.00  0.00     0.236 C 
ATOM     14  C20 <0> d          -2.471  -8.368  -6.796  0.00  0.00     0.028 C 
ATOM     15  C19 <0> d          -3.835  -8.625  -6.149  0.00  0.00     0.003 C 
ATOM     16  C18 <0> d          -3.824  -8.072  -4.721  0.00  0.00     0.028 C 
ATOM     17  C17 <0> d          -2.679  -8.718  -3.938  0.00  0.00     0.236 C 
ATOM     18  H28 <0> d          -1.291  -7.414  -4.663  0.00  0.00     0.280 HD
ENDBRANCH   6  12
ENDBRANCH   5   6
ENDBRANCH   3   5
BRANCH   1  19
ATOM     19  C9  <0> d          -0.467  -4.808  -1.224  0.00  0.00     0.313 C 
ATOM     20  N1  <0> d          -0.456  -4.124  -0.064  0.00  0.00    -0.319 N 
ATOM     21  H11 <0> d          -0.348  -4.596   0.777  0.00  0.00     0.169 HD
ATOM     22  O1  <0> d          -0.512  -4.212  -2.281  0.00  0.00    -0.262 OA
BRANCH  20  23
ATOM     23  C5  <0> d          -0.598  -2.734  -0.071  0.00  0.00     0.041 A 
ATOM     24  C4  <0> d          -0.080  -1.986  -1.121  0.00  0.00     0.030 A 
ATOM     25  C3  <0> d          -0.224  -0.613  -1.126  0.00  0.00     0.009 A 
ATOM     26  C2  <0> d          -0.882   0.019  -0.086  0.00  0.00    -0.061 A 
ATOM     27  C1  <0> d          -1.037   1.518  -0.095  0.00  0.00     0.048 C 
ATOM     28  C7  <0> d          -1.395  -0.722   0.963  0.00  0.00     0.015 A 
ATOM     29  C6  <0> d          -1.259  -2.096   0.971  0.00  0.00    -0.035 A 
ATOM     30  C8  <0> d          -1.823  -2.903   2.113  0.00  0.00     0.050 C 
ENDBRANCH  20  23
ENDBRANCH   1  19
TORSDOF 6
