REMARK  7 active torsions:
REMARK  status: ('A' for Active; 'I' for Inactive)
REMARK       I    between atoms: N1_2  and  C2_3 
REMARK    1  A    between atoms: C2_3  and  C3_5 
REMARK    2  A    between atoms: C7_9  and  N2_11 
REMARK       I    between atoms: N2_11  and  C9_12 
REMARK    3  A    between atoms: C9_12  and  C10_14 
REMARK    4  A    between atoms: C10_14  and  C11_15 
REMARK    5  A    between atoms: C10_14  and  N4_25 
REMARK    6  A    between atoms: C11_15  and  C12_16 
REMARK       I    between atoms: N4_25  and  C20_26 
REMARK    7  A    between atoms: C20_26  and  C21_28 
ROOT
ATOM      1  C10 <0> d           2.694  -6.987  -4.160  0.00  0.00     0.181 C 
ENDROOT
BRANCH   1   2
ATOM      2  C9  <0> d           1.940  -6.251  -3.083  0.00  0.00     0.245 C 
ATOM      3  N2  <0> d           1.836  -4.908  -3.131  0.00  0.00    -0.325 N 
ATOM      4  H10 <0> d           2.180  -4.422  -3.897  0.00  0.00     0.169 HD
ATOM      5  O2  <0> d           1.427  -6.867  -2.173  0.00  0.00    -0.271 OA
BRANCH   3   6
ATOM      6  C7  <0> d           1.233  -4.214  -2.075  0.00  0.00     0.035 A 
ATOM      7  C6  <0> d           0.509  -3.056  -2.329  0.00  0.00     0.029 A 
ATOM      8  C5  <0> d          -0.089  -2.368  -1.290  0.00  0.00     0.003 A 
ATOM      9  C4  <0> d           0.029  -2.826   0.006  0.00  0.00     0.017 A 
ATOM     10  C3  <0> d           0.754  -3.989   0.271  0.00  0.00     0.034 A 
ATOM     11  C8  <0> d           1.362  -4.680  -0.776  0.00  0.00     0.046 A 
BRANCH  10  12
ATOM     12  C2  <0> d           0.883  -4.483   1.659  0.00  0.00     0.251 C 
ATOM     13  N1  <0> d           0.294  -3.813   2.670  0.00  0.00    -0.361 N 
ATOM     14  C1  <0> d           0.421  -4.302   4.045  0.00  0.00     0.149 C 
ATOM     15  H5  <0> d          -0.213  -3.007   2.487  0.00  0.00     0.162 HD
ATOM     16  O1  <0> d           1.519  -5.493   1.889  0.00  0.00    -0.268 OA
ENDBRANCH  10  12
ENDBRANCH   3   6
ENDBRANCH   1   2
BRANCH   1  17
ATOM     17  C11 <0> d           4.196  -6.899  -3.883  0.00  0.00     0.071 C 
BRANCH  17  18
ATOM     18  C12 <0> d           4.955  -7.529  -5.022  0.00  0.00    -0.048 A 
ATOM     19  C19 <0> d           5.281  -8.995  -5.198  0.00  0.00     0.155 A 
ATOM     20  N3  <0> d           6.026  -9.094  -6.458  0.00  0.00    -0.385 N 
ATOM     21  C18 <0> d           6.146  -7.892  -6.968  0.00  0.00     0.038 A 
ATOM     22  H23 <0> d           6.374  -9.911  -6.847  0.00  0.00     0.160 HD
ATOM     23  C13 <0> d           5.487  -6.896  -6.093  0.00  0.00    -0.006 A 
ATOM     24  C17 <0> d           6.772  -7.426  -8.157  0.00  0.00     0.030 A 
ATOM     25  C14 <0> d           5.517  -5.486  -6.501  0.00  0.00     0.014 A 
ATOM     26  C15 <0> d           6.141  -5.150  -7.653  0.00  0.00     0.001 A 
ATOM     27  C16 <0> d           6.757  -6.111  -8.465  0.00  0.00     0.002 A 
ENDBRANCH  17  18
ENDBRANCH   1  17
BRANCH   1  28
ATOM     28  N4  <0> d           2.281  -8.393  -4.172  0.00  0.00    -0.343 N 
ATOM     29  C20 <0> d           2.454  -9.155  -3.074  0.00  0.00     0.259 C 
ATOM     30  O3  <0> d           2.954  -8.676  -2.073  0.00  0.00    -0.267 OA
ATOM     31  H19 <0> d           1.882  -8.774  -4.970  0.00  0.00     0.163 HD
BRANCH  29  32
ATOM     32  C21 <0> d           2.041 -10.561  -3.085  0.00  0.00     0.072 A 
ATOM     33  S1  <0> d           1.292 -11.502  -4.402  0.00  0.00    -0.097 SA
ATOM     34  C24 <0> d           1.146 -12.982  -3.622  0.00  0.00     0.050 A 
ATOM     35  C23 <0> d           1.650 -12.757  -2.383  0.00  0.00     0.009 A 
ATOM     36  C22 <0> d           2.124 -11.505  -2.073  0.00  0.00     0.025 A 
ENDBRANCH  29  32
ENDBRANCH   1  28
TORSDOF 7
