REMARK  7 active torsions:
REMARK  status: ('A' for Active; 'I' for Inactive)
REMARK    1  A    between atoms: C2_2  and  C3_3 
REMARK    2  A    between atoms: C3_3  and  C5_5 
REMARK    3  A    between atoms: C5_5  and  N1_6 
REMARK       I    between atoms: N1_6  and  C6_7 
REMARK    4  A    between atoms: C6_7  and  C7_9 
REMARK       I    between atoms: N2_11  and  C15_19 
REMARK    5  A    between atoms: C15_19  and  C16_21 
REMARK    6  A    between atoms: C21_26  and  O3_27 
REMARK    7  A    between atoms: O3_27  and  C22_28 
ROOT
ATOM      1  C7  <0> d          -3.966  -4.588   0.378  0.00  0.00     0.106 C 
ATOM      2  C8  <0> d          -4.925  -4.030  -0.697  0.00  0.00     0.141 C 
ATOM      3  N2  <0> d          -5.091  -5.142  -1.663  0.00  0.00    -0.346 N 
ATOM      4  C9  <0> d          -5.162  -6.358  -0.818  0.00  0.00     0.136 C 
ATOM      5  C10 <0> d          -4.127  -6.115   0.298  0.00  0.00    -0.007 C 
ATOM      6  C11 <0> d          -4.643  -6.662   1.625  0.00  0.00     0.039 C 
ATOM      7  C12 <0> d          -4.739  -8.188   1.541  0.00  0.00     0.233 C 
ATOM      8  N3  <0> d          -3.417  -8.748   1.239  0.00  0.00    -0.075 N 
ATOM      9  C13 <0> d          -2.969  -8.290  -0.082  0.00  0.00     0.233 C 
ATOM     10  C14 <0> d          -2.797  -6.769  -0.066  0.00  0.00     0.039 C 
ATOM     11  C15 <0> d          -5.161  -5.065  -3.007  0.00  0.00     0.256 C 
ATOM     12  O2  <0> d          -5.394  -6.062  -3.662  0.00  0.00    -0.267 OA
ATOM     13  H22 <0> d          -2.757  -8.446   1.940  0.00  0.00     0.277 HD
ATOM     14  H34 <0> d          -3.470  -9.756   1.243  0.00  0.00     0.277 HD
ENDROOT
BRANCH  11  15
ATOM     15  C16 <0> d          -4.956  -3.769  -3.684  0.00  0.00     0.066 A 
ATOM     16  C21 <0> d          -4.310  -3.718  -4.926  0.00  0.00     0.094 A 
ATOM     17  C20 <0> d          -4.127  -2.496  -5.555  0.00  0.00     0.038 A 
ATOM     18  C19 <0> d          -4.569  -1.334  -4.954  0.00  0.00     0.003 A 
ATOM     19  C18 <0> d          -5.204  -1.380  -3.723  0.00  0.00     0.001 A 
ATOM     20  C17 <0> d          -5.399  -2.587  -3.086  0.00  0.00     0.020 A 
BRANCH  16  21
ATOM     21  O3  <0> d          -3.871  -4.860  -5.513  0.00  0.00    -0.278 OA
BRANCH  21  22
ATOM     22  C22 <0> d          -2.648  -5.308  -5.185  0.00  0.00     0.260 C 
ATOM     23  O4  <0> d          -2.011  -4.749  -4.323  0.00  0.00    -0.265 OA
ATOM     24  C23 <0> d          -2.070  -6.506  -5.892  0.00  0.00     0.126 C 
ENDBRANCH  21  22
ENDBRANCH  16  21
ENDBRANCH  11  15
BRANCH   1  25
ATOM     25  C6  <0> d          -2.545  -4.193   0.068  0.00  0.00     0.224 C 
ATOM     26  N1  <0> d          -1.658  -4.026   1.069  0.00  0.00    -0.360 N 
ATOM     27  H13 <0> d          -1.934  -4.159   1.989  0.00  0.00     0.162 HD
ATOM     28  O1  <0> d          -2.199  -4.027  -1.083  0.00  0.00    -0.273 OA
BRANCH  26  29
ATOM     29  C5  <0> d          -0.276  -3.643   0.767  0.00  0.00     0.126 C 
BRANCH  29  30
ATOM     30  C3  <0> d           0.515  -3.520   2.071  0.00  0.00    -0.001 C 
ATOM     31  C4  <0> d          -0.051  -2.369   2.905  0.00  0.00     0.011 C 
BRANCH  30  32
ATOM     32  C2  <0> d           1.985  -3.242   1.751  0.00  0.00     0.001 C 
ATOM     33  C1  <0> d           2.798  -3.244   3.047  0.00  0.00     0.005 C 
ENDBRANCH  30  32
ENDBRANCH  29  30
ENDBRANCH  26  29
ENDBRANCH   1  25
TORSDOF 7
