REMARK  3 active torsions:
REMARK  status: ('A' for Active; 'I' for Inactive)
REMARK    1  A    between atoms: C5_5  and  N1_9 
REMARK       I    between atoms: N1_9  and  C9_10 
REMARK    2  A    between atoms: C9_10  and  C10_12 
REMARK    3  A    between atoms: C10_12  and  N2_13 
ROOT
ATOM      1  N1  <0> d           0.170  -4.278   0.033  0.00  0.00    -0.325 N 
ATOM      2  C9  <0> d          -0.213  -4.966  -1.060  0.00  0.00     0.240 C 
ATOM      3  O1  <0> d          -0.547  -4.373  -2.064  0.00  0.00    -0.271 OA
ATOM      4  H10 <0> d           0.504  -4.751   0.811  0.00  0.00     0.169 HD
ENDROOT
BRANCH   2   5
ATOM      5  C10 <0> d          -0.228  -6.473  -1.036  0.00  0.00     0.238 C 
BRANCH   5   6
ATOM      6  N2  <0> d          -0.679  -6.979  -2.335  0.00  0.00    -0.278 N 
ATOM      7  C14 <0> d           0.279  -7.193  -3.228  0.00  0.00     0.240 C 
ATOM      8  C13 <0> d           0.029  -7.739  -4.610  0.00  0.00     0.136 C 
ATOM      9  O3  <0> d           1.421  -6.933  -2.915  0.00  0.00    -0.272 OA
ATOM     10  S1  <0> d          -1.638  -7.224  -5.133  0.00  0.00    -0.146 SA
ATOM     11  C15 <0> d           1.070  -7.181  -5.582  0.00  0.00     0.031 C 
ATOM     12  C12 <0> d          -2.650  -7.699  -3.695  0.00  0.00     0.178 C 
ATOM     13  C11 <0> d          -1.988  -7.163  -2.453  0.00  0.00     0.236 C 
ATOM     14  O2  <0> d          -2.692  -6.881  -1.507  0.00  0.00    -0.272 OA
ENDBRANCH   5   6
ENDBRANCH   2   5
BRANCH   1  15
ATOM     15  C5  <0> d           0.086  -2.881   0.046  0.00  0.00     0.046 A 
ATOM     16  C4  <0> d           0.737  -2.136  -0.929  0.00  0.00    -0.034 A 
ATOM     17  C3  <0> d           0.648  -0.758  -0.917  0.00  0.00     0.015 A 
ATOM     18  C16 <0> d           1.534  -2.831  -2.002  0.00  0.00     0.050 C 
ATOM     19  C2  <0> d          -0.079  -0.120   0.071  0.00  0.00    -0.061 A 
ATOM     20  C1  <0> d          -0.170   1.385   0.085  0.00  0.00     0.048 C 
ATOM     21  C7  <0> d          -0.728  -0.859   1.043  0.00  0.00     0.015 A 
ATOM     22  C6  <0> d          -0.648  -2.237   1.033  0.00  0.00    -0.034 A 
ATOM     23  C8  <0> d          -1.356  -3.042   2.093  0.00  0.00     0.050 C 
ENDBRANCH   1  15
TORSDOF 3
