REMARK  4 active torsions:
REMARK  status: ('A' for Active; 'I' for Inactive)
REMARK    1  A    between atoms: C3_3  and  C6_9 
REMARK    2  A    between atoms: C6_9  and  N3_11 
REMARK       I    between atoms: N3_11  and  C8_12 
REMARK    3  A    between atoms: C8_12  and  C9_14 
REMARK       I    between atoms: N4_16  and  C17_24 
REMARK    4  A    between atoms: C17_24  and  C18_26 
ROOT
ATOM      1  C9  <0> d          -3.206  -1.633  -4.836  0.00  0.00     0.106 C 
ATOM      2  C10 <0> d          -2.348  -2.827  -5.313  0.00  0.00     0.141 C 
ATOM      3  N4  <0> d          -2.820  -3.100  -6.691  0.00  0.00    -0.346 N 
ATOM      4  C11 <0> d          -3.047  -1.757  -7.277  0.00  0.00     0.136 C 
ATOM      5  C12 <0> d          -3.662  -0.933  -6.127  0.00  0.00    -0.007 C 
ATOM      6  C13 <0> d          -3.137   0.499  -6.166  0.00  0.00     0.039 C 
ATOM      7  C14 <0> d          -3.652   1.193  -7.430  0.00  0.00     0.233 C 
ATOM      8  N5  <0> d          -5.120   1.188  -7.430  0.00  0.00    -0.075 N 
ATOM      9  C15 <0> d          -5.616  -0.193  -7.487  0.00  0.00     0.233 C 
ATOM     10  C16 <0> d          -5.184  -0.945  -6.226  0.00  0.00     0.039 C 
ATOM     11  C17 <0> d          -3.003  -4.299  -7.279  0.00  0.00     0.255 C 
ATOM     12  O2  <0> d          -3.308  -4.359  -8.456  0.00  0.00    -0.267 OA
ATOM     13  H22 <0> d          -5.456   1.630  -6.588  0.00  0.00     0.277 HD
ATOM     14  H32 <0> d          -5.457   1.698  -8.233  0.00  0.00     0.277 HD
ENDROOT
BRANCH   1  15
ATOM     15  C8  <0> d          -2.379  -0.696  -3.995  0.00  0.00     0.224 C 
ATOM     16  N3  <0> d          -2.983   0.145  -3.131  0.00  0.00    -0.352 N 
ATOM     17  H13 <0> d          -3.949   0.146  -3.051  0.00  0.00     0.163 HD
ATOM     18  O1  <0> d          -1.170  -0.698  -4.095  0.00  0.00    -0.273 OA
BRANCH  16  19
ATOM     19  C6  <0> d          -2.179   1.056  -2.313  0.00  0.00     0.117 C 
ATOM     20  C7  <0> d          -1.624   0.301  -1.104  0.00  0.00     0.037 C 
BRANCH  19  21
ATOM     21  C3  <0> d          -3.040   2.199  -1.841  0.00  0.00     0.014 A 
ATOM     22  C2  <0> d          -4.285   2.095  -1.322  0.00  0.00     0.034 A 
ATOM     23  C1  <0> d          -5.059   0.819  -1.116  0.00  0.00     0.070 C 
ATOM     24  N2  <0> d          -4.714   3.341  -1.028  0.00  0.00    -0.282 N 
ATOM     25  N1  <0> d          -3.694   4.239  -1.370  0.00  0.00    -0.179 NA
ATOM     26  H1  <0> d          -5.574   3.574  -0.646  0.00  0.00     0.189 HD
ATOM     27  C4  <0> d          -2.693   3.554  -1.859  0.00  0.00     0.061 A 
ATOM     28  C5  <0> d          -1.390   4.125  -2.357  0.00  0.00     0.073 C 
ENDBRANCH  19  21
ENDBRANCH  16  19
ENDBRANCH   1  15
BRANCH  11  29
ATOM     29  C18 <0> d          -2.834  -5.532  -6.501  0.00  0.00     0.050 A 
ATOM     30  C21 <0> d          -3.676  -6.704  -6.750  0.00  0.00    -0.003 A 
ATOM     31  C20 <0> d          -3.361  -7.788  -5.909  0.00  0.00     0.016 A 
ATOM     32  C22 <0> d          -4.715  -6.891  -7.682  0.00  0.00     0.014 A 
ATOM     33  S1  <0> d          -2.041  -7.170  -4.901  0.00  0.00    -0.100 SA
ATOM     34  C25 <0> d          -4.034  -8.989  -5.986  0.00  0.00     0.019 A 
ATOM     35  C19 <0> d          -1.895  -5.619  -5.523  0.00  0.00     0.068 A 
ATOM     36  C24 <0> d          -5.056  -9.140  -6.903  0.00  0.00     0.001 A 
ATOM     37  C23 <0> d          -5.383  -8.088  -7.746  0.00  0.00     0.001 A 
ENDBRANCH  11  29
TORSDOF 4
