REMARK  5 active torsions:
REMARK  status: ('A' for Active; 'I' for Inactive)
REMARK    1  A    between atoms: N1_2  and  C3_4 
REMARK    2  A    between atoms: C3_4  and  C4_5 
REMARK    3  A    between atoms: C4_5  and  N2_6 
REMARK       I    between atoms: N2_6  and  C5_7 
REMARK    4  A    between atoms: C5_7  and  C6_9 
REMARK    5  A    between atoms: C7_11  and  C8_14 
ROOT
ATOM      1  C6  <0> d          -4.377  -4.389  -0.207  0.00  0.00     0.348 A 
ATOM      2  N3  <0> d          -4.983  -4.202   1.121  0.00  0.00    -0.337 N 
ATOM      3  C7  <0> d          -6.077  -3.371   0.948  0.00  0.00     0.163 A 
ATOM      4  N4  <0> d          -6.215  -3.032  -0.294  0.00  0.00    -0.112 NA
ATOM      5  O2  <0> d          -5.202  -3.618  -1.094  0.00  0.00    -0.218 OA
ATOM      6  H14 <0> d          -4.676  -4.588   1.956  0.00  0.00     0.164 HD
ENDROOT
BRANCH   1   7
ATOM      7  C5  <0> d          -2.964  -3.867  -0.218  0.00  0.00     0.269 C 
ATOM      8  N2  <0> d          -2.733  -2.544  -0.111  0.00  0.00    -0.356 N 
ATOM      9  H13 <0> d          -3.477  -1.927  -0.028  0.00  0.00     0.162 HD
ATOM     10  O1  <0> d          -2.034  -4.638  -0.323  0.00  0.00    -0.269 OA
BRANCH   8  11
ATOM     11  C4  <0> d          -1.358  -2.037  -0.122  0.00  0.00     0.150 C 
BRANCH  11  12
ATOM     12  C3  <0> d          -1.376  -0.512   0.012  0.00  0.00     0.253 C 
BRANCH  12  13
ATOM     13  N1  <0> d           0.002  -0.004   0.002  0.00  0.00    -0.077 N 
ATOM     14  C1  <0> d          -0.018   1.465   0.010  0.00  0.00     0.269 C 
ATOM     15  C2  <0> d           0.713  -0.491   1.192  0.00  0.00     0.269 C 
ATOM     16  H20 <0> d           0.474  -0.330  -0.828  0.00  0.00     0.279 HD
ENDBRANCH  12  13
ENDBRANCH  11  12
ENDBRANCH   8  11
ENDBRANCH   1   7
BRANCH   3  17
ATOM     17  C8  <0> d          -6.970  -2.930   2.037  0.00  0.00     0.012 C 
ATOM     18  C15 <0> d          -6.727  -3.374   3.417  0.00  0.00     0.013 C 
ATOM     19  C14 <0> d          -7.288  -2.781   4.474  0.00  0.00     0.006 C 
ATOM     20  C13 <0> d          -8.168  -1.586   4.265  0.00  0.00     0.163 C 
ATOM     21  C10 <0> d          -8.792  -1.700   2.885  0.00  0.00    -0.028 C 
ATOM     22  N5  <0> d          -9.303  -1.485   5.170  0.00  0.00    -0.288 NA
ATOM     23  C9  <0> d          -8.050  -2.097   1.763  0.00  0.00     0.025 C 
ATOM     24  C11 <0> d         -10.089  -1.391   3.060  0.00  0.00     0.028 C 
ATOM     25  C12 <0> d         -10.374  -1.343   4.444  0.00  0.00     0.112 C 
ENDBRANCH   3  17
TORSDOF 5
