REMARK  4 active torsions:
REMARK  status: ('A' for Active; 'I' for Inactive)
REMARK    1  A    between atoms: C5_6  and  C8_10 
REMARK    2  A    between atoms: C12_14  and  N3_16 
REMARK       I    between atoms: N3_16  and  C14_17 
REMARK    3  A    between atoms: C14_17  and  C15_19 
REMARK    4  A    between atoms: C16_20  and  C17_21 
ROOT
ATOM      1  C8  <0> d           3.627  -2.887  -1.203  0.00  0.00    -0.014 A 
ATOM      2  C9  <0> d           4.732  -2.416  -1.888  0.00  0.00     0.011 A 
ATOM      3  C10 <0> d           5.067  -2.951  -3.118  0.00  0.00     0.003 A 
ATOM      4  C11 <0> d           4.297  -3.958  -3.667  0.00  0.00     0.029 A 
ATOM      5  C12 <0> d           3.187  -4.434  -2.982  0.00  0.00     0.035 A 
ATOM      6  C13 <0> d           2.856  -3.897  -1.744  0.00  0.00     0.040 A 
ENDROOT
BRANCH   1   7
ATOM      7  C5  <0> d           3.266  -2.300   0.138  0.00  0.00     0.216 A 
ATOM      8  N1  <0> d           3.682  -0.893   0.201  0.00  0.00    -0.363 N 
ATOM      9  C4  <0> d           2.611  -0.178   0.391  0.00  0.00     0.056 A 
ATOM     10  H16 <0> d           4.588  -0.559   0.116  0.00  0.00     0.162 HD
ATOM     11  C3  <0> d           2.389   1.268   0.535  0.00  0.00     0.031 A 
ATOM     12  C6  <0> d           1.425  -1.074   0.463  0.00  0.00     0.056 A 
ATOM     13  C2  <0> d           1.137   1.732   0.727  0.00  0.00     0.002 A 
ATOM     14  C1  <0> d           0.017   0.885   0.795  0.00  0.00     0.002 A 
ATOM     15  C7  <0> d           0.110  -0.455   0.675  0.00  0.00     0.031 A 
ATOM     16  N2  <0> d           1.808  -2.309   0.316  0.00  0.00    -0.363 N 
ATOM     17  H17 <0> d           1.236  -3.092   0.322  0.00  0.00     0.162 HD
ENDBRANCH   1   7
BRANCH   5  18
ATOM     18  N3  <0> d           2.405  -5.452  -3.535  0.00  0.00    -0.324 N 
ATOM     19  C14 <0> d           2.981  -6.409  -4.290  0.00  0.00     0.245 C 
ATOM     20  O1  <0> d           4.193  -6.441  -4.412  0.00  0.00    -0.268 OA
ATOM     21  H10 <0> d           1.449  -5.471  -3.375  0.00  0.00     0.169 HD
BRANCH  19  22
ATOM     22  C15 <0> d           2.179  -7.375  -4.941  0.00  0.00     0.077 C 
ATOM     23  C16 <0> d           2.758  -8.338  -5.702  0.00  0.00     0.042 C 
BRANCH  23  24
ATOM     24  C17 <0> d           1.955  -9.305  -6.353  0.00  0.00     0.075 A 
ATOM     25  O2  <0> d           0.609  -9.384  -6.303  0.00  0.00    -0.323 OA
ATOM     26  C20 <0> d           0.196 -10.422  -7.043  0.00  0.00     0.142 A 
ATOM     27  C19 <0> d           1.273 -11.038  -7.579  0.00  0.00     0.027 A 
ATOM     28  C18 <0> d           2.409 -10.337  -7.148  0.00  0.00     0.039 A 
ENDBRANCH  23  24
ENDBRANCH  19  22
ENDBRANCH   5  18
TORSDOF 4
