REMARK  2 active torsions:
REMARK  status: ('A' for Active; 'I' for Inactive)
REMARK    1  A    between atoms: C5_5  and  C8_8 
REMARK    2  A    between atoms: C8_8  and  N1_9 
ROOT
ATOM      1  N1  <0> d           1.447  -4.746  -0.032  0.00  0.00    -0.249 N 
ATOM      2  C9  <0> d           2.190  -4.988  -1.120  0.00  0.00     0.136 A 
ATOM      3  C10 <0> d           3.428  -5.398  -0.696  0.00  0.00     0.030 A 
ATOM      4  C11 <0> d           3.421  -5.412   0.691  0.00  0.00     0.151 A 
ATOM      5  N2  <0> d           2.237  -5.017   1.097  0.00  0.00    -0.182 NA
ATOM      6  C12 <0> d           4.530  -5.738  -1.660  0.00  0.00     0.111 A 
ATOM      7  C13 <0> d           3.920  -6.227  -2.972  0.00  0.00     0.132 C 
ATOM      8  C14 <0> d           2.750  -5.372  -3.378  0.00  0.00     0.225 C 
ATOM      9  O1  <0> d           2.582  -5.128  -4.554  0.00  0.00    -0.273 OA
ATOM     10  N3  <0> d           1.883  -4.869  -2.475  0.00  0.00    -0.311 N 
ATOM     11  C15 <0> d           5.432  -4.567  -1.887  0.00  0.00    -0.006 A 
ATOM     12  C16 <0> d           5.188  -3.310  -2.398  0.00  0.00     0.011 A 
ATOM     13  C17 <0> d           6.270  -2.439  -2.475  0.00  0.00     0.002 A 
ATOM     14  C18 <0> d           7.529  -2.818  -2.058  0.00  0.00     0.026 A 
ATOM     15  C19 <0> d           7.782  -4.081  -1.542  0.00  0.00     0.061 A 
ATOM     16  C20 <0> d           6.705  -4.965  -1.460  0.00  0.00     0.064 A 
ATOM     17  N4  <0> d           6.670  -6.268  -0.994  0.00  0.00    -0.324 N 
ATOM     18  C21 <0> d           5.432  -6.801  -1.074  0.00  0.00     0.240 A 
ATOM     19  O2  <0> d           5.105  -7.920  -0.739  0.00  0.00    -0.272 OA
ATOM     20 Cl1  <0> d           9.373  -4.542  -1.020  0.00  0.00    -0.082 Cl
ATOM     21  H13 <0> d           1.065  -4.434  -2.762  0.00  0.00     0.170 HD
ATOM     22  H17 <0> d           7.443  -6.742  -0.650  0.00  0.00     0.169 HD
ENDROOT
BRANCH   1  23
ATOM     23  C8  <0> d           0.059  -4.275  -0.021  0.00  0.00     0.191 C 
BRANCH  23  24
ATOM     24  C5  <0> d           0.040  -2.768  -0.013  0.00  0.00    -0.038 A 
ATOM     25  C4  <0> d           0.025  -2.071  -1.206  0.00  0.00     0.009 A 
ATOM     26  C3  <0> d           0.006  -0.689  -1.199  0.00  0.00     0.007 A 
ATOM     27  C2  <0> d           0.002  -0.004   0.002  0.00  0.00    -0.062 A 
ATOM     28  C1  <0> d          -0.018   1.503   0.010  0.00  0.00     0.048 C 
ATOM     29  C7  <0> d           0.023  -0.702   1.195  0.00  0.00     0.007 A 
ATOM     30  C6  <0> d           0.037  -2.084   1.188  0.00  0.00     0.009 A 
ENDBRANCH  23  24
ENDBRANCH   1  23
TORSDOF 2
