REMARK  5 active torsions:
REMARK  status: ('A' for Active; 'I' for Inactive)
REMARK    1  A    between atoms: N1_7  and  C6_8 
REMARK    2  A    between atoms: C6_8  and  C7_9 
REMARK    3  A    between atoms: C7_9  and  C8_10 
REMARK    4  A    between atoms: C8_10  and  C9_11 
REMARK    5  A    between atoms: C8_10  and  N2_18 
ROOT
ATOM      1  C8  <0> d           4.126   0.278   2.661  0.00  0.00     0.254 C 
ENDROOT
BRANCH   1   2
ATOM      2  C7  <0> d           2.701  -0.278   2.606  0.00  0.00     0.070 C 
BRANCH   2   3
ATOM      3  C6  <0> d           2.081   0.042   1.245  0.00  0.00     0.276 C 
BRANCH   3   4
ATOM      4  N1  <0> d           0.713  -0.492   1.193  0.00  0.00     0.101 N 
ATOM      5  C2  <0> d           0.002  -0.004   0.002  0.00  0.00     0.173 C 
ATOM      6  C1  <0> d          -0.019   1.526   0.010  0.00  0.00     0.051 C 
ATOM      7  C3  <0> d          -1.434  -0.535   0.018  0.00  0.00     0.208 C 
ATOM      8  C15 <0> d           0.716  -0.498  -1.258  0.00  0.00     0.051 C 
ATOM      9  O1  <0> d          -1.408  -1.963   0.086  0.00  0.00    -0.387 OA
ATOM     10  C4  <0> d          -0.724  -2.473   1.234  0.00  0.00     0.198 C 
ATOM     11  C5  <0> d           0.719  -1.962   1.230  0.00  0.00     0.299 C 
ENDBRANCH   3   4
ENDBRANCH   2   3
ENDBRANCH   1   2
BRANCH   1  12
ATOM     12  C9  <0> d           4.780  -0.142   3.951  0.00  0.00    -0.004 A 
ATOM     13  C14 <0> d           5.400  -1.376   4.043  0.00  0.00     0.042 A 
ATOM     14  C13 <0> d           6.005  -1.759   5.227  0.00  0.00     0.024 A 
ATOM     15 Cl1  <0> d           5.425  -2.439   2.672  0.00  0.00    -0.084 Cl
ATOM     16  C12 <0> d           5.981  -0.914   6.320  0.00  0.00     0.002 A 
ATOM     17  C11 <0> d           5.356   0.317   6.230  0.00  0.00     0.001 A 
ATOM     18  C10 <0> d           4.756   0.702   5.046  0.00  0.00     0.011 A 
ENDBRANCH   1  12
BRANCH   1  19
ATOM     19  N2  <0> d           4.082   1.744   2.589  0.00  0.00     0.087 N 
ATOM     20  H19 <0> d           3.555   2.129   3.358  0.00  0.00     0.313 HD
ATOM     21  H23 <0> d           5.013   2.133   2.558  0.00  0.00     0.313 HD
ENDBRANCH   1  19
TORSDOF 5
