REMARK  5 active torsions:
REMARK  status: ('A' for Active; 'I' for Inactive)
REMARK    1  A    between atoms: C2_2  and  C3_3 
REMARK    2  A    between atoms: C3_3  and  N1_4 
REMARK    3  A    between atoms: N1_4  and  S1_6 
REMARK    4  A    between atoms: S1_6  and  C5_9 
REMARK    5  A    between atoms: C10_14  and  N2_15 
ROOT
ATOM      1  C1  <0> d           0.938  -0.348   3.478  0.00  0.00     0.027 C 
ATOM      2  C2  <0> d           0.355   0.789   2.637  0.00  0.00     0.107 C 
ATOM      3  C11 <0> d          -1.114   0.758   2.722  0.00  0.00     0.065 C 
ATOM      4  N3  <0> d          -2.248   0.734   2.788  0.00  0.00    -0.197 NA
ENDROOT
BRANCH   2   5
ATOM      5  C3  <0> d           0.785   0.617   1.179  0.00  0.00     0.153 C 
BRANCH   5   6
ATOM      6  N1  <0> d           2.236   0.790   1.074  0.00  0.00    -0.310 N 
ATOM      7  C4  <0> d           2.840   2.095   1.352  0.00  0.00     0.163 C 
BRANCH   6   8
ATOM      8  S1  <0> d           3.193  -0.490   0.640  0.00  0.00     0.262 S 
ATOM      9  O1  <0> d           4.427  -0.324   1.324  0.00  0.00    -0.200 OA
ATOM     10  O2  <0> d           2.396  -1.659   0.778  0.00  0.00    -0.200 OA
BRANCH   8  11
ATOM     11  C5  <0> d           3.543  -0.320  -1.079  0.00  0.00     0.105 A 
ATOM     12  C10 <0> d           2.530  -0.483  -2.014  0.00  0.00     0.050 A 
ATOM     13  C9  <0> d           2.809  -0.343  -3.368  0.00  0.00     0.049 A 
ATOM     14  C8  <0> d           4.095  -0.052  -3.780  0.00  0.00     0.013 A 
ATOM     15  C7  <0> d           5.104   0.104  -2.845  0.00  0.00     0.021 A 
ATOM     16 Br1  <0> d           4.479   0.132  -5.622  0.00  0.00    -0.051 Br
ATOM     17  C6  <0> d           4.827  -0.029  -1.497  0.00  0.00     0.029 A 
BRANCH  12  18
ATOM     18  N2  <0> d           1.232  -0.782  -1.595  0.00  0.00    -0.398 N 
ATOM     19  H13 <0> d           1.062  -1.012  -0.667  0.00  0.00     0.156 HD
ATOM     20  H14 <0> d           0.499  -0.761  -2.230  0.00  0.00     0.156 HD
ENDBRANCH  12  18
ENDBRANCH   8  11
ENDBRANCH   6   8
ENDBRANCH   5   6
ENDBRANCH   2   5
TORSDOF 5
