REMARK  4 active torsions:
REMARK  status: ('A' for Active; 'I' for Inactive)
REMARK    1  A    between atoms: C3_3  and  C6_8 
REMARK    2  A    between atoms: C6_8  and  N2_9 
REMARK    3  A    between atoms: N3_12  and  C11_15 
REMARK    4  A    between atoms: C16_20  and  O1_21 
ROOT
ATOM      1  N2  <0> d          -2.103   1.297  -3.657  0.00  0.00    -0.063 N 
ATOM      2  C7  <0> d          -0.727   1.810  -3.619  0.00  0.00     0.265 C 
ATOM      3  C8  <0> d           0.002   1.218  -2.410  0.00  0.00     0.300 C 
ATOM      4  N3  <0> d          -0.723   1.572  -1.182  0.00  0.00     0.099 N 
ATOM      5  C9  <0> d          -2.100   1.059  -1.220  0.00  0.00     0.300 C 
ATOM      6  C10 <0> d          -2.829   1.651  -2.429  0.00  0.00     0.265 C 
ATOM      7  H28 <0> d          -2.056   0.199  -3.718  0.00  0.00     0.280 HD
ENDROOT
BRANCH   1   8
ATOM      8  C6  <0> d          -2.814   1.783  -4.847  0.00  0.00     0.283 C 
BRANCH   8   9
ATOM      9  C3  <0> d          -4.124   1.051  -4.984  0.00  0.00     0.034 A 
ATOM     10  C2  <0> d          -5.346   1.358  -4.479  0.00  0.00     0.046 A 
ATOM     11  C1  <0> d          -5.546   2.594  -3.639  0.00  0.00     0.071 C 
ATOM     12  N1  <0> d          -6.353   0.553  -4.745  0.00  0.00    -0.250 NA
ATOM     13  C4  <0> d          -6.192  -0.530  -5.469  0.00  0.00     0.072 A 
ATOM     14  S1  <0> d          -4.499  -0.466  -5.850  0.00  0.00    -0.076 SA
ATOM     15  C5  <0> d          -7.213  -1.564  -5.867  0.00  0.00     0.078 C 
ENDBRANCH   8   9
ENDBRANCH   1   8
BRANCH   4  16
ATOM     16  C11 <0> d          -0.013   1.086   0.008  0.00  0.00     0.251 C 
ATOM     17  C16 <0> d           1.294   1.863   0.175  0.00  0.00     0.151 C 
ATOM     18  C15 <0> d           2.034   1.356   1.415  0.00  0.00     0.034 C 
ATOM     19  C14 <0> d           2.344  -0.133   1.250  0.00  0.00     0.003 C 
ATOM     20  C13 <0> d           1.037  -0.910   1.083  0.00  0.00     0.002 C 
ATOM     21  C12 <0> d           0.297  -0.404  -0.156  0.00  0.00     0.038 C 
BRANCH  17  22
ATOM     22  O1  <0> d           1.005   3.254   0.329  0.00  0.00    -0.393 OA
ATOM     23  H27 <0> d           1.825   3.975   0.462  0.00  0.00     0.210 HD
ENDBRANCH  17  22
ENDBRANCH   4  16
TORSDOF 4
