REMARK  4 active torsions:
REMARK  status: ('A' for Active; 'I' for Inactive)
REMARK       I    between atoms: N1_2  and  C2_3 
REMARK    1  A    between atoms: C2_3  and  C3_5 
REMARK    2  A    between atoms: C3_5  and  C4_6 
REMARK    3  A    between atoms: C4_6  and  N2_7 
REMARK       I    between atoms: N2_7  and  C5_8 
REMARK    4  A    between atoms: C5_8  and  C6_10 
ROOT
ATOM      1  N2  <0> d          -2.551  -4.195   0.004  0.00  0.00    -0.356 N 
ATOM      2  C5  <0> d          -3.709  -4.885   0.011  0.00  0.00     0.254 C 
ATOM      3  O2  <0> d          -4.770  -4.291   0.025  0.00  0.00    -0.268 OA
ATOM      4  H9  <0> d          -1.704  -4.668  -0.007  0.00  0.00     0.162 HD
ENDROOT
BRANCH   2   5
ATOM      5  C6  <0> d          -3.689  -6.359   0.003  0.00  0.00     0.061 A 
ATOM      6  C11 <0> d          -4.903  -7.091   0.011  0.00  0.00     0.082 A 
ATOM      7  C10 <0> d          -4.851  -8.506  -0.004  0.00  0.00    -0.006 A 
ATOM      8  N3  <0> d          -6.082  -6.469   0.025  0.00  0.00    -0.259 NA
ATOM      9  C9  <0> d          -3.607  -9.159  -0.013  0.00  0.00     0.014 A 
ATOM     10  C14 <0> d          -6.057  -9.233  -0.004  0.00  0.00     0.015 A 
ATOM     11  C8  <0> d          -2.454  -8.432  -0.014  0.00  0.00     0.002 A 
ATOM     12  C7  <0> d          -2.482  -7.043  -0.006  0.00  0.00     0.019 A 
ATOM     13  C13 <0> d          -7.230  -8.533   0.024  0.00  0.00     0.020 A 
ATOM     14  C12 <0> d          -7.209  -7.141   0.032  0.00  0.00     0.117 A 
ENDBRANCH   2   5
BRANCH   1  15
ATOM     15  C4  <0> d          -2.571  -2.730   0.012  0.00  0.00     0.132 C 
BRANCH  15  16
ATOM     16  C3  <0> d          -1.135  -2.201   0.001  0.00  0.00     0.122 C 
BRANCH  16  17
ATOM     17  C2  <0> d          -1.156  -0.694   0.009  0.00  0.00     0.218 C 
ATOM     18  N1  <0> d           0.002  -0.004   0.002  0.00  0.00    -0.365 N 
ATOM     19  C1  <0> d          -0.018   1.461   0.010  0.00  0.00     0.149 C 
ATOM     20  H4  <0> d           0.849  -0.478  -0.009  0.00  0.00     0.161 HD
ATOM     21  O1  <0> d          -2.214  -0.102   0.023  0.00  0.00    -0.274 OA
ENDBRANCH  16  17
ENDBRANCH  15  16
ENDBRANCH   1  15
TORSDOF 4
