REMARK  4 active torsions:
REMARK  status: ('A' for Active; 'I' for Inactive)
REMARK    1  A    between atoms: C2_2  and  C5_5 
REMARK    2  A    between atoms: C5_5  and  C6_6 
REMARK    3  A    between atoms: C6_6  and  C7_7 
REMARK    4  A    between atoms: C6_6  and  N1_14 
ROOT
ATOM      1  C6  <0> d           2.074  -0.074  -1.393  0.00  0.00     0.219 C 
ENDROOT
BRANCH   1   2
ATOM      2  C5  <0> d           0.803  -0.477  -2.143  0.00  0.00     0.046 C 
BRANCH   2   3
ATOM      3  C2  <0> d          -0.424  -0.039  -1.341  0.00  0.00    -0.049 C 
ATOM      4  C1  <0> d          -0.491   1.489  -1.305  0.00  0.00     0.014 C 
ATOM      5  C3  <0> d          -0.319  -0.579   0.087  0.00  0.00     0.014 C 
ATOM      6  C4  <0> d          -1.689  -0.590  -2.002  0.00  0.00     0.014 C 
ENDBRANCH   2   3
ENDBRANCH   1   2
BRANCH   1   7
ATOM      7  C7  <0> d           3.278  -0.621  -2.114  0.00  0.00    -0.002 A 
ATOM      8  C10 <0> d           3.644  -1.918  -1.958  0.00  0.00     0.061 A 
ATOM      9  S1  <0> d           5.085  -2.025  -3.006  0.00  0.00    -0.074 SA
ATOM     10 Br1  <0> d           2.836  -3.264  -0.903  0.00  0.00    -0.042 Br
ATOM     11  C9  <0> d           5.109  -0.333  -3.575  0.00  0.00     0.053 A 
ATOM     12  C8  <0> d           4.031   0.192  -2.942  0.00  0.00     0.037 A 
ATOM     13 Br2  <0> d           6.322   0.509  -4.757  0.00  0.00    -0.043 Br
ENDBRANCH   1   7
BRANCH   1  14
ATOM     14  N1  <0> d           2.163   1.391  -1.333  0.00  0.00    -0.071 N 
ATOM     15  H14 <0> d           1.726   1.789  -2.151  0.00  0.00     0.275 HD
ATOM     16  H15 <0> d           1.692   1.724  -0.505  0.00  0.00     0.275 HD
ATOM     17  H16 <0> d           3.133   1.668  -1.303  0.00  0.00     0.275 HD
ENDBRANCH   1  14
TORSDOF 4
