REMARK  3 active torsions:
REMARK  status: ('A' for Active; 'I' for Inactive)
REMARK    1  A    between atoms: C2_2  and  C10_13 
REMARK    2  A    between atoms: C10_13  and  C11_14 
REMARK    3  A    between atoms: C10_13  and  N1_20 
ROOT
ATOM      1  C1  <0> d          -0.017   1.380   0.010  0.00  0.00     0.050 A 
ATOM      2  C2  <0> d           1.176   2.082   0.002  0.00  0.00    -0.005 A 
ATOM      3  C3  <0> d           2.382   1.406  -0.014  0.00  0.00     0.022 A 
ATOM      4  C4  <0> d           2.404   0.021  -0.022  0.00  0.00     0.059 A 
ATOM      5  C5  <0> d           1.212  -0.683  -0.013  0.00  0.00     0.103 A 
ATOM      6  C6  <0> d           0.002  -0.004   0.002  0.00  0.00     0.102 A 
ATOM      7  O1  <0> d          -1.167  -0.709   0.010  0.00  0.00    -0.348 OA
ATOM      8  C7  <0> d          -1.468  -1.433  -1.185  0.00  0.00     0.178 C 
ATOM      9  C8  <0> d          -0.780  -2.789  -1.182  0.00  0.00     0.053 C 
ATOM     10  C9  <0> d           0.736  -2.669  -1.212  0.00  0.00     0.178 C 
ATOM     11  O2  <0> d           1.220  -2.048  -0.020  0.00  0.00    -0.348 OA
ATOM     12 Br1  <0> d           4.006   2.374  -0.026  0.00  0.00    -0.050 Br
ENDROOT
BRANCH   2  13
ATOM     13  C10 <0> d           1.160   3.589   0.011  0.00  0.00     0.248 C 
BRANCH  13  14
ATOM     14  C11 <0> d           1.266   4.109  -1.425  0.00  0.00     0.180 C 
ATOM     15  O4  <0> d           0.158   3.627  -2.191  0.00  0.00    -0.379 OA
ATOM     16  C14 <0> d           0.144   4.104  -3.540  0.00  0.00     0.194 C 
ATOM     17  C13 <0> d           0.124   5.635  -3.533  0.00  0.00     0.193 C 
ATOM     18  O3  <0> d           1.234   6.115  -2.767  0.00  0.00    -0.386 OA
ATOM     19  C12 <0> d           1.247   5.640  -1.418  0.00  0.00     0.201 C 
ENDBRANCH  13  14
BRANCH  13  20
ATOM     20  N1  <0> d          -0.095   4.062   0.611  0.00  0.00    -0.068 N 
ATOM     21  H17 <0> d          -0.165   3.720   1.557  0.00  0.00     0.275 HD
ATOM     22  H18 <0> d          -0.106   5.071   0.616  0.00  0.00     0.275 HD
ATOM     23  H19 <0> d          -0.876   3.721   0.071  0.00  0.00     0.275 HD
ENDBRANCH  13  20
ENDBRANCH   2  13
TORSDOF 3
