REMARK  5 active torsions:
REMARK  status: ('A' for Active; 'I' for Inactive)
REMARK    1  A    between atoms: C2_2  and  C3_3 
REMARK    2  A    between atoms: C2_2  and  N2_9 
REMARK       I    between atoms: N2_9  and  C8_10 
REMARK    3  A    between atoms: C8_10  and  C9_12 
REMARK       I    between atoms: C9_12  and  N3_14 
REMARK    4  A    between atoms: N3_14  and  C10_15 
REMARK    5  A    between atoms: C12_17  and  N4_22 
ROOT
ATOM      1  C9  <0> d           0.784  -1.157   3.553  0.00  0.00     0.314 C 
ATOM      2  O2  <0> d           1.964  -1.437   3.490  0.00  0.00    -0.262 OA
ATOM      3  N3  <0> d           0.120  -1.294   4.718  0.00  0.00    -0.317 N 
ATOM      4  H10 <0> d          -0.805  -1.011   4.785  0.00  0.00     0.169 HD
ENDROOT
BRANCH   3   5
ATOM      5  C10 <0> d           0.765  -1.844   5.829  0.00  0.00     0.059 A 
ATOM      6  C15 <0> d           0.053  -2.629   6.729  0.00  0.00     0.060 A 
ATOM      7  C14 <0> d           0.692  -3.178   7.825  0.00  0.00     0.028 A 
ATOM      8 Cl1  <0> d          -1.638  -2.926   6.472  0.00  0.00    -0.082 Cl
ATOM      9  C13 <0> d           2.036  -2.938   8.036  0.00  0.00     0.031 A 
ATOM     10  C12 <0> d           2.752  -2.150   7.143  0.00  0.00     0.039 A 
ATOM     11  C11 <0> d           2.115  -1.602   6.039  0.00  0.00     0.061 A 
BRANCH  10  12
ATOM     12  N4  <0> d           4.114  -1.909   7.358  0.00  0.00    -0.318 N 
ATOM     13  C19 <0> d           4.841  -2.481   8.334  0.00  0.00     0.224 C 
ATOM     14  C18 <0> d           6.270  -1.988   8.274  0.00  0.00     0.105 C 
ATOM     15  O3  <0> d           4.413  -3.277   9.142  0.00  0.00    -0.273 OA
ATOM     16  C17 <0> d           6.196  -0.720   7.393  0.00  0.00     0.029 C 
ATOM     17  C16 <0> d           4.930  -0.995   6.551  0.00  0.00     0.133 C 
ENDBRANCH  10  12
ENDBRANCH   3   5
BRANCH   1  18
ATOM     18  C8  <0> d           0.069  -0.661   2.339  0.00  0.00     0.310 C 
ATOM     19  N2  <0> d           0.733  -0.524   1.175  0.00  0.00    -0.343 N 
ATOM     20  H9  <0> d           1.675  -0.747   1.124  0.00  0.00     0.163 HD
ATOM     21  O1  <0> d          -1.110  -0.381   2.402  0.00  0.00    -0.262 OA
BRANCH  19  22
ATOM     22  C2  <0> d           0.031  -0.037  -0.016  0.00  0.00     0.133 C 
ATOM     23  C1  <0> d           0.020   1.493  -0.011  0.00  0.00     0.039 C 
BRANCH  22  24
ATOM     24  C3  <0> d           0.737  -0.530  -1.252  0.00  0.00     0.056 A 
ATOM     25  N1  <0> d           2.019  -0.833  -1.194  0.00  0.00    -0.263 NA
ATOM     26  C7  <0> d           2.677  -1.274  -2.248  0.00  0.00     0.117 A 
ATOM     27  C6  <0> d           2.041  -1.424  -3.466  0.00  0.00     0.019 A 
ATOM     28  C5  <0> d           0.694  -1.111  -3.568  0.00  0.00     0.003 A 
ATOM     29  C4  <0> d           0.035  -0.656  -2.436  0.00  0.00     0.029 A 
ENDBRANCH  22  24
ENDBRANCH  19  22
ENDBRANCH   1  18
TORSDOF 5
