REMARK  9 active torsions:
REMARK  status: ('A' for Active; 'I' for Inactive)
REMARK    1  A    between atoms: C2_2  and  N1_4 
REMARK    2  A    between atoms: N1_4  and  C4_5 
REMARK    3  A    between atoms: N1_4  and  C13_19 
REMARK    4  A    between atoms: C4_5  and  C5_6 
REMARK    5  A    between atoms: C5_6  and  N2_7 
REMARK       I    between atoms: N2_7  and  C6_8 
REMARK    6  A    between atoms: C6_8  and  C7_10 
REMARK    7  A    between atoms: C7_10  and  C12_15 
REMARK    8  A    between atoms: C12_15  and  N4_18 
REMARK    9  A    between atoms: N3_16  and  O2_17 
ROOT
ATOM      1  N2  <0> d          -3.046   2.020  -2.233  0.00  0.00    -0.358 N 
ATOM      2  C6  <0> d          -3.290   3.334  -2.407  0.00  0.00     0.234 C 
ATOM      3  O1  <0> d          -2.776   4.149  -1.670  0.00  0.00    -0.272 OA
ATOM      4  H12 <0> d          -3.397   1.374  -2.865  0.00  0.00     0.162 HD
ENDROOT
BRANCH   2   5
ATOM      5  C7  <0> d          -4.201   3.791  -3.516  0.00  0.00     0.103 C 
ATOM      6  C11 <0> d          -3.707   3.240  -4.865  0.00  0.00     0.027 C 
ATOM      7  C10 <0> d          -3.389   4.463  -5.751  0.00  0.00     0.002 C 
ATOM      8  C9  <0> d          -3.122   5.605  -4.739  0.00  0.00     0.002 C 
ATOM      9  C8  <0> d          -4.166   5.329  -3.629  0.00  0.00     0.027 C 
BRANCH   5  10
ATOM     10  C12 <0> d          -5.609   3.324  -3.252  0.00  0.00     0.143 C 
ATOM     11  N3  <0> d          -6.172   2.482  -4.055  0.00  0.00    -0.122 NA
BRANCH  11  12
ATOM     12  O2  <0> d          -7.495   2.043  -3.807  0.00  0.00    -0.265 OA
ATOM     13  H21 <0> d          -7.830   1.415  -4.461  0.00  0.00     0.247 HD
ENDBRANCH  11  12
BRANCH  10  14
ATOM     14  N4  <0> d          -6.297   3.795  -2.156  0.00  0.00    -0.385 N 
ATOM     15  H22 <0> d          -5.903   4.481  -1.594  0.00  0.00     0.157 HD
ATOM     16  H23 <0> d          -7.175   3.440  -1.945  0.00  0.00     0.157 HD
ENDBRANCH  10  14
ENDBRANCH   5  10
ENDBRANCH   2   5
BRANCH   1  17
ATOM     17  C5  <0> d          -2.249   1.567  -1.090  0.00  0.00     0.150 C 
BRANCH  17  18
ATOM     18  C4  <0> d          -2.123   0.043  -1.127  0.00  0.00     0.255 C 
BRANCH  18  19
ATOM     19  N1  <0> d          -1.456  -0.423   0.095  0.00  0.00    -0.062 N 
ATOM     20  H31 <0> d          -1.938  -0.058   0.902  0.00  0.00     0.280 HD
BRANCH  19  21
ATOM     21  C2  <0> d          -0.064   0.047   0.103  0.00  0.00     0.180 C 
ATOM     22  C1  <0> d           0.431   0.198  -1.337  0.00  0.00     0.039 C 
ATOM     23  C3  <0> d           0.013   1.400   0.813  0.00  0.00     0.039 C 
ENDBRANCH  19  21
BRANCH  19  24
ATOM     24  C13 <0> d          -1.476  -1.892   0.134  0.00  0.00     0.180 C 
ATOM     25  C14 <0> d          -0.893  -2.374   1.464  0.00  0.00     0.039 C 
ATOM     26  C15 <0> d          -2.918  -2.385   0.001  0.00  0.00     0.039 C 
ENDBRANCH  19  24
ENDBRANCH  18  19
ENDBRANCH  17  18
ENDBRANCH   1  17
TORSDOF 9
