REMARK  7 active torsions:
REMARK  status: ('A' for Active; 'I' for Inactive)
REMARK    1  A    between atoms: C6_8  and  S2_13 
REMARK    2  A    between atoms: S2_13  and  C10_16 
REMARK    3  A    between atoms: C10_16  and  C11_17 
REMARK    4  A    between atoms: C11_17  and  C12_18 
REMARK       I    between atoms: C12_18  and  N2_20 
REMARK    5  A    between atoms: N2_20  and  C13_21 
REMARK    6  A    between atoms: C15_23  and  O6_29 
REMARK    7  A    between atoms: C17_25  and  O5_27 
ROOT
ATOM      1  S2  <0> d           6.125   6.654  -0.474  0.00  0.00     0.176 S 
ATOM      2  O2  <0> d           6.867   6.555   0.734  0.00  0.00    -0.223 OA
ATOM      3  O3  <0> d           6.739   6.380  -1.726  0.00  0.00    -0.223 OA
ENDROOT
BRANCH   1   4
ATOM      4  C6  <0> d           5.646   8.347  -0.569  0.00  0.00     0.061 A 
ATOM      5  C5  <0> d           5.521   9.090   0.588  0.00  0.00     0.054 A 
ATOM      6  C4  <0> d           5.142  10.427   0.524  0.00  0.00     0.053 A 
ATOM      7  N1  <0> d           5.026  11.163   1.700  0.00  0.00    -0.325 N 
ATOM      8  C9  <0> d           4.891  10.999  -0.724  0.00  0.00     0.028 A 
ATOM      9  C3  <0> d           4.320  12.278   1.864  0.00  0.00     0.236 C 
ATOM     10  H5  <0> d           5.590  10.739   2.544  0.00  0.00     0.169 HD
ATOM     11  C2  <0> d           3.527  12.932   0.766  0.00  0.00     0.141 C 
ATOM     12  O1  <0> d           4.316  12.797   2.961  0.00  0.00    -0.272 OA
ATOM     13  C1  <0> d           3.388  14.428   1.054  0.00  0.00     0.031 C 
ATOM     14  S1  <0> d           4.404  12.693  -0.810  0.00  0.00    -0.114 SA
ATOM     15  C8  <0> d           5.020  10.249  -1.881  0.00  0.00     0.022 A 
ATOM     16  C7  <0> d           5.402   8.923  -1.803  0.00  0.00     0.025 A 
ENDBRANCH   1   4
BRANCH   1  17
ATOM     17  C10 <0> d           4.568   5.736  -0.328  0.00  0.00     0.155 C 
BRANCH  17  18
ATOM     18  C11 <0> d           4.865   4.238  -0.237  0.00  0.00     0.118 C 
BRANCH  18  19
ATOM     19  C12 <0> d           3.571   3.475  -0.115  0.00  0.00     0.223 C 
ATOM     20  O4  <0> d           2.515   4.071  -0.103  0.00  0.00    -0.273 OA
ATOM     21  N2  <0> d           3.588   2.131  -0.020  0.00  0.00    -0.327 N 
ATOM     22  H13 <0> d           4.546   1.596   0.056  0.00  0.00     0.169 HD
BRANCH  21  23
ATOM     23  C13 <0> d           2.386   1.414  -0.019  0.00  0.00     0.040 A 
ATOM     24  C18 <0> d           1.304   1.873  -0.758  0.00  0.00     0.066 A 
ATOM     25  C17 <0> d           0.113   1.162  -0.757  0.00  0.00     0.073 A 
ATOM     26  C16 <0> d           0.003  -0.006  -0.017  0.00  0.00     0.073 A 
ATOM     27  C15 <0> d           1.084  -0.464   0.721  0.00  0.00     0.073 A 
ATOM     28  C14 <0> d           2.275   0.245   0.721  0.00  0.00     0.066 A 
BRANCH  25  29
ATOM     29  O5  <0> d          -0.946   1.610  -1.480  0.00  0.00    -0.356 OA
ATOM     30  C19 <0> d          -2.141   0.829  -1.433  0.00  0.00     0.210 C 
ENDBRANCH  25  29
BRANCH  27  31
ATOM     31  O6  <0> d           0.973  -1.606   1.450  0.00  0.00    -0.356 OA
ATOM     32  C20 <0> d          -0.285  -2.283   1.409  0.00  0.00     0.210 C 
ENDBRANCH  27  31
ENDBRANCH  21  23
ENDBRANCH  18  19
ENDBRANCH  17  18
ENDBRANCH   1  17
TORSDOF 7
