REMARK  3 active torsions:
REMARK  status: ('A' for Active; 'I' for Inactive)
REMARK    1  A    between atoms: C3_3  and  N5_24 
REMARK    2  A    between atoms: C9_10  and  N2_11 
REMARK       I    between atoms: N2_11  and  C10_12 
REMARK    3  A    between atoms: C10_12  and  C11_14 
ROOT
ATOM      1  C1  <0> d           0.071   1.216  -0.489  0.00  0.00     0.033 A 
ATOM      2  C2  <0> d           1.246   1.960  -0.520  0.00  0.00     0.032 A 
ATOM      3  C3  <0> d           2.374   1.530   0.146  0.00  0.00     0.041 A 
ATOM      4  C4  <0> d           2.336   0.323   0.868  0.00  0.00     0.006 A 
ATOM      5  C5  <0> d           3.453  -0.166   1.568  0.00  0.00     0.034 A 
ATOM      6  C6  <0> d           3.338  -1.342   2.244  0.00  0.00     0.117 A 
ATOM      7  N1  <0> d           2.206  -2.033   2.258  0.00  0.00    -0.272 NA
ATOM      8  C7  <0> d           1.125  -1.637   1.628  0.00  0.00     0.130 A 
ATOM      9  C8  <0> d           1.138  -0.437   0.901  0.00  0.00     0.021 A 
ATOM     10  C9  <0> d           0.003   0.029   0.209  0.00  0.00     0.047 A 
ENDROOT
BRANCH  10  11
ATOM     11  N2  <0> d          -1.185  -0.707   0.231  0.00  0.00    -0.322 N 
ATOM     12  C10 <0> d          -2.371  -0.075   0.126  0.00  0.00     0.263 C 
ATOM     13  O1  <0> d          -2.406   1.126  -0.067  0.00  0.00    -0.267 OA
ATOM     14  H6  <0> d          -1.156  -1.672   0.321  0.00  0.00     0.169 HD
BRANCH  12  15
ATOM     15  C11 <0> d          -3.621  -0.835   0.244  0.00  0.00     0.117 A 
ATOM     16  C14 <0> d          -3.597  -2.247   0.338  0.00  0.00     0.266 A 
ATOM     17  N4  <0> d          -4.771  -2.943   0.429  0.00  0.00    -0.291 N 
ATOM     18  O2  <0> d          -2.533  -2.840   0.342  0.00  0.00    -0.267 OA
ATOM     19  C13 <0> d          -5.925  -2.213   0.470  0.00  0.00     0.171 A 
ATOM     20  C15 <0> d          -4.888  -4.405   0.461  0.00  0.00     0.145 C 
ATOM     21  N3  <0> d          -5.956  -0.899   0.379  0.00  0.00    -0.235 NA
ATOM     22  S1  <0> d          -7.251  -3.390   0.666  0.00  0.00    -0.090 SA
ATOM     23  C12 <0> d          -4.852  -0.178   0.261  0.00  0.00     0.142 A 
ATOM     24  C16 <0> d          -6.230  -4.867   1.073  0.00  0.00     0.103 C 
ENDBRANCH  12  15
ENDBRANCH  10  11
BRANCH   3  25
ATOM     25  N5  <0> d           3.547   2.288   0.105  0.00  0.00    -0.380 N 
ATOM     26  C21 <0> d           3.806   3.323   1.115  0.00  0.00     0.123 C 
ATOM     27  C20 <0> d           4.109   4.643   0.409  0.00  0.00     0.020 C 
ATOM     28  C19 <0> d           5.254   4.435  -0.586  0.00  0.00     0.003 C 
ATOM     29  C18 <0> d           4.836   3.407  -1.639  0.00  0.00     0.020 C 
ATOM     30  C17 <0> d           4.543   2.069  -0.953  0.00  0.00     0.123 C 
ENDBRANCH   3  25
TORSDOF 3
