REMARK  3 active torsions:
REMARK  status: ('A' for Active; 'I' for Inactive)
REMARK    1  A    between atoms: N1_2  and  S1_3 
REMARK    2  A    between atoms: S1_3  and  C2_6 
REMARK       I    between atoms: N2_14  and  C10_15 
REMARK    3  A    between atoms: C10_15  and  C11_17 
ROOT
ATOM      1  C2  <0> d           2.438  -0.437  -1.202  0.00  0.00     0.080 A 
ATOM      2  C3  <0> d           2.928   0.656  -1.893  0.00  0.00     0.027 A 
ATOM      3  C4  <0> d           4.273   0.955  -1.856  0.00  0.00     0.032 A 
ATOM      4  C5  <0> d           5.152   0.157  -1.121  0.00  0.00     0.043 A 
ATOM      5  C6  <0> d           4.651  -0.936  -0.431  0.00  0.00    -0.028 A 
ATOM      6  C7  <0> d           3.301  -1.228  -0.467  0.00  0.00     0.034 A 
ATOM      7  C8  <0> d           5.797  -1.624   0.276  0.00  0.00     0.061 A 
ATOM      8  C9  <0> d           7.035  -0.790  -0.091  0.00  0.00     0.137 A 
ATOM      9  N2  <0> d           6.534   0.283  -0.953  0.00  0.00    -0.313 N 
ATOM     10  C10 <0> d           7.294   1.250  -1.504  0.00  0.00     0.260 C 
ATOM     11  O3  <0> d           6.781   2.099  -2.209  0.00  0.00    -0.267 OA
ENDROOT
BRANCH  10  12
ATOM     12  C11 <0> d           8.746   1.279  -1.254  0.00  0.00     0.056 A 
ATOM     13  C14 <0> d           9.469   0.407  -0.493  0.00  0.00     0.158 A 
ATOM     14  O4  <0> d          10.751   0.781  -0.527  0.00  0.00    -0.334 OA
ATOM     15  C13 <0> d          10.909   1.882  -1.279  0.00  0.00     0.142 A 
ATOM     16  C12 <0> d           9.717   2.256  -1.766  0.00  0.00     0.043 A 
ENDBRANCH  10  12
BRANCH   1  17
ATOM     17  S1  <0> d           0.718  -0.816  -1.251  0.00  0.00     0.258 S 
ATOM     18  O1  <0> d           0.599  -2.201  -0.959  0.00  0.00    -0.201 OA
ATOM     19  O2  <0> d           0.211  -0.243  -2.449  0.00  0.00    -0.201 OA
BRANCH  17  20
ATOM     20  N1  <0> d           0.002  -0.004   0.002  0.00  0.00    -0.320 N 
ATOM     21  C1  <0> d          -0.018   1.461   0.010  0.00  0.00     0.159 C 
ATOM     22  H4  <0> d          -0.404  -0.499   0.731  0.00  0.00     0.171 HD
ENDBRANCH  17  20
ENDBRANCH   1  17
TORSDOF 3
