REMARK  7 active torsions:
REMARK  status: ('A' for Active; 'I' for Inactive)
REMARK    1  A    between atoms: C5_5  and  C8_8 
REMARK    2  A    between atoms: C12_12  and  O3_32 
REMARK    3  A    between atoms: C17_18  and  N1_19 
REMARK    4  A    between atoms: N2_20  and  C19_23 
REMARK    5  A    between atoms: C19_23  and  C20_24 
REMARK    6  A    between atoms: C20_24  and  C21_25 
REMARK    7  A    between atoms: C21_25  and  N4_26 
ROOT
ATOM      1  C8  <0> d           0.059  -4.275  -0.021  0.00  0.00     0.095 C 
ATOM      2  C9  <0> d          -1.165  -4.793   0.685  0.00  0.00    -0.011 A 
ATOM      3  C10 <0> d          -2.385  -4.769   0.029  0.00  0.00     0.014 A 
ATOM      4  C11 <0> d          -3.522  -5.238   0.656  0.00  0.00     0.037 A 
ATOM      5  C12 <0> d          -3.445  -5.736   1.949  0.00  0.00     0.068 A 
ATOM      6  C13 <0> d          -2.227  -5.762   2.607  0.00  0.00     0.074 A 
ATOM      7  C14 <0> d          -1.083  -5.289   1.976  0.00  0.00     0.087 A 
ATOM      8  O1  <0> d           0.099  -5.324   2.639  0.00  0.00    -0.291 OA
ATOM      9  C15 <0> d           1.261  -5.258   1.956  0.00  0.00     0.182 A 
ATOM     10  C16 <0> d           1.302  -4.760   0.669  0.00  0.00     0.052 A 
ATOM     11  C17 <0> d           2.530  -4.714   0.016  0.00  0.00     0.113 A 
ATOM     12  N2  <0> d           3.614  -5.151   0.656  0.00  0.00    -0.327 N 
ATOM     13  C18 <0> d           3.529  -5.617   1.884  0.00  0.00     0.214 A 
ATOM     14  N3  <0> d           2.391  -5.675   2.524  0.00  0.00    -0.219 NA
ENDROOT
BRANCH  12  15
ATOM     15  C19 <0> d           4.916  -5.111  -0.015  0.00  0.00     0.133 C 
BRANCH  15  16
ATOM     16  C20 <0> d           5.541  -3.727   0.166  0.00  0.00     0.050 C 
BRANCH  16  17
ATOM     17  C21 <0> d           6.901  -3.685  -0.535  0.00  0.00     0.274 C 
BRANCH  17  18
ATOM     18  N4  <0> d           7.501  -2.356  -0.361  0.00  0.00     0.092 N 
ATOM     19  C25 <0> d           8.901  -2.347  -0.811  0.00  0.00     0.298 C 
ATOM     20  C24 <0> d           9.504  -0.963  -0.557  0.00  0.00     0.198 C 
ATOM     21  O2  <0> d           8.714   0.025  -1.224  0.00  0.00    -0.388 OA
ATOM     22  C23 <0> d           7.346   0.045  -0.809  0.00  0.00     0.198 C 
ATOM     23  C22 <0> d           6.721  -1.329  -1.065  0.00  0.00     0.298 C 
ENDBRANCH  17  18
ENDBRANCH  16  17
ENDBRANCH  15  16
ENDBRANCH  12  15
BRANCH  11  24
ATOM     24  N1  <0> d           2.624  -4.223  -1.277  0.00  0.00    -0.385 N 
ATOM     25  H12 <0> d           1.829  -3.907  -1.734  0.00  0.00     0.157 HD
ATOM     26  H29 <0> d           3.484  -4.196  -1.724  0.00  0.00     0.157 HD
ENDBRANCH  11  24
BRANCH   1  27
ATOM     27  C5  <0> d           0.040  -2.768  -0.013  0.00  0.00    -0.045 A 
ATOM     28  C4  <0> d           0.025  -2.071  -1.206  0.00  0.00     0.009 A 
ATOM     29  C3  <0> d           0.006  -0.689  -1.199  0.00  0.00     0.007 A 
ATOM     30  C2  <0> d           0.002  -0.004   0.002  0.00  0.00    -0.062 A 
ATOM     31  C1  <0> d          -0.018   1.503   0.010  0.00  0.00     0.048 C 
ATOM     32  C7  <0> d           0.023  -0.702   1.195  0.00  0.00     0.007 A 
ATOM     33  C6  <0> d           0.037  -2.084   1.188  0.00  0.00     0.009 A 
ENDBRANCH   1  27
BRANCH   5  34
ATOM     34  O3  <0> d          -4.563  -6.197   2.569  0.00  0.00    -0.361 OA
ATOM     35  H28 <0> d          -4.731  -7.139   2.427  0.00  0.00     0.217 HD
ENDBRANCH   5  34
TORSDOF 7
