REMARK  6 active torsions:
REMARK  status: ('A' for Active; 'I' for Inactive)
REMARK    1  A    between atoms: C3_4  and  N3_9 
REMARK    2  A    between atoms: N3_9  and  C6_10 
REMARK    3  A    between atoms: C6_10  and  C7_11 
REMARK    4  A    between atoms: C7_11  and  C8_12 
REMARK    5  A    between atoms: C7_11  and  O1_20 
REMARK    6  A    between atoms: C8_12  and  N4_13 
ROOT
ATOM      1  C7  <0> d           0.045  -4.568  -3.907  0.00  0.00     0.161 C 
ENDROOT
BRANCH   1   2
ATOM      2  C6  <0> d           0.046  -4.094  -2.452  0.00  0.00     0.154 C 
BRANCH   2   3
ATOM      3  N3  <0> d           0.026  -2.630  -2.416  0.00  0.00    -0.372 N 
ATOM      4  H6  <0> d           0.015  -2.124  -3.243  0.00  0.00     0.161 HD
BRANCH   3   5
ATOM      5  C3  <0> d           0.024  -1.967  -1.199  0.00  0.00     0.128 A 
ATOM      6  N1  <0> d           0.005  -0.638  -1.153  0.00  0.00    -0.217 NA
ATOM      7  C2  <0> d           0.002  -0.004   0.002  0.00  0.00     0.126 A 
ATOM      8  C1  <0> d          -0.018   1.503   0.010  0.00  0.00     0.093 C 
ATOM      9  N2  <0> d           0.022  -0.650   1.150  0.00  0.00    -0.222 NA
ATOM     10  C5  <0> d           0.035  -1.977   1.187  0.00  0.00     0.131 A 
ATOM     11  C4  <0> d           0.039  -2.684  -0.001  0.00  0.00     0.094 A 
ATOM     12 Cl1  <0> d           0.055  -2.813   2.708  0.00  0.00    -0.062 Cl
ENDBRANCH   3   5
ENDBRANCH   2   3
ENDBRANCH   1   2
BRANCH   1  13
ATOM     13  C8  <0> d           0.067  -6.097  -3.945  0.00  0.00     0.268 C 
BRANCH  13  14
ATOM     14  N4  <0> d           0.186  -6.551  -5.338  0.00  0.00    -0.069 N 
ATOM     15  C13 <0> d           0.086  -8.014  -5.384  0.00  0.00     0.235 C 
ATOM     16  C12 <0> d           0.129  -8.486  -6.839  0.00  0.00     0.032 C 
ATOM     17  C11 <0> d           1.449  -8.042  -7.476  0.00  0.00    -0.015 C 
ATOM     18  C10 <0> d           1.577  -6.521  -7.355  0.00  0.00     0.032 C 
ATOM     19  C14 <0> d           1.465  -8.441  -8.953  0.00  0.00     0.010 C 
ATOM     20  C9  <0> d           1.481  -6.122  -5.880  0.00  0.00     0.235 C 
ATOM     21  H24 <0> d          -0.557  -6.146  -5.887  0.00  0.00     0.280 HD
ENDBRANCH  13  14
ENDBRANCH   1  13
BRANCH   1  22
ATOM     22  O1  <0> d          -1.132  -4.091  -4.562  0.00  0.00    -0.392 OA
ATOM     23  H23 <0> d          -1.956  -4.398  -4.162  0.00  0.00     0.210 HD
ENDBRANCH   1  22
TORSDOF 6
