REMARK  5 active torsions:
REMARK  status: ('A' for Active; 'I' for Inactive)
REMARK    1  A    between atoms: C6_6  and  O3_11 
REMARK    2  A    between atoms: C7_7  and  N1_8 
REMARK    3  A    between atoms: O3_11  and  C8_12 
REMARK    4  A    between atoms: C11_15  and  C14_19 
REMARK    5  A    between atoms: C14_19  and  N2_21 
ROOT
ATOM      1  C8  <0> d           0.075  -4.125   2.197  0.00  0.00     0.093 A 
ATOM      2  C9  <0> d           0.141  -4.672   0.924  0.00  0.00     0.039 A 
ATOM      3  C10 <0> d           0.166  -6.043   0.763  0.00  0.00     0.012 A 
ATOM      4  C11 <0> d           0.125  -6.872   1.869  0.00  0.00    -0.027 A 
ATOM      5  C12 <0> d           0.059  -6.330   3.139  0.00  0.00     0.031 A 
ATOM      6  C13 <0> d           0.040  -4.958   3.307  0.00  0.00     0.045 A 
ATOM      7 Br1  <0> d          -0.042  -4.218   5.045  0.00  0.00    -0.048 Br
ENDROOT
BRANCH   1   8
ATOM      8  O3  <0> d           0.050  -2.776   2.358  0.00  0.00    -0.307 OA
BRANCH   8   9
ATOM      9  C6  <0> d           1.230  -2.137   2.573  0.00  0.00     0.109 A 
ATOM     10  C5  <0> d           2.423  -2.843   2.513  0.00  0.00     0.040 A 
ATOM     11  C4  <0> d           3.622  -2.191   2.732  0.00  0.00     0.003 A 
ATOM     12  C3  <0> d           3.633  -0.837   3.010  0.00  0.00     0.009 A 
ATOM     13  C2  <0> d           2.446  -0.131   3.070  0.00  0.00    -0.026 A 
ATOM     14  C1  <0> d           2.462   1.345   3.373  0.00  0.00     0.050 C 
ATOM     15  C7  <0> d           1.244  -0.779   2.858  0.00  0.00     0.142 A 
BRANCH  15  16
ATOM     16  N1  <0> d          -0.027  -0.024   2.928  0.00  0.00    -0.112 N 
ATOM     17  O1  <0> d          -0.478   0.494   1.933  0.00  0.00    -0.532 OA
ATOM     18  O2  <0> d          -0.614   0.075   3.981  0.00  0.00    -0.532 OA
ENDBRANCH  15  16
ENDBRANCH   8   9
ENDBRANCH   1   8
BRANCH   4  19
ATOM     19  C14 <0> d           0.152  -8.368   1.690  0.00  0.00     0.212 C 
ATOM     20  C15 <0> d           1.569  -8.886   1.944  0.00  0.00     0.045 C 
BRANCH  19  21
ATOM     21  N2  <0> d          -0.775  -8.992   2.642  0.00  0.00    -0.071 N 
ATOM     22  H14 <0> d          -1.710  -8.650   2.475  0.00  0.00     0.275 HD
ATOM     23  H15 <0> d          -0.757  -9.994   2.522  0.00  0.00     0.275 HD
ATOM     24  H16 <0> d          -0.496  -8.761   3.584  0.00  0.00     0.275 HD
ENDBRANCH  19  21
ENDBRANCH   4  19
TORSDOF 5
