REMARK  6 active torsions:
REMARK  status: ('A' for Active; 'I' for Inactive)
REMARK    1  A    between atoms: C2_2  and  C3_3 
REMARK    2  A    between atoms: C3_3  and  N1_4 
REMARK    3  A    between atoms: N1_4  and  C4_5 
REMARK    4  A    between atoms: C4_5  and  C5_6 
REMARK    5  A    between atoms: C4_5  and  C6_8 
REMARK    6  A    between atoms: C5_6  and  N2_7 
ROOT
ATOM      1  C4  <0> d          -3.001  -2.578   0.075  0.00  0.00     0.244 C 
ENDROOT
BRANCH   1   2
ATOM      2  N1  <0> d          -1.644  -2.063   0.300  0.00  0.00    -0.065 N 
ATOM      3  H9  <0> d          -1.603  -1.092   0.028  0.00  0.00     0.278 HD
ATOM      4  H21 <0> d          -0.987  -2.594  -0.251  0.00  0.00     0.278 HD
BRANCH   2   5
ATOM      5  C3  <0> d          -1.302  -2.187   1.723  0.00  0.00     0.233 C 
BRANCH   5   6
ATOM      6  C2  <0> d           0.058  -1.536   1.980  0.00  0.00     0.023 C 
ATOM      7  C1  <0> d           0.414  -1.665   3.463  0.00  0.00     0.007 C 
ENDBRANCH   5   6
ENDBRANCH   2   5
ENDBRANCH   1   2
BRANCH   1   8
ATOM      8  C5  <0> d          -3.410  -2.321  -1.376  0.00  0.00     0.267 C 
BRANCH   8   9
ATOM      9  N2  <0> d          -3.319  -0.884  -1.664  0.00  0.00    -0.077 N 
ATOM     10  H12 <0> d          -3.681  -0.702  -2.588  0.00  0.00     0.274 HD
ATOM     11  H13 <0> d          -3.858  -0.369  -0.984  0.00  0.00     0.274 HD
ATOM     12  H20 <0> d          -2.354  -0.592  -1.618  0.00  0.00     0.274 HD
ENDBRANCH   8   9
ENDBRANCH   1   8
BRANCH   1  13
ATOM     13  C6  <0> d          -3.028  -4.059   0.351  0.00  0.00    -0.022 A 
ATOM     14  C11 <0> d          -1.972  -4.855  -0.052  0.00  0.00     0.036 A 
ATOM     15  C10 <0> d          -1.992  -6.215   0.203  0.00  0.00     0.070 A 
ATOM     16  C9  <0> d          -3.077  -6.784   0.853  0.00  0.00     0.123 A 
ATOM     17 Cl1  <0> d          -0.660  -7.210  -0.297  0.00  0.00    -0.081 Cl
ATOM     18  C8  <0> d          -4.140  -5.984   1.254  0.00  0.00     0.104 A 
ATOM     19  O1  <0> d          -3.089  -8.125   1.085  0.00  0.00    -0.344 OA
ATOM     20  C7  <0> d          -4.112  -4.621   1.000  0.00  0.00     0.049 A 
ATOM     21  O2  <0> d          -5.212  -6.521   1.898  0.00  0.00    -0.346 OA
ATOM     22  C13 <0> d          -5.377  -7.940   1.800  0.00  0.00     0.202 C 
ATOM     23  C12 <0> d          -4.018  -8.601   2.066  0.00  0.00     0.202 C 
ENDBRANCH   1  13
TORSDOF 6
