REMARK  5 active torsions:
REMARK  status: ('A' for Active; 'I' for Inactive)
REMARK    1  A    between atoms: C3_3  and  C9_17 
REMARK    2  A    between atoms: N3_6  and  C4_7 
REMARK    3  A    between atoms: C4_7  and  C5_8 
REMARK       I    between atoms: C5_8  and  N4_10 
REMARK    4  A    between atoms: N4_10  and  C6_11 
REMARK    5  A    between atoms: C9_17  and  O2_18 
ROOT
ATOM      1  C4  <0> d           0.030  -0.396   2.481  0.00  0.00     0.256 C 
ENDROOT
BRANCH   1   2
ATOM      2  N3  <0> d           0.023  -0.823   1.079  0.00  0.00    -0.245 N 
ATOM      3  C2  <0> d           0.002  -0.004   0.002  0.00  0.00     0.057 A 
ATOM      4  C1  <0> d          -0.018   1.503   0.010  0.00  0.00     0.072 C 
ATOM      5  C3  <0> d           0.009  -0.811  -1.085  0.00  0.00     0.105 A 
ATOM      6  N1  <0> d           0.028  -2.067  -0.625  0.00  0.00    -0.132 NA
ATOM      7  N2  <0> d           0.034  -2.040   0.661  0.00  0.00    -0.065 NA
BRANCH   5   8
ATOM      8  C9  <0> d          -0.004  -0.379  -2.528  0.00  0.00     0.227 C 
BRANCH   8   9
ATOM      9  O2  <0> d           1.339  -0.224  -2.991  0.00  0.00    -0.395 OA
ATOM     10  H12 <0> d           1.407   0.054  -3.915  0.00  0.00     0.209 HD
ENDBRANCH   8   9
ENDBRANCH   5   8
ENDBRANCH   1   2
BRANCH   1  11
ATOM     11  C5  <0> d          -1.388  -0.270   2.975  0.00  0.00     0.243 C 
ATOM     12  O1  <0> d          -2.313  -0.512   2.229  0.00  0.00    -0.271 OA
ATOM     13  N4  <0> d          -1.628   0.112   4.245  0.00  0.00    -0.303 N 
ATOM     14  H6  <0> d          -0.888   0.305   4.841  0.00  0.00     0.171 HD
BRANCH  13  15
ATOM     15  C6  <0> d          -2.937   0.228   4.700  0.00  0.00     0.196 A 
ATOM     16  S1  <0> d          -3.496   0.682   6.224  0.00  0.00    -0.034 SA
ATOM     17  C7  <0> d          -5.242   0.545   5.865  0.00  0.00     0.097 A 
ATOM     18  N6  <0> d          -5.191   0.157   4.607  0.00  0.00    -0.145 NA
ATOM     19  C8  <0> d          -6.434   0.798   6.752  0.00  0.00     0.081 C 
ATOM     20  N5  <0> d          -4.065   0.007   4.054  0.00  0.00    -0.123 NA
ENDBRANCH  13  15
ENDBRANCH   1  11
TORSDOF 5
