REMARK  6 active torsions:
REMARK  status: ('A' for Active; 'I' for Inactive)
REMARK    1  A    between atoms: C2_2  and  C4_4 
REMARK    2  A    between atoms: C4_4  and  C5_5 
REMARK    3  A    between atoms: C5_5  and  N1_6 
REMARK       I    between atoms: N1_6  and  C6_7 
REMARK    4  A    between atoms: C6_7  and  C7_9 
REMARK    5  A    between atoms: C7_9  and  C8_10 
REMARK    6  A    between atoms: N3_15  and  C11_16 
ROOT
ATOM      1  C8  <0> d          -6.438  -0.522  -3.612  0.00  0.00     0.156 A 
ATOM      2  C9  <0> d          -7.880  -1.005  -3.632  0.00  0.00     0.238 A 
ATOM      3  O2  <0> d          -8.698  -0.625  -2.821  0.00  0.00    -0.272 OA
ATOM      4  N2  <0> d          -8.186  -1.865  -4.588  0.00  0.00    -0.305 N 
ATOM      5  C10 <0> d          -7.263  -2.303  -5.512  0.00  0.00     0.171 A 
ATOM      6  N3  <0> d          -7.444  -3.149  -6.501  0.00  0.00    -0.205 NA
ATOM      7  S1  <0> d          -5.761  -1.449  -5.051  0.00  0.00    -0.077 SA
ATOM      8  H16 <0> d          -9.094  -2.202  -4.640  0.00  0.00     0.171 HD
ENDROOT
BRANCH   1   9
ATOM      9  C7  <0> d          -5.737  -0.925  -2.313  0.00  0.00     0.128 C 
BRANCH   9  10
ATOM     10  C6  <0> d          -4.323  -0.403  -2.324  0.00  0.00     0.219 C 
ATOM     11  N1  <0> d          -3.510  -0.638  -1.275  0.00  0.00    -0.361 N 
ATOM     12  H13 <0> d          -3.834  -1.143  -0.513  0.00  0.00     0.162 HD
ATOM     13  O1  <0> d          -3.916   0.228  -3.277  0.00  0.00    -0.274 OA
BRANCH  11  14
ATOM     14  C5  <0> d          -2.135  -0.131  -1.286  0.00  0.00     0.123 C 
BRANCH  14  15
ATOM     15  C4  <0> d          -1.433  -0.534   0.013  0.00  0.00     0.023 C 
BRANCH  15  16
ATOM     16  C2  <0> d           0.002  -0.004   0.002  0.00  0.00    -0.021 C 
ATOM     17  C1  <0> d          -0.019   1.526   0.010  0.00  0.00     0.009 C 
ATOM     18  C3  <0> d           0.742  -0.511   1.242  0.00  0.00     0.009 C 
ENDBRANCH  15  16
ENDBRANCH  14  15
ENDBRANCH  11  14
ENDBRANCH   9  10
ENDBRANCH   1   9
BRANCH   6  19
ATOM     19  C11 <0> d          -6.404  -3.469  -7.325  0.00  0.00     0.151 A 
ATOM     20  N4  <0> d          -5.210  -2.921  -7.123  0.00  0.00    -0.241 NA
ATOM     21  C15 <0> d          -4.179  -3.209  -7.894  0.00  0.00     0.119 A 
ATOM     22  C14 <0> d          -4.308  -4.086  -8.953  0.00  0.00     0.019 A 
ATOM     23  C13 <0> d          -5.540  -4.678  -9.205  0.00  0.00     0.005 A 
ATOM     24  C12 <0> d          -6.604  -4.365  -8.380  0.00  0.00     0.052 A 
ENDBRANCH   6  19
TORSDOF 6
