REMARK  4 active torsions:
REMARK  status: ('A' for Active; 'I' for Inactive)
REMARK    1  A    between atoms: C2_2  and  C3_3 
REMARK    2  A    between atoms: C5_9  and  C6_11 
REMARK    3  A    between atoms: C10_15  and  N5_17 
REMARK       I    between atoms: N5_17  and  C12_18 
REMARK    4  A    between atoms: C12_18  and  C13_20 
ROOT
ATOM      1  C6  <0> d           6.262  -4.694   0.067  0.00  0.00     0.004 A 
ATOM      2  C7  <0> d           7.424  -3.927   0.153  0.00  0.00     0.014 A 
ATOM      3  C8  <0> d           7.343  -2.549   0.169  0.00  0.00     0.003 A 
ATOM      4  C9  <0> d           6.112  -1.925   0.093  0.00  0.00     0.029 A 
ATOM      5  C10 <0> d           4.949  -2.680   0.013  0.00  0.00     0.035 A 
ATOM      6  C11 <0> d           5.021  -4.064  -0.003  0.00  0.00     0.044 A 
ENDROOT
BRANCH   5   7
ATOM      7  N5  <0> d           3.705  -2.043  -0.057  0.00  0.00    -0.323 N 
ATOM      8  C12 <0> d           2.630  -2.597   0.538  0.00  0.00     0.256 C 
ATOM      9  O1  <0> d           2.722  -3.689   1.064  0.00  0.00    -0.267 OA
ATOM     10  H10 <0> d           3.616  -1.203  -0.534  0.00  0.00     0.169 HD
BRANCH   8  11
ATOM     11  C13 <0> d           1.342  -1.877   0.552  0.00  0.00     0.035 A 
ATOM     12  C18 <0> d           0.227  -2.448   1.169  0.00  0.00     0.056 A 
ATOM     13  C17 <0> d          -0.979  -1.770   1.181  0.00  0.00     0.103 A 
ATOM     14  C16 <0> d          -1.079  -0.518   0.580  0.00  0.00     0.102 A 
ATOM     15  O2  <0> d          -2.059  -2.344   1.780  0.00  0.00    -0.346 OA
ATOM     16  C15 <0> d           0.032   0.049  -0.035  0.00  0.00     0.040 A 
ATOM     17  O3  <0> d          -2.254   0.166   0.591  0.00  0.00    -0.346 OA
ATOM     18  C14 <0> d           1.234  -0.621  -0.051  0.00  0.00     0.020 A 
ATOM     19  C20 <0> d          -3.435  -0.590   0.879  0.00  0.00     0.202 C 
ATOM     20  C19 <0> d          -3.153  -1.477   2.099  0.00  0.00     0.202 C 
ENDBRANCH   8  11
ENDBRANCH   5   7
BRANCH   1  21
ATOM     21  C5  <0> d           6.347  -6.171   0.050  0.00  0.00     0.132 A 
ATOM     22  N4  <0> d           7.408  -6.934   0.107  0.00  0.00    -0.156 NA
ATOM     23  N3  <0> d           7.301  -8.319   0.080  0.00  0.00    -0.190 N 
ATOM     24  C3  <0> d           8.106  -9.439   0.114  0.00  0.00     0.152 A 
ATOM     25  C4  <0> d           6.030  -8.834  -0.009  0.00  0.00     0.218 A 
ATOM     26  N1  <0> d           7.338 -10.490   0.049  0.00  0.00    -0.132 NA
ATOM     27  N2  <0> d           6.103 -10.130  -0.024  0.00  0.00    -0.120 NA
ATOM     28  S1  <0> d           5.026  -7.370  -0.044  0.00  0.00    -0.026 SA
BRANCH  24  29
ATOM     29  C2  <0> d           9.610  -9.446   0.211  0.00  0.00     0.078 C 
ATOM     30  C1  <0> d          10.026  -9.471   1.683  0.00  0.00     0.013 C 
ENDBRANCH  24  29
ENDBRANCH   1  21
TORSDOF 4
