REMARK  6 active torsions:
REMARK  status: ('A' for Active; 'I' for Inactive)
REMARK    1  A    between atoms: C5_6  and  N2_8 
REMARK    2  A    between atoms: N2_8  and  C8_10 
REMARK    3  A    between atoms: C8_10  and  C9_11 
REMARK    4  A    between atoms: C11_13  and  C13_16 
REMARK    5  A    between atoms: C14_17  and  C15_18 
REMARK    6  A    between atoms: C15_18  and  N3_19 
ROOT
ATOM      1  C9  <0> d           2.295  -4.436   3.570  0.00  0.00     0.012 A 
ATOM      2  C10 <0> d           2.035  -4.661   4.877  0.00  0.00     0.037 A 
ATOM      3  C11 <0> d           3.067  -5.096   5.706  0.00  0.00     0.025 A 
ATOM      4  C12 <0> d           4.309  -5.278   5.160  0.00  0.00     0.070 A 
ATOM      5  S1  <0> d           4.029  -4.840   3.452  0.00  0.00    -0.103 SA
ENDROOT
BRANCH   1   6
ATOM      6  C8  <0> d           1.358  -3.969   2.487  0.00  0.00     0.318 C 
BRANCH   6   7
ATOM      7  N2  <0> d           1.379  -2.501   2.420  0.00  0.00     0.095 N 
ATOM      8  C7  <0> d           0.820  -1.911   3.644  0.00  0.00     0.310 C 
BRANCH   7   9
ATOM      9  C5  <0> d           0.666  -2.018   1.230  0.00  0.00     0.248 C 
ATOM     10  C4  <0> d           1.336  -2.575  -0.029  0.00  0.00     0.039 C 
ATOM     11  C3  <0> d           0.634  -2.005  -1.264  0.00  0.00     0.030 C 
ATOM     12  C2  <0> d           0.681  -0.476  -1.210  0.00  0.00     0.234 C 
ATOM     13  N1  <0> d           0.002  -0.004   0.002  0.00  0.00    -0.073 N 
ATOM     14  C1  <0> d          -0.018   1.465   0.010  0.00  0.00     0.269 C 
ATOM     15  C6  <0> d           0.712  -0.489   1.192  0.00  0.00     0.270 C 
ATOM     16  H24 <0> d          -0.945  -0.352   0.012  0.00  0.00     0.279 HD
ENDBRANCH   7   9
ENDBRANCH   6   7
ENDBRANCH   1   6
BRANCH   3  17
ATOM     17  C13 <0> d           2.834  -5.346   7.097  0.00  0.00    -0.065 C 
ATOM     18  C14 <0> d           2.643  -5.551   8.237  0.00  0.00    -0.074 C 
BRANCH  18  19
ATOM     19  C15 <0> d           2.404  -5.807   9.667  0.00  0.00     0.323 C 
BRANCH  19  20
ATOM     20  N3  <0> d           3.652  -6.252  10.300  0.00  0.00    -0.069 N 
ATOM     21  H22 <0> d           3.972  -7.099   9.855  0.00  0.00     0.275 HD
ATOM     22  H23 <0> d           4.354  -5.534  10.200  0.00  0.00     0.275 HD
ATOM     23  H25 <0> d           3.488  -6.428  11.280  0.00  0.00     0.275 HD
ENDBRANCH  19  20
ENDBRANCH  18  19
ENDBRANCH   3  17
TORSDOF 6
