REMARK  7 active torsions:
REMARK  status: ('A' for Active; 'I' for Inactive)
REMARK    1  A    between atoms: C3_3  and  C9_13 
REMARK    2  A    between atoms: C7_7  and  N1_8 
REMARK    3  A    between atoms: N1_8  and  S1_9 
REMARK       I    between atoms: C9_13  and  N2_15 
REMARK    4  A    between atoms: N2_15  and  C10_16 
REMARK    5  A    between atoms: C13_19  and  S2_22 
REMARK    6  A    between atoms: S2_22  and  N3_25 
REMARK    7  A    between atoms: N3_25  and  C16_26 
ROOT
ATOM      1  C9  <0> d           4.243  -0.753   0.149  0.00  0.00     0.256 C 
ATOM      2  O3  <0> d           5.145   0.043  -0.025  0.00  0.00    -0.267 OA
ATOM      3  N2  <0> d           4.501  -2.076   0.140  0.00  0.00    -0.323 N 
ATOM      4  H11 <0> d           3.772  -2.712   0.212  0.00  0.00     0.169 HD
ENDROOT
BRANCH   3   5
ATOM      5  C10 <0> d           5.818  -2.531   0.026  0.00  0.00     0.035 A 
ATOM      6  C15 <0> d           6.220  -3.676   0.702  0.00  0.00     0.031 A 
ATOM      7  C14 <0> d           7.521  -4.123   0.586  0.00  0.00     0.027 A 
ATOM      8  C13 <0> d           8.425  -3.432  -0.200  0.00  0.00     0.080 A 
ATOM      9  C12 <0> d           8.028  -2.292  -0.875  0.00  0.00     0.027 A 
ATOM     10  C11 <0> d           6.726  -1.842  -0.768  0.00  0.00     0.031 A 
BRANCH   8  11
ATOM     11  S2  <0> d          10.084  -4.006  -0.345  0.00  0.00     0.264 S 
ATOM     12  O4  <0> d          10.873  -2.880  -0.703  0.00  0.00    -0.200 OA
ATOM     13  O5  <0> d          10.347  -4.783   0.816  0.00  0.00    -0.200 OA
BRANCH  11  14
ATOM     14  N3  <0> d          10.133  -5.046  -1.632  0.00  0.00    -0.258 N 
ATOM     15  H16 <0> d          10.333  -5.984  -1.490  0.00  0.00     0.181 HD
BRANCH  14  16
ATOM     16  C16 <0> d           9.887  -4.576  -2.913  0.00  0.00     0.179 A 
ATOM     17  S3  <0> d           9.877  -5.450  -4.413  0.00  0.00    -0.062 SA
ATOM     18  C18 <0> d           9.480  -4.075  -5.482  0.00  0.00     0.072 A 
ATOM     19  C17 <0> d           9.392  -3.070  -4.578  0.00  0.00     0.126 A 
ATOM     20  N4  <0> d           9.595  -3.350  -3.304  0.00  0.00    -0.236 NA
ENDBRANCH  14  16
ENDBRANCH  11  14
ENDBRANCH   8  11
ENDBRANCH   3   5
BRANCH   1  21
ATOM     21  C3  <0> d           2.864  -0.270   0.371  0.00  0.00     0.040 A 
ATOM     22  C2  <0> d           2.614   1.096   0.507  0.00  0.00    -0.019 A 
ATOM     23  C1  <0> d           3.749   2.084   0.428  0.00  0.00     0.052 C 
ATOM     24  C7  <0> d           1.317   1.541   0.715  0.00  0.00     0.049 A 
ATOM     25  C6  <0> d           0.272   0.627   0.787  0.00  0.00     0.031 A 
ATOM     26  C5  <0> d           0.520  -0.726   0.653  0.00  0.00     0.003 A 
ATOM     27  C4  <0> d           1.807  -1.179   0.446  0.00  0.00     0.018 A 
BRANCH  24  28
ATOM     28  N1  <0> d           1.061   2.908   0.850  0.00  0.00    -0.284 N 
ATOM     29  H7  <0> d           1.575   3.551   0.337  0.00  0.00     0.178 HD
BRANCH  28  30
ATOM     30  S1  <0> d          -0.119   3.430   1.888  0.00  0.00     0.227 S 
ATOM     31  O1  <0> d          -0.038   4.848   1.844  0.00  0.00    -0.206 OA
ATOM     32  O2  <0> d          -1.297   2.758   1.464  0.00  0.00    -0.206 OA
ATOM     33  C8  <0> d           0.394   2.825   3.519  0.00  0.00     0.186 C 
ENDBRANCH  28  30
ENDBRANCH  24  28
ENDBRANCH   1  21
TORSDOF 7
