REMARK  6 active torsions:
REMARK  status: ('A' for Active; 'I' for Inactive)
REMARK    1  A    between atoms: C2_2  and  C3_3 
REMARK    2  A    between atoms: C3_3  and  C4_4 
REMARK    3  A    between atoms: N3_13  and  C8_14 
REMARK    4  A    between atoms: C8_14  and  C9_15 
REMARK    5  A    between atoms: C9_15  and  C10_16 
REMARK    6  A    between atoms: C9_15  and  N4_23 
ROOT
ATOM      1  C3  <0> d          -5.689   1.238  -1.626  0.00  0.00     0.026 C 
ATOM      2  N3  <0> d          -4.846   1.191  -0.575  0.00  0.00    -0.390 N 
ATOM      3  H9  <0> d          -5.245   1.080   0.445  0.00  0.00     0.159 HD
ENDROOT
BRANCH   2   4
ATOM      4  C8  <0> d          -3.401   1.287  -0.789  0.00  0.00     0.157 C 
BRANCH   4   5
ATOM      5  C9  <0> d          -2.672   1.083   0.541  0.00  0.00     0.237 C 
BRANCH   5   6
ATOM      6  C10 <0> d          -2.891  -0.329   1.021  0.00  0.00    -0.023 A 
ATOM      7  C15 <0> d          -3.840  -0.590   1.990  0.00  0.00     0.051 A 
ATOM      8  C14 <0> d          -4.045  -1.888   2.427  0.00  0.00     0.117 A 
ATOM      9  C13 <0> d          -3.295  -2.922   1.895  0.00  0.00     0.042 A 
ATOM     10  F1  <0> d          -4.977  -2.145   3.370  0.00  0.00    -0.206 F 
ATOM     11  C12 <0> d          -2.341  -2.659   0.929  0.00  0.00     0.004 A 
ATOM     12  C11 <0> d          -2.138  -1.362   0.494  0.00  0.00     0.009 A 
ENDBRANCH   5   6
BRANCH   5  13
ATOM     13  N4  <0> d          -1.235   1.319   0.353  0.00  0.00    -0.069 N 
ATOM     14  C16 <0> d          -0.986   2.678  -0.147  0.00  0.00     0.270 C 
ATOM     15  C17 <0> d          -0.494   1.073   1.598  0.00  0.00     0.270 C 
ATOM     16  H22 <0> d          -0.871   0.608  -0.403  0.00  0.00     0.279 HD
ENDBRANCH   5  13
ENDBRANCH   4   5
ENDBRANCH   2   4
BRANCH   1  17
ATOM     17  C2  <0> d          -5.152   1.494  -3.011  0.00  0.00     0.053 C 
ATOM     18  C1  <0> d          -5.223   2.991  -3.317  0.00  0.00     0.011 C 
ENDBRANCH   1  17
BRANCH   1  19
ATOM     19  C4  <0> d          -7.045   1.052  -1.435  0.00  0.00     0.122 A 
ATOM     20  C7  <0> d          -7.586   0.626  -0.132  0.00  0.00     0.265 A 
ATOM     21  N2  <0> d          -8.921   0.464  -0.018  0.00  0.00    -0.299 N 
ATOM     22  O2  <0> d          -6.849   0.425   0.816  0.00  0.00    -0.267 OA
ATOM     23  C6  <0> d          -9.744   0.682  -1.053  0.00  0.00     0.181 A 
ATOM     24  H8  <0> d          -9.330   0.146   0.953  0.00  0.00     0.171 HD
ATOM     25  N1  <0> d          -9.322   1.070  -2.264  0.00  0.00    -0.299 N 
ATOM     26  S1  <0> d         -11.423   0.452  -0.815  0.00  0.00    -0.040 SA
ATOM     27  C5  <0> d          -8.014   1.277  -2.522  0.00  0.00     0.265 A 
ATOM     28  H7  <0> d         -10.069   1.220  -3.057  0.00  0.00     0.171 HD
ATOM     29  O1  <0> d          -7.644   1.635  -3.625  0.00  0.00    -0.267 OA
ENDBRANCH   1  19
TORSDOF 6
