REMARK  4 active torsions:
REMARK  status: ('A' for Active; 'I' for Inactive)
REMARK    1  A    between atoms: C3_3  and  N2_11 
REMARK    2  A    between atoms: C6_6  and  N1_7 
REMARK       I    between atoms: N2_11  and  C7_12 
REMARK    3  A    between atoms: C7_12  and  C8_14 
REMARK    4  A    between atoms: C8_14  and  C9_15 
ROOT
ATOM      1  N2  <0> d           3.584   2.125  -0.021  0.00  0.00    -0.326 N 
ATOM      2  C7  <0> d           3.568   3.470  -0.116  0.00  0.00     0.222 C 
ATOM      3  O3  <0> d           2.512   4.066  -0.103  0.00  0.00    -0.273 OA
ATOM      4  H5  <0> d           4.429   1.653   0.034  0.00  0.00     0.169 HD
ENDROOT
BRANCH   1   5
ATOM      5  C3  <0> d           2.381   1.411  -0.002  0.00  0.00     0.052 A 
ATOM      6  C2  <0> d           1.261   1.950   0.616  0.00  0.00     0.033 A 
ATOM      7  C1  <0> d           0.074   1.242   0.633  0.00  0.00     0.038 A 
ATOM      8  C6  <0> d           0.001  -0.001   0.034  0.00  0.00     0.104 A 
ATOM      9  C5  <0> d           1.114  -0.542  -0.583  0.00  0.00     0.057 A 
ATOM     10  C4  <0> d           2.304   0.160  -0.604  0.00  0.00     0.040 A 
ATOM     11 Br1  <0> d           3.825  -0.579  -1.449  0.00  0.00    -0.049 Br
BRANCH   8  12
ATOM     12  N1  <0> d          -1.272  -0.756   0.054  0.00  0.00    -0.116 N 
ATOM     13  O1  <0> d          -2.246  -0.285   0.594  0.00  0.00    -0.532 OA
ATOM     14  O2  <0> d          -1.338  -1.844  -0.469  0.00  0.00    -0.532 OA
ENDBRANCH   8  12
ENDBRANCH   1   5
BRANCH   2  15
ATOM     15  C8  <0> d           4.862   4.232  -0.238  0.00  0.00     0.109 C 
BRANCH  15  16
ATOM     16  C9  <0> d           4.566   5.730  -0.329  0.00  0.00     0.020 C 
ATOM     17  C13 <0> d           5.881   6.512  -0.330  0.00  0.00     0.237 C 
ATOM     18  N3  <0> d           5.599   7.950  -0.421  0.00  0.00    -0.075 N 
ATOM     19  C12 <0> d           4.930   8.248  -1.693  0.00  0.00     0.232 C 
ATOM     20  H14 <0> d           6.465   8.465  -0.368  0.00  0.00     0.277 HD
ATOM     21  H17 <0> d           5.000   8.223   0.344  0.00  0.00     0.277 HD
ATOM     22  C11 <0> d           3.579   7.532  -1.744  0.00  0.00     0.028 C 
ATOM     23  C10 <0> d           3.802   6.022  -1.624  0.00  0.00     0.008 C 
ENDBRANCH  15  16
ENDBRANCH   2  15
TORSDOF 4
