REMARK  2 active torsions:
REMARK  status: ('A' for Active; 'I' for Inactive)
REMARK    1  A    between atoms: N2_5  and  S1_8 
REMARK    2  A    between atoms: S1_8  and  C6_11 
ROOT
ATOM      1  C6  <0> d           3.693  -3.114  -0.187  0.00  0.00     0.082 A 
ATOM      2  C7  <0> d           4.259  -2.817  -1.414  0.00  0.00     0.027 A 
ATOM      3  C8  <0> d           5.515  -2.242  -1.473  0.00  0.00     0.022 A 
ATOM      4  C9  <0> d           6.202  -1.965  -0.304  0.00  0.00     0.027 A 
ATOM      5  C10 <0> d           5.640  -2.264   0.938  0.00  0.00     0.053 A 
ATOM      6  C11 <0> d           4.373  -2.835   0.983  0.00  0.00     0.056 A 
ATOM      7  N3  <0> d           6.316  -2.003   2.126  0.00  0.00    -0.325 N 
ATOM      8  C12 <0> d           7.306  -1.129   2.294  0.00  0.00     0.231 C 
ATOM      9  O3  <0> d           7.786  -1.013   3.401  0.00  0.00    -0.272 OA
ATOM     10  C13 <0> d           7.861  -0.278   1.185  0.00  0.00     0.182 C 
ATOM     11  S2  <0> d           7.804  -1.225  -0.366  0.00  0.00    -0.118 SA
ATOM     12  H15 <0> d           6.040  -2.507   2.908  0.00  0.00     0.169 HD
ENDROOT
BRANCH   1  13
ATOM     13  S1  <0> d           2.092  -3.845  -0.115  0.00  0.00     0.261 S 
ATOM     14  O1  <0> d           2.009  -4.521   1.132  0.00  0.00    -0.200 OA
ATOM     15  O2  <0> d           1.892  -4.508  -1.356  0.00  0.00    -0.200 OA
BRANCH  13  16
ATOM     16  N2  <0> d           0.991  -2.608  -0.057  0.00  0.00    -0.303 N 
ATOM     17  C3  <0> d           0.430  -2.039  -1.292  0.00  0.00     0.165 C 
ATOM     18  C2  <0> d           0.592  -0.516  -1.242  0.00  0.00     0.292 C 
ATOM     19  N1  <0> d           0.002  -0.004   0.002  0.00  0.00     0.087 N 
ATOM     20  C1  <0> d          -0.018   1.465   0.010  0.00  0.00     0.310 C 
ATOM     21  C5  <0> d           0.706  -0.527   1.180  0.00  0.00     0.292 C 
ATOM     22  C4  <0> d           0.549  -2.051   1.230  0.00  0.00     0.165 C 
ENDBRANCH  13  16
ENDBRANCH   1  13
TORSDOF 2
