REMARK  2 active torsions:
REMARK  status: ('A' for Active; 'I' for Inactive)
REMARK    1  A    between atoms: C6_7  and  C9_10 
REMARK    2  A    between atoms: C9_10  and  C10_12 
ROOT
ATOM      1  C1  <0> d          -0.016   1.347   0.009  0.00  0.00     0.001 A 
ATOM      2  C2  <0> d           1.157   2.115   0.002  0.00  0.00     0.002 A 
ATOM      3  C3  <0> d           2.384   1.548  -0.012  0.00  0.00     0.030 A 
ATOM      4  C4  <0> d           2.494   0.082  -0.021  0.00  0.00     0.039 A 
ATOM      5  N1  <0> d           3.529  -0.715  -0.035  0.00  0.00    -0.385 N 
ATOM      6  C5  <0> d           3.065  -2.106  -0.039  0.00  0.00     0.163 A 
ATOM      7  C6  <0> d           1.554  -2.043  -0.024  0.00  0.00     0.022 A 
ATOM      8  C7  <0> d           1.236  -0.701  -0.014  0.00  0.00     0.002 A 
ATOM      9  C8  <0> d           0.002  -0.004   0.002  0.00  0.00     0.014 A 
ATOM     10  H11 <0> d           4.457  -0.431  -0.043  0.00  0.00     0.160 HD
ENDROOT
BRANCH   7  11
ATOM     11  C9  <0> d           0.619  -3.175  -0.022  0.00  0.00     0.183 C 
ATOM     12  O1  <0> d          -0.586  -2.973  -0.010  0.00  0.00    -0.288 OA
BRANCH  11  13
ATOM     13  C10 <0> d           1.109  -4.490  -0.034  0.00  0.00     0.092 C 
ATOM     14  C11 <0> d           0.229  -5.555  -0.032  0.00  0.00     0.076 A 
ATOM     15  S1  <0> d          -1.557  -5.511  -0.015  0.00  0.00    -0.103 SA
ATOM     16  N2  <0> d           0.523  -6.900  -0.037  0.00  0.00    -0.321 N 
ATOM     17  C13 <0> d          -1.849  -7.329  -0.026  0.00  0.00     0.184 A 
ATOM     18  C12 <0> d          -0.414  -7.832  -0.035  0.00  0.00     0.232 A 
ATOM     19  O2  <0> d          -0.146  -9.015  -0.040  0.00  0.00    -0.272 OA
ATOM     20  H8  <0> d           1.453  -7.173  -0.043  0.00  0.00     0.169 HD
ENDBRANCH  11  13
ENDBRANCH   7  11
TORSDOF 2
