REMARK  4 active torsions:
REMARK  status: ('A' for Active; 'I' for Inactive)
REMARK    1  A    between atoms: C2_2  and  C3_3 
REMARK       I    between atoms: C3_3  and  N1_5 
REMARK    2  A    between atoms: N1_5  and  C4_6 
REMARK    3  A    between atoms: C7_10  and  N3_15 
REMARK       I    between atoms: N3_15  and  C11_16 
REMARK    4  A    between atoms: C11_16  and  C12_18 
ROOT
ATOM      1  C4  <0> d           1.551  -2.279  -2.647  0.00  0.00     0.254 A 
ATOM      2  N2  <0> d           1.351  -3.721  -2.843  0.00  0.00    -0.359 N 
ATOM      3  C5  <0> d           2.481  -4.538  -2.817  0.00  0.00     0.049 A 
ATOM      4  C6  <0> d           2.483  -5.934  -2.986  0.00  0.00     0.060 A 
ATOM      5  C7  <0> d           3.660  -6.656  -2.942  0.00  0.00     0.037 A 
ATOM      6  C8  <0> d           4.878  -6.025  -2.731  0.00  0.00     0.031 A 
ATOM      7  C9  <0> d           4.899  -4.651  -2.563  0.00  0.00     0.023 A 
ATOM      8  C10 <0> d           3.724  -3.934  -2.607  0.00  0.00     0.030 A 
ATOM      9  S1  <0> d           3.375  -2.197  -2.436  0.00  0.00    -0.081 SA
ATOM     10  H9  <0> d           0.466  -4.092  -2.986  0.00  0.00     0.162 HD
ENDROOT
BRANCH   5  11
ATOM     11  N3  <0> d           3.623  -8.046  -3.114  0.00  0.00    -0.325 N 
ATOM     12  C11 <0> d           4.627  -8.672  -3.760  0.00  0.00     0.248 C 
ATOM     13  O2  <0> d           5.601  -8.045  -4.119  0.00  0.00    -0.271 OA
ATOM     14  H13 <0> d           2.875  -8.558  -2.769  0.00  0.00     0.169 HD
BRANCH  12  15
ATOM     15  C12 <0> d           4.539 -10.151  -4.036  0.00  0.00     0.198 A 
ATOM     16  N4  <0> d           5.730 -10.601  -4.766  0.00  0.00    -0.373 N 
ATOM     17  C19 <0> d           5.350 -11.088  -5.924  0.00  0.00     0.039 A 
ATOM     18  H19 <0> d           6.644 -10.547  -4.445  0.00  0.00     0.161 HD
ATOM     19  C14 <0> d           3.878 -11.002  -6.058  0.00  0.00    -0.011 A 
ATOM     20  C18 <0> d           6.087 -11.650  -7.002  0.00  0.00     0.030 A 
ATOM     21  C13 <0> d           3.362 -10.444  -4.939  0.00  0.00     0.021 A 
ATOM     22  C15 <0> d           3.263 -11.502  -7.293  0.00  0.00     0.013 A 
ATOM     23  C16 <0> d           4.058 -12.019  -8.258  0.00  0.00     0.001 A 
ATOM     24  C17 <0> d           5.449 -12.089  -8.108  0.00  0.00     0.002 A 
ENDBRANCH  12  15
ENDBRANCH   5  11
BRANCH   1  25
ATOM     25  N1  <0> d           0.860  -1.811  -1.443  0.00  0.00    -0.331 N 
ATOM     26  C3  <0> d           0.725  -0.489  -1.215  0.00  0.00     0.219 C 
ATOM     27  O1  <0> d           1.175   0.312  -2.006  0.00  0.00    -0.274 OA
ATOM     28  H8  <0> d           0.500  -2.451  -0.810  0.00  0.00     0.165 HD
BRANCH  26  29
ATOM     29  C2  <0> d           0.014  -0.007   0.023  0.00  0.00     0.098 C 
ATOM     30  C1  <0> d          -0.001   1.523   0.040  0.00  0.00     0.014 C 
ENDBRANCH  26  29
ENDBRANCH   1  25
TORSDOF 4
