REMARK  3 active torsions:
REMARK  status: ('A' for Active; 'I' for Inactive)
REMARK    1  A    between atoms: S1_2  and  C2_4 
REMARK    2  A    between atoms: C5_7  and  C8_10 
REMARK       I    between atoms: C8_10  and  N1_12 
REMARK    3  A    between atoms: N1_12  and  C9_13 
ROOT
ATOM      1  C8  <0> d          -5.807  -1.540   0.049  0.00  0.00     0.257 C 
ATOM      2  O2  <0> d          -6.386  -1.696   1.107  0.00  0.00    -0.267 OA
ATOM      3  N1  <0> d          -6.469  -1.710  -1.113  0.00  0.00    -0.307 N 
ATOM      4  H8  <0> d          -6.029  -1.514  -1.954  0.00  0.00     0.170 HD
ENDROOT
BRANCH   3   5
ATOM      5  C9  <0> d          -7.783  -2.166  -1.104  0.00  0.00     0.131 A 
ATOM      6  N2  <0> d          -8.397  -2.336   0.048  0.00  0.00    -0.231 NA
ATOM      7  C17 <0> d          -9.661  -2.768   0.103  0.00  0.00     0.069 A 
ATOM      8  C12 <0> d         -10.360  -3.062  -1.093  0.00  0.00    -0.007 A 
ATOM      9  C16 <0> d         -10.313  -2.944   1.336  0.00  0.00     0.032 A 
ATOM     10  C11 <0> d          -9.707  -2.886  -2.330  0.00  0.00     0.017 A 
ATOM     11  C13 <0> d         -11.685  -3.520  -1.028  0.00  0.00     0.014 A 
ATOM     12  C10 <0> d          -8.420  -2.438  -2.323  0.00  0.00     0.051 A 
ATOM     13  C14 <0> d         -12.284  -3.678   0.185  0.00  0.00     0.001 A 
ATOM     14  C15 <0> d         -11.599  -3.390   1.363  0.00  0.00     0.002 A 
ENDBRANCH   3   5
BRANCH   1  15
ATOM     15  C5  <0> d          -4.378  -1.164   0.037  0.00  0.00     0.032 A 
ATOM     16  C4  <0> d          -3.690  -0.987   1.239  0.00  0.00     0.018 A 
ATOM     17  C3  <0> d          -2.356  -0.637   1.221  0.00  0.00     0.022 A 
ATOM     18  C2  <0> d          -1.700  -0.461   0.015  0.00  0.00     0.031 A 
ATOM     19  C7  <0> d          -2.377  -0.629  -1.179  0.00  0.00     0.022 A 
ATOM     20  C6  <0> d          -3.710  -0.984  -1.175  0.00  0.00     0.018 A 
BRANCH  18  21
ATOM     21  S1  <0> d           0.005  -0.014   0.001  0.00  0.00     0.045 S 
ATOM     22  C1  <0> d          -0.017   1.800   0.012  0.00  0.00     0.133 C 
ATOM     23  O1  <0> d           0.495  -0.489   1.248  0.00  0.00    -0.253 OA
ENDBRANCH  18  21
ENDBRANCH   1  15
TORSDOF 3
