REMARK  4 active torsions:
REMARK  status: ('A' for Active; 'I' for Inactive)
REMARK    1  A    between atoms: C4_5  and  C5_6 
REMARK    2  A    between atoms: C5_6  and  N1_7 
REMARK    3  A    between atoms: C8_10  and  C11_13 
REMARK    4  A    between atoms: C12_15  and  C13_19 
ROOT
ATOM      1  N1  <0> d          -1.598  -1.208  -1.374  0.00  0.00    -0.067 N 
ATOM      2  C6  <0> d          -0.530  -1.958  -2.046  0.00  0.00     0.236 C 
ATOM      3  C7  <0> d          -0.909  -2.192  -3.510  0.00  0.00     0.040 C 
ATOM      4  C8  <0> d          -2.214  -2.992  -3.572  0.00  0.00     0.062 C 
ATOM      5  C9  <0> d          -3.302  -2.236  -2.805  0.00  0.00     0.040 C 
ATOM      6  C10 <0> d          -2.834  -2.000  -1.367  0.00  0.00     0.236 C 
ATOM      7  H19 <0> d          -1.758  -0.342  -1.865  0.00  0.00     0.280 HD
ENDROOT
BRANCH   4   8
ATOM      8  C11 <0> d          -2.635  -3.159  -5.010  0.00  0.00     0.152 A 
ATOM      9  N2  <0> d          -2.794  -4.321  -5.635  0.00  0.00    -0.210 NA
ATOM     10  C12 <0> d          -3.166  -4.109  -6.881  0.00  0.00     0.176 A 
ATOM     11  N3  <0> d          -3.250  -2.772  -7.066  0.00  0.00    -0.257 N 
ATOM     12  H1  <0> d          -3.501  -2.312  -7.882  0.00  0.00     0.191 HD
ATOM     13  N4  <0> d          -2.906  -2.183  -5.838  0.00  0.00    -0.157 NA
BRANCH  10  14
ATOM     14  C13 <0> d          -3.443  -5.149  -7.897  0.00  0.00     0.121 A 
ATOM     15  N6  <0> d          -3.814  -4.800  -9.126  0.00  0.00    -0.254 NA
ATOM     16  C16 <0> d          -4.054  -5.730 -10.030  0.00  0.00     0.136 A 
ATOM     17  C15 <0> d          -3.933  -7.069  -9.699  0.00  0.00     0.135 A 
ATOM     18  N5  <0> d          -3.570  -7.423  -8.477  0.00  0.00    -0.269 NA
ATOM     19  C14 <0> d          -3.322  -6.500  -7.567  0.00  0.00     0.151 A 
ENDBRANCH  10  14
ENDBRANCH   4   8
BRANCH   1  20
ATOM     20  C5  <0> d          -1.196  -0.918   0.009  0.00  0.00     0.275 C 
BRANCH  20  21
ATOM     21  C4  <0> d           0.002  -0.004   0.002  0.00  0.00    -0.008 A 
ATOM     22  C1  <0> d          -0.017   1.410   0.010  0.00  0.00     0.035 A 
ATOM     23  C2  <0> d           1.265   1.817  -0.000  0.00  0.00     0.142 A 
ATOM     24  O1  <0> d           2.055   0.731  -0.014  0.00  0.00    -0.334 OA
ATOM     25  C3  <0> d           1.295  -0.376  -0.012  0.00  0.00     0.150 A 
ENDBRANCH  20  21
ENDBRANCH   1  20
TORSDOF 4
