REMARK  2 active torsions:
REMARK  status: ('A' for Active; 'I' for Inactive)
REMARK    1  A    between atoms: C6_6  and  C7_7 
REMARK    2  A    between atoms: N3_10  and  C8_12 
ROOT
ATOM      1  C7  <0> d          -2.991   0.174   4.769  0.00  0.00     0.204 A 
ATOM      2  N1  <0> d          -2.877   1.509   4.814  0.00  0.00    -0.108 NA
ATOM      3  N2  <0> d          -2.529   1.903   3.636  0.00  0.00    -0.045 NA
ATOM      4  N3  <0> d          -2.431   0.878   2.864  0.00  0.00    -0.154 N 
ATOM      5  N4  <0> d          -2.705  -0.188   3.534  0.00  0.00    -0.130 NA
ENDROOT
BRANCH   4   6
ATOM      6  C8  <0> d          -2.061   0.916   1.447  0.00  0.00     0.224 C 
ATOM      7  C13 <0> d          -3.065   1.751   0.681  0.00  0.00     0.244 C 
ATOM      8  N5  <0> d          -3.062   1.748  -0.653  0.00  0.00    -0.359 N 
ATOM      9  O1  <0> d          -3.875   2.425   1.282  0.00  0.00    -0.271 OA
ATOM     10  C12 <0> d          -2.088   0.930  -1.394  0.00  0.00     0.122 C 
ATOM     11  H14 <0> d          -3.793   2.362  -1.199  0.00  0.00     0.162 HD
ATOM     12  C11 <0> d          -0.705   1.568  -1.254  0.00  0.00     0.020 C 
ATOM     13  C10 <0> d          -0.013   1.086   0.008  0.00  0.00     0.004 C 
ATOM     14  C9  <0> d          -0.681   1.554   1.288  0.00  0.00     0.039 C 
ENDBRANCH   4   6
BRANCH   1  15
ATOM     15  C6  <0> d          -3.365  -0.722   5.892  0.00  0.00     0.015 A 
ATOM     16  C1  <0> d          -3.448  -2.098   5.690  0.00  0.00     0.017 A 
ATOM     17  C2  <0> d          -3.792  -2.927   6.739  0.00  0.00     0.020 A 
ATOM     18  C3  <0> d          -4.064  -2.393   7.986  0.00  0.00     0.011 A 
ATOM     19  C4  <0> d          -3.989  -1.026   8.190  0.00  0.00     0.020 A 
ATOM     20 Br1  <0> d          -4.542  -3.534   9.416  0.00  0.00    -0.051 Br
ATOM     21  C5  <0> d          -3.641  -0.189   7.149  0.00  0.00     0.017 A 
ENDBRANCH   1  15
TORSDOF 2
