REMARK  6 active torsions:
REMARK  status: ('A' for Active; 'I' for Inactive)
REMARK    1  A    between atoms: C2_2  and  S1_3 
REMARK    2  A    between atoms: S1_3  and  C3_6 
REMARK    3  A    between atoms: C6_9  and  O4_29 
REMARK    4  A    between atoms: C7_10  and  N1_12 
REMARK       I    between atoms: N1_12  and  C9_13 
REMARK    5  A    between atoms: C9_13  and  C10_15 
REMARK    6  A    between atoms: C15_20  and  C18_25 
ROOT
ATOM      1  N1  <0> d          -1.266  -5.166   2.398  0.00  0.00    -0.319 N 
ATOM      2  C9  <0> d          -1.221  -4.496   3.567  0.00  0.00     0.272 C 
ATOM      3  O3  <0> d          -1.334  -3.285   3.579  0.00  0.00    -0.266 OA
ATOM      4  H10 <0> d          -1.241  -6.135   2.393  0.00  0.00     0.169 HD
ENDROOT
BRANCH   2   5
ATOM      5  C10 <0> d          -1.037  -5.230   4.828  0.00  0.00     0.102 A 
ATOM      6  N2  <0> d          -0.898  -6.600   4.944  0.00  0.00    -0.351 N 
ATOM      7  C17 <0> d          -0.743  -6.918   6.273  0.00  0.00     0.043 A 
ATOM      8  H1  <0> d          -0.906  -7.233   4.209  0.00  0.00     0.166 HD
ATOM      9  C12 <0> d          -0.796  -5.714   7.003  0.00  0.00    -0.007 A 
ATOM     10  C16 <0> d          -0.564  -8.121   6.950  0.00  0.00     0.038 A 
ATOM     11  C11 <0> d          -0.982  -4.670   6.065  0.00  0.00     0.049 A 
ATOM     12  C13 <0> d          -0.669  -5.743   8.398  0.00  0.00     0.014 A 
ATOM     13  C14 <0> d          -0.495  -6.934   9.039  0.00  0.00     0.009 A 
ATOM     14  C15 <0> d          -0.442  -8.123   8.321  0.00  0.00    -0.048 A 
BRANCH  14  15
ATOM     15  C18 <0> d          -0.248  -9.427   9.051  0.00  0.00    -0.024 C 
ATOM     16  C19 <0> d          -0.140  -9.160  10.554  0.00  0.00     0.019 C 
ATOM     17  C20 <0> d          -1.442 -10.345   8.781  0.00  0.00     0.019 C 
ATOM     18  C21 <0> d           1.035 -10.101   8.559  0.00  0.00     0.019 C 
ENDBRANCH  14  15
ENDBRANCH   2   5
BRANCH   1  19
ATOM     19  C7  <0> d          -1.347  -4.461   1.191  0.00  0.00     0.070 A 
ATOM     20  C6  <0> d          -0.704  -4.946   0.054  0.00  0.00     0.092 A 
ATOM     21  C5  <0> d          -0.788  -4.245  -1.138  0.00  0.00     0.040 A 
ATOM     22  C4  <0> d          -1.510  -3.067  -1.198  0.00  0.00     0.026 A 
ATOM     23  C3  <0> d          -2.150  -2.586  -0.070  0.00  0.00     0.061 A 
ATOM     24  C8  <0> d          -2.065  -3.276   1.124  0.00  0.00     0.055 A 
BRANCH  20  25
ATOM     25  O4  <0> d           0.005  -6.105   0.115  0.00  0.00    -0.358 OA
ATOM     26  H24 <0> d           0.936  -5.984   0.348  0.00  0.00     0.217 HD
ENDBRANCH  20  25
BRANCH  23  27
ATOM     27  S1  <0> d          -3.068  -1.084  -0.154  0.00  0.00     0.175 S 
ATOM     28  O1  <0> d          -4.036  -1.192   0.880  0.00  0.00    -0.223 OA
ATOM     29  O2  <0> d          -3.469  -0.981  -1.514  0.00  0.00    -0.223 OA
BRANCH  27  30
ATOM     30  C2  <0> d          -1.870   0.218   0.244  0.00  0.00     0.141 C 
ATOM     31  C1  <0> d          -2.564   1.581   0.201  0.00  0.00     0.021 C 
ENDBRANCH  27  30
ENDBRANCH  23  27
ENDBRANCH   1  19
TORSDOF 6
