REMARK  3 active torsions:
REMARK  status: ('A' for Active; 'I' for Inactive)
REMARK    1  A    between atoms: C6_6  and  C7_7 
REMARK    2  A    between atoms: N1_9  and  S1_13 
REMARK    3  A    between atoms: S1_13  and  C11_16 
ROOT
ATOM      1  C7  <0> d          -1.293  -0.775   0.011  0.00  0.00     0.173 C 
ATOM      2  C8  <0> d          -1.653  -1.155   1.452  0.00  0.00     0.172 C 
ATOM      3  N1  <0> d          -2.812  -2.061   1.417  0.00  0.00    -0.302 N 
ATOM      4  C9  <0> d          -2.751  -3.228   0.523  0.00  0.00     0.161 C 
ATOM      5  C10 <0> d          -2.337  -2.747  -0.873  0.00  0.00     0.189 C 
ATOM      6  O1  <0> d          -1.145  -1.965  -0.768  0.00  0.00    -0.378 OA
ENDROOT
BRANCH   3   7
ATOM      7  S1  <0> d          -4.145  -1.776   2.356  0.00  0.00     0.263 S 
ATOM      8  O2  <0> d          -4.793  -3.028   2.534  0.00  0.00    -0.200 OA
ATOM      9  O3  <0> d          -3.708  -0.982   3.451  0.00  0.00    -0.200 OA
BRANCH   7  10
ATOM     10  C11 <0> d          -5.243  -0.771   1.412  0.00  0.00     0.115 A 
ATOM     11  C13 <0> d          -6.247  -1.231   0.554  0.00  0.00     0.165 A 
ATOM     12  N3  <0> d          -6.851  -0.192   0.038  0.00  0.00    -0.186 NA
ATOM     13  N2  <0> d          -6.242   0.964   0.544  0.00  0.00    -0.288 N 
ATOM     14  C12 <0> d          -5.259   0.582   1.385  0.00  0.00     0.136 A 
ATOM     15  H2  <0> d          -6.485   1.878   0.327  0.00  0.00     0.188 HD
ENDBRANCH   7  10
ENDBRANCH   3   7
BRANCH   1  16
ATOM     16  C6  <0> d           0.002  -0.004   0.002  0.00  0.00    -0.028 A 
ATOM     17  C1  <0> d          -0.017   1.378   0.010  0.00  0.00     0.011 A 
ATOM     18  C2  <0> d           1.171   2.086   0.002  0.00  0.00     0.024 A 
ATOM     19  C3  <0> d           2.378   1.410  -0.013  0.00  0.00     0.034 A 
ATOM     20  C4  <0> d           2.396   0.027  -0.021  0.00  0.00     0.024 A 
ATOM     21 Cl1  <0> d           3.870   2.298  -0.023  0.00  0.00    -0.084 Cl
ATOM     22  C5  <0> d           1.208  -0.679  -0.013  0.00  0.00     0.011 A 
ENDBRANCH   1  16
TORSDOF 3
