REMARK  6 active torsions:
REMARK  status: ('A' for Active; 'I' for Inactive)
REMARK    1  A    between atoms: C5_5  and  N2_12 
REMARK    2  A    between atoms: C7_7  and  S1_8 
REMARK    3  A    between atoms: S1_8  and  N1_11 
REMARK       I    between atoms: N2_12  and  C8_13 
REMARK    4  A    between atoms: C8_13  and  C9_15 
REMARK    5  A    between atoms: C9_15  and  O4_16 
REMARK    6  A    between atoms: O4_16  and  C10_17 
ROOT
ATOM      1  N2  <0> d          -2.456   3.823   0.046  0.00  0.00    -0.325 N 
ATOM      2  C8  <0> d          -3.614   3.140  -0.048  0.00  0.00     0.246 C 
ATOM      3  O3  <0> d          -3.604   1.927  -0.055  0.00  0.00    -0.271 OA
ATOM      4  H9  <0> d          -2.470   4.919   0.140  0.00  0.00     0.169 HD
ENDROOT
BRANCH   1   5
ATOM      5  C5  <0> d          -1.236   3.138   0.025  0.00  0.00     0.036 A 
ATOM      6  C4  <0> d          -1.099   1.984  -0.735  0.00  0.00     0.030 A 
ATOM      7  C3  <0> d           0.104   1.307  -0.750  0.00  0.00     0.010 A 
ATOM      8  C2  <0> d           1.176   1.784  -0.017  0.00  0.00    -0.039 A 
ATOM      9  C1  <0> d           2.490   1.045  -0.039  0.00  0.00     0.050 C 
ATOM     10  C7  <0> d           1.045   2.936   0.736  0.00  0.00     0.082 A 
ATOM     11  C6  <0> d          -0.158   3.615   0.758  0.00  0.00     0.054 A 
BRANCH  10  12
ATOM     12  S1  <0> d           2.414   3.539   1.667  0.00  0.00     0.239 S 
ATOM     13  O1  <0> d           3.530   3.553   0.786  0.00  0.00    -0.206 OA
ATOM     14  O2  <0> d           1.963   4.705   2.343  0.00  0.00    -0.206 OA
BRANCH  12  15
ATOM     15  N1  <0> d           2.747   2.413   2.834  0.00  0.00    -0.225 NA
ATOM     16  H7  <0> d           3.599   2.754   3.440  0.00  0.00     0.136 HD
ATOM     17  H8  <0> d           2.996   1.454   2.358  0.00  0.00     0.136 HD
ENDBRANCH  12  15
ENDBRANCH  10  12
ENDBRANCH   1   5
BRANCH   2  18
ATOM     18  C9  <0> d          -4.921   3.883  -0.144  0.00  0.00     0.278 C 
BRANCH  18  19
ATOM     19  O4  <0> d          -5.997   2.946  -0.234  0.00  0.00    -0.341 OA
BRANCH  19  20
ATOM     20  C10 <0> d          -7.253   3.455  -0.328  0.00  0.00     0.086 A 
ATOM     21  C15 <0> d          -8.344   2.602  -0.423  0.00  0.00     0.045 A 
ATOM     22  C14 <0> d          -9.621   3.123  -0.513  0.00  0.00     0.041 A 
ATOM     23 Br1  <0> d          -8.083   0.729  -0.423  0.00  0.00    -0.048 Br
ATOM     24  C13 <0> d          -9.812   4.493  -0.519  0.00  0.00     0.012 A 
ATOM     25  C12 <0> d          -8.725   5.345  -0.430  0.00  0.00     0.022 A 
ATOM     26 Br2  <0> d         -11.559   5.203  -0.651  0.00  0.00    -0.051 Br
ATOM     27  C11 <0> d          -7.447   4.829  -0.334  0.00  0.00     0.039 A 
ENDBRANCH  19  20
ENDBRANCH  18  19
ENDBRANCH   2  18
TORSDOF 6
