REMARK  7 active torsions:
REMARK  status: ('A' for Active; 'I' for Inactive)
REMARK    1  A    between atoms: C3_3  and  N1_9 
REMARK       I    between atoms: N1_9  and  C7_10 
REMARK    2  A    between atoms: C7_10  and  C8_12 
REMARK    3  A    between atoms: C8_12  and  O2_13 
REMARK    4  A    between atoms: O2_13  and  C9_14 
REMARK    5  A    between atoms: C9_14  and  C10_15 
REMARK       I    between atoms: C10_15  and  N2_17 
REMARK    6  A    between atoms: N2_17  and  N3_18 
REMARK       I    between atoms: N3_18  and  C11_19 
REMARK    7  A    between atoms: C11_19  and  C12_21 
ROOT
ATOM      1  C9  <0> d           1.418   3.422   0.041  0.00  0.00     0.272 C 
ENDROOT
BRANCH   1   2
ATOM      2  O2  <0> d           1.323   1.996   0.023  0.00  0.00    -0.373 OA
BRANCH   2   3
ATOM      3  C8  <0> d          -0.017   1.502   0.028  0.00  0.00     0.271 C 
BRANCH   3   4
ATOM      4  C7  <0> d           0.002  -0.005   0.008  0.00  0.00     0.245 C 
ATOM      5  N1  <0> d          -1.156  -0.694   0.009  0.00  0.00    -0.324 N 
ATOM      6  H4  <0> d          -2.000  -0.223   0.089  0.00  0.00     0.169 HD
ATOM      7  O1  <0> d           1.061  -0.597  -0.009  0.00  0.00    -0.271 OA
BRANCH   5   8
ATOM      8  C3  <0> d          -1.140  -2.089  -0.104  0.00  0.00     0.058 A 
ATOM      9  C2  <0> d          -0.113  -2.822   0.473  0.00  0.00     0.031 A 
ATOM     10  C1  <0> d          -0.099  -4.199   0.360  0.00  0.00     0.004 A 
ATOM     11  C6  <0> d          -1.107  -4.848  -0.328  0.00  0.00     0.026 A 
ATOM     12  C5  <0> d          -2.134  -4.121  -0.905  0.00  0.00     0.058 A 
ATOM     13  C4  <0> d          -2.156  -2.743  -0.790  0.00  0.00     0.082 A 
ATOM     14 Cl1  <0> d          -3.398  -4.940  -1.768  0.00  0.00    -0.082 Cl
ATOM     15 Cl2  <0> d          -3.448  -1.831  -1.508  0.00  0.00    -0.080 Cl
ENDBRANCH   5   8
ENDBRANCH   3   4
ENDBRANCH   2   3
ENDBRANCH   1   2
BRANCH   1  16
ATOM     16  C10 <0> d           2.869   3.830   0.034  0.00  0.00     0.259 C 
ATOM     17  O3  <0> d           3.736   2.983   0.015  0.00  0.00    -0.269 OA
ATOM     18  N2  <0> d           3.201   5.136   0.048  0.00  0.00    -0.265 N 
ATOM     19  H9  <0> d           2.507   5.813   0.063  0.00  0.00     0.190 HD
BRANCH  18  20
ATOM     20  N3  <0> d           4.550   5.515   0.041  0.00  0.00    -0.263 N 
ATOM     21  C11 <0> d           4.883   6.821   0.056  0.00  0.00     0.270 C 
ATOM     22  O4  <0> d           4.013   7.670   0.074  0.00  0.00    -0.266 OA
ATOM     23  H10 <0> d           5.244   4.837   0.026  0.00  0.00     0.190 HD
BRANCH  21  24
ATOM     24  C12 <0> d           6.306   7.221   0.049  0.00  0.00     0.033 A 
ATOM     25  C17 <0> d           6.654   8.572   0.063  0.00  0.00     0.018 A 
ATOM     26  C16 <0> d           7.984   8.939   0.057  0.00  0.00     0.020 A 
ATOM     27  C15 <0> d           8.972   7.970   0.035  0.00  0.00     0.011 A 
ATOM     28  C14 <0> d           8.633   6.627   0.021  0.00  0.00     0.020 A 
ATOM     29 Br1  <0> d          10.793   8.482   0.026  0.00  0.00    -0.051 Br
ATOM     30  C13 <0> d           7.307   6.248   0.033  0.00  0.00     0.018 A 
ENDBRANCH  21  24
ENDBRANCH  18  20
ENDBRANCH   1  16
TORSDOF 7
