REMARK  5 active torsions:
REMARK  status: ('A' for Active; 'I' for Inactive)
REMARK    1  A    between atoms: C2_2  and  C4_4 
REMARK    2  A    between atoms: C2_2  and  N2_17 
REMARK       I    between atoms: C4_4  and  N1_6 
REMARK    3  A    between atoms: N1_6  and  C5_7 
REMARK    4  A    between atoms: C10_12  and  C11_13 
REMARK    5  A    between atoms: C11_13  and  O2_14 
ROOT
ATOM      1  C4  <0> d          -1.410  -0.529   0.012  0.00  0.00     0.257 C 
ATOM      2  O1  <0> d          -1.940  -0.824   1.063  0.00  0.00    -0.270 OA
ATOM      3  N1  <0> d          -2.090  -0.657  -1.144  0.00  0.00    -0.324 N 
ATOM      4  H7  <0> d          -1.697  -0.347  -1.975  0.00  0.00     0.169 HD
ENDROOT
BRANCH   3   5
ATOM      5  C5  <0> d          -3.363  -1.239  -1.147  0.00  0.00     0.044 A 
ATOM      6  C10 <0> d          -4.268  -0.927  -2.153  0.00  0.00     0.009 A 
ATOM      7  C9  <0> d          -5.522  -1.508  -2.156  0.00  0.00     0.021 A 
ATOM      8  C8  <0> d          -5.880  -2.389  -1.151  0.00  0.00     0.020 A 
ATOM      9 Br1  <0> d          -6.753  -1.092  -3.530  0.00  0.00    -0.050 Br
ATOM     10  C7  <0> d          -4.982  -2.696  -0.144  0.00  0.00     0.004 A 
ATOM     11  C6  <0> d          -3.726  -2.124  -0.140  0.00  0.00     0.030 A 
BRANCH   6  12
ATOM     12  C11 <0> d          -3.881   0.038  -3.244  0.00  0.00     0.209 C 
BRANCH  12  13
ATOM     13  O2  <0> d          -3.289  -0.681  -4.327  0.00  0.00    -0.391 OA
ATOM     14  C12 <0> d          -2.884   0.146  -5.420  0.00  0.00     0.201 C 
ENDBRANCH  12  13
ENDBRANCH   6  12
ENDBRANCH   3   5
BRANCH   1  15
ATOM     15  C2  <0> d           0.007  -0.018   0.000  0.00  0.00     0.198 C 
ATOM     16  C1  <0> d          -0.001   1.512   0.005  0.00  0.00     0.056 C 
ATOM     17  C3  <0> d           0.744  -0.528   1.241  0.00  0.00     0.056 C 
BRANCH  15  18
ATOM     18  N2  <0> d           0.691  -0.500  -1.208  0.00  0.00    -0.062 N 
ATOM     19  C13 <0> d           2.073  -0.003  -1.220  0.00  0.00     0.268 C 
ATOM     20  H16 <0> d           0.697  -1.509  -1.211  0.00  0.00     0.278 HD
ATOM     21  H20 <0> d           0.205  -0.164  -2.026  0.00  0.00     0.278 HD
ENDBRANCH  15  18
ENDBRANCH   1  15
TORSDOF 5
