REMARK  5 active torsions:
REMARK  status: ('A' for Active; 'I' for Inactive)
REMARK    1  A    between atoms: C8_10  and  C9_11 
REMARK    2  A    between atoms: C9_11  and  C10_12 
REMARK       I    between atoms: C10_12  and  N3_14 
REMARK    3  A    between atoms: N3_14  and  C11_15 
REMARK    4  A    between atoms: C11_15  and  C12_16 
REMARK    5  A    between atoms: C12_16  and  C13_17 
ROOT
ATOM      1  C10 <0> d           1.494  -4.404   3.120  0.00  0.00     0.223 C 
ATOM      2  O1  <0> d           2.405  -3.644   2.867  0.00  0.00    -0.273 OA
ATOM      3  N3  <0> d           1.759  -5.658   3.537  0.00  0.00    -0.360 N 
ATOM      4  H9  <0> d           1.030  -6.265   3.739  0.00  0.00     0.162 HD
ENDROOT
BRANCH   1   5
ATOM      5  C9  <0> d           0.067  -3.946   2.967  0.00  0.00     0.162 C 
BRANCH   5   6
ATOM      6  C8  <0> d           0.046  -2.516   2.491  0.00  0.00     0.049 A 
ATOM      7  N1  <0> d           0.035  -2.093   1.190  0.00  0.00    -0.309 N 
ATOM      8  C5  <0> d           0.039  -2.763   0.001  0.00  0.00     0.099 A 
ATOM      9  C6  <0> d           0.023  -0.722   1.214  0.00  0.00     0.118 A 
ATOM     10  C4  <0> d           0.025  -2.089  -1.168  0.00  0.00     0.018 A 
ATOM     11  C3  <0> d           0.006  -0.685  -1.176  0.00  0.00     0.012 A 
ATOM     12  C2  <0> d           0.002  -0.004   0.002  0.00  0.00    -0.017 A 
ATOM     13  C1  <0> d          -0.018   1.503   0.010  0.00  0.00     0.052 C 
ATOM     14  N2  <0> d           0.030  -0.334   2.482  0.00  0.00    -0.344 N 
ATOM     15  C7  <0> d           0.051  -1.412   3.270  0.00  0.00     0.030 A 
ATOM     16  H21 <0> d           0.021   0.586   2.788  0.00  0.00     0.167 HD
ATOM     17  C20 <0> d           0.066  -1.399   4.777  0.00  0.00     0.070 C 
ENDBRANCH   5   6
ENDBRANCH   1   5
BRANCH   3  18
ATOM     18  C11 <0> d           3.147  -6.103   3.685  0.00  0.00     0.130 C 
BRANCH  18  19
ATOM     19  C12 <0> d           3.168  -7.554   4.168  0.00  0.00     0.098 C 
BRANCH  19  20
ATOM     20  C13 <0> d           4.596  -8.012   4.321  0.00  0.00     0.106 A 
ATOM     21  N5  <0> d           5.129  -8.536   5.458  0.00  0.00    -0.342 N 
ATOM     22  C19 <0> d           6.452  -8.830   5.194  0.00  0.00     0.065 A 
ATOM     23  H20 <0> d           4.665  -8.678   6.298  0.00  0.00     0.167 HD
ATOM     24  C14 <0> d           6.674  -8.450   3.859  0.00  0.00     0.085 A 
ATOM     25  C18 <0> d           7.489  -9.374   5.940  0.00  0.00     0.074 A 
ATOM     26  N4  <0> d           5.499  -7.959   3.387  0.00  0.00    -0.233 NA
ATOM     27  C15 <0> d           7.941  -8.625   3.296  0.00  0.00     0.037 A 
ATOM     28  C16 <0> d           8.951  -9.161   4.044  0.00  0.00     0.045 A 
ATOM     29  C17 <0> d           8.733  -9.536   5.364  0.00  0.00     0.118 A 
ATOM     30  F1  <0> d           9.744 -10.065   6.088  0.00  0.00    -0.206 F 
ENDBRANCH  19  20
ENDBRANCH  18  19
ENDBRANCH   3  18
TORSDOF 5
