REMARK  2 active torsions:
REMARK  status: ('A' for Active; 'I' for Inactive)
REMARK    1  A    between atoms: C9_11  and  C13_17 
REMARK    2  A    between atoms: C15_20  and  C17_23 
ROOT
ATOM      1  C1  <0> d          -0.018   1.503   0.010  0.00  0.00     0.048 C 
ATOM      2  C2  <0> d           0.002  -0.004   0.002  0.00  0.00    -0.057 A 
ATOM      3  C3  <0> d           0.006  -0.702  -1.217  0.00  0.00     0.024 A 
ATOM      4  C4  <0> d           0.027  -2.052  -1.228  0.00  0.00     0.099 A 
ATOM      5  N1  <0> d           0.045  -2.753  -0.058  0.00  0.00    -0.309 N 
ATOM      6  C5  <0> d           0.037  -2.103   1.145  0.00  0.00     0.112 A 
ATOM      7  C6  <0> d           0.023  -0.693   1.175  0.00  0.00     0.056 A 
ATOM      8  N2  <0> d           0.049  -3.018   2.099  0.00  0.00    -0.342 N 
ATOM      9  C7  <0> d           0.066  -4.242   1.544  0.00  0.00     0.052 A 
ATOM     10  C8  <0> d           0.077  -4.104   0.209  0.00  0.00     0.051 A 
ATOM     11  C9  <0> d           0.130  -5.151  -0.872  0.00  0.00     0.083 C 
ATOM     12  C10 <0> d           0.449  -6.527  -0.319  0.00  0.00     0.118 C 
ATOM     13  C11 <0> d          -0.635  -7.015   0.589  0.00  0.00     0.218 C 
ATOM     14  O1  <0> d          -1.343  -7.925   0.210  0.00  0.00    -0.274 OA
ATOM     15  N3  <0> d          -0.855  -6.495   1.791  0.00  0.00    -0.355 N 
ATOM     16  C12 <0> d           0.062  -5.510   2.354  0.00  0.00     0.181 C 
ATOM     17  H10 <0> d          -1.633  -6.773   2.300  0.00  0.00     0.162 HD
ATOM     18  H26 <0> d           0.046  -2.834   3.052  0.00  0.00     0.167 HD
ENDROOT
BRANCH  11  19
ATOM     19  C13 <0> d           1.191  -4.769  -1.872  0.00  0.00    -0.013 A 
ATOM     20  C16 <0> d           0.868  -4.553  -3.202  0.00  0.00     0.128 A 
ATOM     21  N5  <0> d           1.825  -4.213  -4.050  0.00  0.00    -0.245 NA
ATOM     22  C15 <0> d           3.074  -4.091  -3.646  0.00  0.00     0.129 A 
ATOM     23  N4  <0> d           3.419  -4.294  -2.390  0.00  0.00    -0.245 NA
ATOM     24  C14 <0> d           2.514  -4.631  -1.484  0.00  0.00     0.128 A 
BRANCH  22  25
ATOM     25  C17 <0> d           4.135  -3.709  -4.645  0.00  0.00     0.057 C 
ATOM     26  C22 <0> d           4.194  -4.762  -5.753  0.00  0.00     0.012 C 
ATOM     27  C21 <0> d           5.272  -4.374  -6.768  0.00  0.00     0.001 C 
ATOM     28  C20 <0> d           4.932  -3.011  -7.377  0.00  0.00     0.000 C 
ATOM     29  C19 <0> d           4.872  -1.958  -6.268  0.00  0.00     0.001 C 
ATOM     30  C18 <0> d           3.795  -2.347  -5.253  0.00  0.00     0.012 C 
ENDBRANCH  22  25
ENDBRANCH  11  19
TORSDOF 2
