REMARK  5 active torsions:
REMARK  status: ('A' for Active; 'I' for Inactive)
REMARK    1  A    between atoms: C6_6  and  N1_8 
REMARK       I    between atoms: N1_8  and  C8_9 
REMARK    2  A    between atoms: C8_9  and  C9_11 
REMARK    3  A    between atoms: C9_11  and  S1_12 
REMARK    4  A    between atoms: S1_12  and  C10_13 
REMARK    5  A    between atoms: N2_16  and  N4_20 
ROOT
ATOM      1  C10 <0> d          -2.785  -3.060   0.269  0.00  0.00     0.107 A 
ATOM      2  C11 <0> d          -3.066  -4.448   0.287  0.00  0.00     0.002 A 
ATOM      3  C12 <0> d          -4.343  -4.850   0.424  0.00  0.00     0.043 A 
ATOM      4  N2  <0> d          -5.330  -3.905   0.516  0.00  0.00    -0.227 N 
ATOM      5  C13 <0> d          -5.033  -2.595   0.486  0.00  0.00     0.364 A 
ATOM      6  O2  <0> d          -5.930  -1.772   0.571  0.00  0.00    -0.243 OA
ATOM      7  N3  <0> d          -3.773  -2.183   0.365  0.00  0.00    -0.185 NA
ATOM      8  C19 <0> d          -4.745  -6.299   0.480  0.00  0.00     0.059 C 
ATOM      9  C20 <0> d          -3.628  -7.188  -0.063  0.00  0.00     0.006 C 
ATOM     10  C21 <0> d          -2.320  -6.802   0.637  0.00  0.00     0.005 C 
ATOM     11  C22 <0> d          -1.914  -5.408   0.162  0.00  0.00     0.043 C 
ENDROOT
BRANCH   1  12
ATOM     12  S1  <0> d          -1.121  -2.501   0.110  0.00  0.00    -0.100 SA
BRANCH  12  13
ATOM     13  C9  <0> d          -1.388  -0.711   0.138  0.00  0.00     0.184 C 
BRANCH  13  14
ATOM     14  C8  <0> d          -0.063  -0.003   0.012  0.00  0.00     0.231 C 
ATOM     15  N1  <0> d          -0.016   1.344   0.009  0.00  0.00    -0.326 N 
ATOM     16  H7  <0> d          -0.839   1.858   0.004  0.00  0.00     0.169 HD
ATOM     17  O1  <0> d           0.960  -0.646  -0.088  0.00  0.00    -0.272 OA
BRANCH  15  18
ATOM     18  C6  <0> d           1.219   2.000   0.009  0.00  0.00     0.041 A 
ATOM     19  C5  <0> d           1.321   3.291  -0.493  0.00  0.00    -0.035 A 
ATOM     20  C4  <0> d           2.542   3.937  -0.492  0.00  0.00     0.009 A 
ATOM     21  C23 <0> d           0.100   3.986  -1.038  0.00  0.00     0.050 C 
ATOM     22  C3  <0> d           3.663   3.299   0.007  0.00  0.00     0.007 A 
ATOM     23  C2  <0> d           3.565   2.014   0.508  0.00  0.00    -0.060 A 
ATOM     24  C1  <0> d           4.788   1.322   1.053  0.00  0.00     0.048 C 
ATOM     25  C7  <0> d           2.346   1.365   0.515  0.00  0.00     0.037 A 
ENDBRANCH  15  18
ENDBRANCH  13  14
ENDBRANCH  12  13
ENDBRANCH   1  12
BRANCH   4  26
ATOM     26  N4  <0> d          -6.633  -4.298   0.641  0.00  0.00    -0.217 NA
ATOM     27  C17 <0> d          -7.218  -3.792   1.890  0.00  0.00     0.142 C 
ATOM     28  C16 <0> d          -8.648  -4.319   2.031  0.00  0.00     0.250 C 
ATOM     29  N5  <0> d          -9.440  -3.865   0.869  0.00  0.00    -0.073 N 
ATOM     30  C15 <0> d          -8.855  -4.399  -0.380  0.00  0.00     0.250 C 
ATOM     31  C18 <0> d         -10.841  -4.316   1.004  0.00  0.00     0.269 C 
ATOM     32  H32 <0> d          -9.422  -2.839   0.833  0.00  0.00     0.279 HD
ATOM     33  C14 <0> d          -7.426  -3.872  -0.520  0.00  0.00     0.142 C 
ENDBRANCH   4  26
TORSDOF 5
