REMARK  8 active torsions:
REMARK  status: ('A' for Active; 'I' for Inactive)
REMARK    1  A    between atoms: C2_2  and  O1_3 
REMARK    2  A    between atoms: O1_3  and  C3_4 
REMARK    3  A    between atoms: C3_4  and  C4_5 
REMARK       I    between atoms: C4_5  and  N1_7 
REMARK    4  A    between atoms: N1_7  and  N2_8 
REMARK       I    between atoms: N2_8  and  C5_9 
REMARK       I    between atoms: C5_9  and  N3_11 
REMARK    5  A    between atoms: N3_11  and  C6_12 
REMARK    6  A    between atoms: C6_12  and  C7_13 
REMARK    7  A    between atoms: C7_13  and  C8_14 
REMARK    8  A    between atoms: C8_14  and  C9_15 
ROOT
ATOM      1  N2  <0> d           2.404  -3.946   3.959  0.00  0.00    -0.249 N 
ATOM      2  C5  <0> d           2.599  -5.247   4.253  0.00  0.00     0.334 C 
ATOM      3  O3  <0> d           3.200  -5.557   5.263  0.00  0.00    -0.246 OA
ATOM      4  N3  <0> d           2.128  -6.202   3.428  0.00  0.00    -0.342 N 
ATOM      5  H9  <0> d           2.742  -3.258   4.553  0.00  0.00     0.192 HD
ATOM      6  H10 <0> d           1.649  -5.954   2.623  0.00  0.00     0.164 HD
ENDROOT
BRANCH   4   7
ATOM      7  C6  <0> d           2.341  -7.616   3.748  0.00  0.00     0.125 C 
BRANCH   7   8
ATOM      8  C7  <0> d           1.712  -8.486   2.658  0.00  0.00     0.026 C 
BRANCH   8   9
ATOM      9  C8  <0> d           1.934  -9.962   2.992  0.00  0.00     0.069 C 
BRANCH   9  10
ATOM     10  C9  <0> d           1.315 -10.819   1.918  0.00  0.00     0.075 A 
ATOM     11  S1  <0> d          -0.253 -11.434   1.843  0.00  0.00    -0.077 SA
ATOM     12  C11 <0> d          -0.092 -12.281   0.296  0.00  0.00     0.009 A 
ATOM     13  C10 <0> d           1.198 -12.023  -0.047  0.00  0.00     0.048 A 
ATOM     14  C12 <0> d          -1.094 -13.083  -0.462  0.00  0.00     0.048 C 
ATOM     15  N4  <0> d           1.865 -11.271   0.820  0.00  0.00    -0.249 NA
ATOM     16  C15 <0> d           1.781 -12.581  -1.338  0.00  0.00     0.060 C 
ATOM     17  C14 <0> d           0.898 -13.736  -1.815  0.00  0.00     0.006 C 
ATOM     18  C13 <0> d          -0.564 -13.287  -1.890  0.00  0.00     0.006 C 
ENDBRANCH   9  10
ENDBRANCH   8   9
ENDBRANCH   7   8
ENDBRANCH   4   7
BRANCH   1  19
ATOM     19  N1  <0> d           1.711  -3.588   2.795  0.00  0.00    -0.264 N 
ATOM     20  C4  <0> d           1.515  -2.287   2.501  0.00  0.00     0.259 C 
ATOM     21  O2  <0> d           1.939  -1.427   3.244  0.00  0.00    -0.269 OA
ATOM     22  H8  <0> d           1.372  -4.276   2.201  0.00  0.00     0.190 HD
BRANCH  20  23
ATOM     23  C3  <0> d           0.770  -1.902   1.249  0.00  0.00     0.272 C 
BRANCH  23  24
ATOM     24  O1  <0> d           0.693  -0.477   1.160  0.00  0.00    -0.382 OA
BRANCH  24  25
ATOM     25  C2  <0> d           0.002  -0.004   0.002  0.00  0.00     0.163 C 
ATOM     26  C1  <0> d          -0.019   1.526   0.010  0.00  0.00     0.033 C 
ENDBRANCH  24  25
ENDBRANCH  23  24
ENDBRANCH  20  23
ENDBRANCH   1  19
TORSDOF 8
