REMARK  6 active torsions:
REMARK  status: ('A' for Active; 'I' for Inactive)
REMARK    1  A    between atoms: C2_2  and  C3_3 
REMARK    2  A    between atoms: C2_2  and  O3_16 
REMARK       I    between atoms: C3_3  and  N1_5 
REMARK    3  A    between atoms: O3_16  and  C12_17 
REMARK    4  A    between atoms: C12_17  and  C13_19 
REMARK    5  A    between atoms: C15_21  and  S2_24 
REMARK    6  A    between atoms: S2_24  and  N3_27 
ROOT
ATOM      1  C1  <0> d          -4.277   4.249  -7.388  0.00  0.00     0.050 C 
ATOM      2  C2  <0> d          -2.796   3.874  -7.300  0.00  0.00     0.220 C 
ENDROOT
BRANCH   2   3
ATOM      3  C3  <0> d          -2.018   4.654  -8.328  0.00  0.00     0.254 C 
ATOM      4  O1  <0> d          -1.129   5.401  -7.977  0.00  0.00    -0.270 OA
ATOM      5  N1  <0> d          -2.310   4.523  -9.637  0.00  0.00    -0.305 N 
ATOM      6  C7  <0> d          -1.603   5.244 -10.613  0.00  0.00     0.064 A 
ATOM      7  C4  <0> d          -3.383   3.625 -10.089  0.00  0.00     0.235 C 
ATOM      8  C6  <0> d          -1.461   4.682 -11.886  0.00  0.00     0.061 A 
ATOM      9  C8  <0> d          -1.046   6.475 -10.331  0.00  0.00     0.032 A 
ATOM     10  N2  <0> d          -2.021   3.429 -12.155  0.00  0.00    -0.324 N 
ATOM     11  C11 <0> d          -0.770   5.375 -12.867  0.00  0.00     0.032 A 
ATOM     12  C5  <0> d          -2.918   2.880 -11.314  0.00  0.00     0.240 C 
ATOM     13  H7  <0> d          -1.760   2.949 -12.957  0.00  0.00     0.169 HD
ATOM     14  O2  <0> d          -3.356   1.773 -11.545  0.00  0.00    -0.271 OA
ATOM     15  C10 <0> d          -0.221   6.611 -12.579  0.00  0.00     0.002 A 
ATOM     16  C9  <0> d          -0.356   7.159 -11.316  0.00  0.00     0.002 A 
ENDBRANCH   2   3
BRANCH   2  17
ATOM     17  O3  <0> d          -2.295   4.187  -5.974  0.00  0.00    -0.303 OA
BRANCH  17  18
ATOM     18  C12 <0> d          -2.386   3.217  -5.041  0.00  0.00     0.294 C 
ATOM     19  O4  <0> d          -2.870   2.140  -5.329  0.00  0.00    -0.259 OA
BRANCH  18  20
ATOM     20  C13 <0> d          -1.899   3.463  -3.676  0.00  0.00     0.048 A 
ATOM     21  C16 <0> d          -1.344   4.675  -3.315  0.00  0.00     0.068 A 
ATOM     22  S1  <0> d          -0.945   4.448  -1.646  0.00  0.00    -0.087 SA
ATOM     23  C15 <0> d          -1.507   2.771  -1.433  0.00  0.00     0.120 A 
ATOM     24  C14 <0> d          -1.975   2.448  -2.655  0.00  0.00     0.051 A 
BRANCH  23  25
ATOM     25  S2  <0> d          -1.456   1.774   0.019  0.00  0.00     0.263 S 
ATOM     26  O5  <0> d          -2.472   0.792  -0.128  0.00  0.00    -0.200 OA
ATOM     27  O6  <0> d          -1.413   2.667   1.123  0.00  0.00    -0.200 OA
BRANCH  25  28
ATOM     28  N3  <0> d          -0.011   0.966   0.007  0.00  0.00    -0.324 N 
ATOM     29  H14 <0> d           0.002  -0.004   0.002  0.00  0.00     0.169 HD
ATOM     30  H15 <0> d           0.822   1.462   0.002  0.00  0.00     0.169 HD
ENDBRANCH  25  28
ENDBRANCH  23  25
ENDBRANCH  18  20
ENDBRANCH  17  18
ENDBRANCH   2  17
TORSDOF 6
