REMARK  6 active torsions:
REMARK  status: ('A' for Active; 'I' for Inactive)
REMARK    1  A    between atoms: C5_5  and  S1_9 
REMARK    2  A    between atoms: S1_9  and  N1_12 
REMARK    3  A    between atoms: N1_12  and  C9_13 
REMARK    4  A    between atoms: C10_14  and  N4_23 
REMARK    5  A    between atoms: N4_23  and  C17_24 
REMARK    6  A    between atoms: C21_28  and  O3_30 
ROOT
ATOM      1  C9  <0> d           1.891  -5.929   0.090  0.00  0.00     0.182 A 
ATOM      2  C10 <0> d           3.300  -6.450  -0.082  0.00  0.00     0.256 A 
ATOM      3  N2  <0> d           3.473  -7.885  -0.354  0.00  0.00    -0.361 N 
ATOM      4  C11 <0> d           2.410  -8.636  -0.433  0.00  0.00     0.059 A 
ATOM      5  C12 <0> d           2.529 -10.077  -0.703  0.00  0.00     0.031 A 
ATOM      6  C13 <0> d           1.405 -10.822  -0.777  0.00  0.00     0.002 A 
ATOM      7  C14 <0> d           0.131 -10.257  -0.603  0.00  0.00     0.002 A 
ATOM      8  C15 <0> d          -0.058  -8.943  -0.353  0.00  0.00     0.034 A 
ATOM      9  C16 <0> d           1.052  -8.066  -0.254  0.00  0.00     0.085 A 
ATOM     10  N3  <0> d           0.863  -6.787  -0.005  0.00  0.00    -0.227 NA
ATOM     11  H23 <0> d           4.358  -8.264  -0.472  0.00  0.00     0.162 HD
ENDROOT
BRANCH   1  12
ATOM     12  N1  <0> d           1.679  -4.669   0.333  0.00  0.00    -0.140 NA
BRANCH  12  13
ATOM     13  S1  <0> d           0.131  -4.113   0.527  0.00  0.00     0.285 S 
ATOM     14  O1  <0> d          -0.369  -4.709   1.716  0.00  0.00    -0.198 OA
ATOM     15  O2  <0> d          -0.515  -4.262  -0.730  0.00  0.00    -0.198 OA
BRANCH  13  16
ATOM     16  C5  <0> d           0.235  -2.381   0.836  0.00  0.00     0.082 A 
ATOM     17  C4  <0> d           0.205  -1.487  -0.218  0.00  0.00     0.026 A 
ATOM     18  C3  <0> d           0.286  -0.129   0.025  0.00  0.00     0.009 A 
ATOM     19  C2  <0> d           0.395   0.336   1.322  0.00  0.00    -0.056 A 
ATOM     20  C1  <0> d           0.483   1.817   1.587  0.00  0.00     0.049 C 
ATOM     21  C7  <0> d           0.430  -0.558   2.376  0.00  0.00    -0.055 A 
ATOM     22  C6  <0> d           0.345  -1.916   2.133  0.00  0.00     0.032 A 
ATOM     23  C8  <0> d           0.555  -0.051   3.790  0.00  0.00     0.049 C 
ENDBRANCH  13  16
ENDBRANCH  12  13
ENDBRANCH   1  12
BRANCH   2  24
ATOM     24  N4  <0> d           4.046  -6.133   1.138  0.00  0.00    -0.362 N 
ATOM     25  H15 <0> d           3.638  -6.275   2.007  0.00  0.00     0.162 HD
BRANCH  24  26
ATOM     26  C17 <0> d           5.346  -5.628   1.051  0.00  0.00     0.032 A 
ATOM     27  C22 <0> d           5.996  -5.182   2.193  0.00  0.00     0.065 A 
ATOM     28  C21 <0> d           7.287  -4.685   2.103  0.00  0.00     0.070 A 
ATOM     29  C20 <0> d           7.922  -4.626   0.871  0.00  0.00     0.037 A 
ATOM     30  C19 <0> d           7.271  -5.065  -0.266  0.00  0.00     0.005 A 
ATOM     31  C18 <0> d           5.987  -5.565  -0.180  0.00  0.00     0.029 A 
BRANCH  28  32
ATOM     32  O3  <0> d           7.928  -4.253   3.221  0.00  0.00    -0.356 OA
ATOM     33  C23 <0> d           9.255  -3.749   3.053  0.00  0.00     0.210 C 
ENDBRANCH  28  32
ENDBRANCH  24  26
ENDBRANCH   2  24
TORSDOF 6
