REMARK  6 active torsions:
REMARK  status: ('A' for Active; 'I' for Inactive)
REMARK    1  A    between atoms: C5_5  and  C8_8 
REMARK    2  A    between atoms: C8_8  and  C9_9 
REMARK    3  A    between atoms: C8_8  and  N4_25 
REMARK    4  A    between atoms: C9_9  and  N1_10 
REMARK       I    between atoms: N1_10  and  C10_11 
REMARK       I    between atoms: C10_11  and  N2_13 
REMARK    5  A    between atoms: N2_13  and  C11_14 
REMARK    6  A    between atoms: C13_16  and  C18_21 
REMARK       I    between atoms: C18_21  and  N3_23 
ROOT
ATOM      1  N1  <0> d          -1.134  -6.312   0.240  0.00  0.00    -0.341 N 
ATOM      2  C10 <0> d          -2.266  -7.038   0.332  0.00  0.00     0.320 C 
ATOM      3  O1  <0> d          -3.341  -6.479   0.427  0.00  0.00    -0.247 OA
ATOM      4  N2  <0> d          -2.205  -8.385   0.318  0.00  0.00    -0.308 N 
ATOM      5  H11 <0> d          -0.276  -6.758   0.164  0.00  0.00     0.164 HD
ATOM      6  H12 <0> d          -1.359  -8.831   0.155  0.00  0.00     0.170 HD
ENDROOT
BRANCH   1   7
ATOM      7  C9  <0> d          -1.200  -4.849   0.255  0.00  0.00     0.162 C 
BRANCH   7   8
ATOM      8  C8  <0> d           0.197  -4.273   0.013  0.00  0.00     0.238 C 
BRANCH   8   9
ATOM      9  C5  <0> d           0.696  -4.718  -1.338  0.00  0.00    -0.026 A 
ATOM     10  C4  <0> d           1.582  -5.774  -1.433  0.00  0.00     0.010 A 
ATOM     11  C3  <0> d           2.039  -6.183  -2.672  0.00  0.00     0.007 A 
ATOM     12  C2  <0> d           1.610  -5.535  -3.816  0.00  0.00    -0.062 A 
ATOM     13  C1  <0> d           2.109  -5.981  -5.166  0.00  0.00     0.048 C 
ATOM     14  C7  <0> d           0.728  -4.475  -3.720  0.00  0.00     0.007 A 
ATOM     15  C6  <0> d           0.268  -4.069  -2.481  0.00  0.00     0.010 A 
ENDBRANCH   8   9
BRANCH   8  16
ATOM     16  N4  <0> d           0.135  -2.806   0.053  0.00  0.00    -0.061 N 
ATOM     17  C23 <0> d           1.454  -2.230  -0.291  0.00  0.00     0.236 C 
ATOM     18  C22 <0> d           1.633  -0.966   0.568  0.00  0.00     0.029 C 
ATOM     19  C21 <0> d           0.356  -0.882   1.436  0.00  0.00     0.029 C 
ATOM     20  C20 <0> d          -0.160  -2.343   1.433  0.00  0.00     0.236 C 
ATOM     21  H31 <0> d          -0.569  -2.469  -0.586  0.00  0.00     0.280 HD
ENDBRANCH   8  16
ENDBRANCH   7   8
ENDBRANCH   1   7
BRANCH   4  22
ATOM     22  C11 <0> d          -3.363  -9.140   0.539  0.00  0.00     0.043 A 
ATOM     23  C16 <0> d          -3.456 -10.432   0.036  0.00  0.00    -0.035 A 
ATOM     24  C15 <0> d          -4.596 -11.183   0.256  0.00  0.00     0.010 A 
ATOM     25  C17 <0> d          -2.309 -11.018  -0.746  0.00  0.00     0.050 C 
ATOM     26  C14 <0> d          -5.652 -10.652   0.966  0.00  0.00     0.017 A 
ATOM     27  C13 <0> d          -5.571  -9.352   1.470  0.00  0.00     0.034 A 
ATOM     28  C12 <0> d          -4.419  -8.596   1.253  0.00  0.00     0.047 A 
BRANCH  27  29
ATOM     29  C18 <0> d          -6.702  -8.780   2.232  0.00  0.00     0.251 C 
ATOM     30  O2  <0> d          -6.628  -7.649   2.671  0.00  0.00    -0.268 OA
ATOM     31  N3  <0> d          -7.813  -9.512   2.440  0.00  0.00    -0.361 N 
ATOM     32  C19 <0> d          -8.934  -8.945   3.195  0.00  0.00     0.149 C 
ATOM     33  H19 <0> d          -7.872 -10.415   2.090  0.00  0.00     0.162 HD
ENDBRANCH  27  29
ENDBRANCH   4  22
TORSDOF 6
