REMARK  3 active torsions:
REMARK  status: ('A' for Active; 'I' for Inactive)
REMARK    1  A    between atoms: C3_4  and  C5_7 
REMARK    2  A    between atoms: N3_17  and  C13_18 
REMARK    3  A    between atoms: C13_18  and  C14_19 
ROOT
ATOM      1  C5  <0> d           3.573   3.437  -0.671  0.00  0.00     0.241 C 
ATOM      2  N2  <0> d           3.583   2.115  -0.035  0.00  0.00    -0.363 N 
ATOM      3  C6  <0> d           2.405   1.377  -0.017  0.00  0.00     0.045 A 
ATOM      4  C7  <0> d           2.406  -0.007  -0.022  0.00  0.00     0.030 A 
ATOM      5  C8  <0> d           1.206  -0.692  -0.013  0.00  0.00     0.002 A 
ATOM      6  C9  <0> d           0.002  -0.004   0.002  0.00  0.00     0.001 A 
ATOM      7  C10 <0> d          -0.017   1.375   0.010  0.00  0.00     0.019 A 
ATOM      8  C11 <0> d           1.186   2.078   0.002  0.00  0.00     0.058 A 
ATOM      9  C12 <0> d           1.224   3.551   0.017  0.00  0.00     0.258 C 
ATOM     10  O1  <0> d           0.224   4.190   0.285  0.00  0.00    -0.267 OA
ATOM     11  N3  <0> d           2.381   4.184  -0.270  0.00  0.00    -0.319 N 
ATOM     12  H7  <0> d           4.394   1.763   0.364  0.00  0.00     0.162 HD
ENDROOT
BRANCH   1  13
ATOM     13  C3  <0> d           3.576   3.270  -2.169  0.00  0.00     0.084 A 
ATOM     14  N1  <0> d           3.014   4.169  -2.949  0.00  0.00    -0.246 NA
ATOM     15  C2  <0> d           3.014   4.039  -4.255  0.00  0.00     0.071 A 
ATOM     16  C1  <0> d           2.431   4.957  -5.298  0.00  0.00     0.078 C 
ATOM     17  S1  <0> d           3.853   2.534  -4.473  0.00  0.00    -0.085 SA
ATOM     18  C4  <0> d           4.154   2.186  -2.746  0.00  0.00     0.082 A 
ENDBRANCH   1  13
BRANCH  11  19
ATOM     19  C13 <0> d           2.444   5.644  -0.177  0.00  0.00     0.160 C 
BRANCH  19  20
ATOM     20  C14 <0> d           2.866   6.048   1.238  0.00  0.00     0.139 C 
ATOM     21  O2  <0> d           4.213   5.627   1.481  0.00  0.00    -0.384 OA
ATOM     22  C17 <0> d           5.047   6.770   1.728  0.00  0.00     0.168 C 
ATOM     23  C16 <0> d           4.084   7.871   2.240  0.00  0.00     0.029 C 
ATOM     24  C15 <0> d           2.824   7.584   1.379  0.00  0.00     0.035 C 
ENDBRANCH  19  20
ENDBRANCH  11  19
TORSDOF 3
