REMARK  4 active torsions:
REMARK  status: ('A' for Active; 'I' for Inactive)
REMARK    1  A    between atoms: O1_2  and  C2_3 
REMARK    2  A    between atoms: C5_6  and  C8_9 
REMARK       I    between atoms: N2_13  and  C11_14 
REMARK    3  A    between atoms: C11_14  and  C12_16 
REMARK    4  A    between atoms: C12_16  and  N3_17 
ROOT
ATOM      1  C8  <0> d           2.505  -2.503  -4.381  0.00  0.00     0.184 A 
ATOM      2  C9  <0> d           1.453  -3.020  -5.383  0.00  0.00     0.243 A 
ATOM      3  C10 <0> d           1.678  -4.515  -5.411  0.00  0.00     0.098 A 
ATOM      4  N1  <0> d           2.651  -4.820  -4.604  0.00  0.00    -0.170 NA
ATOM      5  N2  <0> d           3.209  -3.720  -3.950  0.00  0.00    -0.224 N 
ATOM      6  C11 <0> d           4.227  -3.764  -3.067  0.00  0.00     0.258 C 
ATOM      7  O2  <0> d           4.633  -2.741  -2.558  0.00  0.00    -0.270 OA
ATOM      8  C16 <0> d           0.952  -5.429  -6.188  0.00  0.00     0.001 A 
ATOM      9  C17 <0> d           1.121  -6.811  -6.240  0.00  0.00     0.000 A 
ATOM     10  C18 <0> d           2.011  -7.689  -5.582  0.00  0.00     0.014 A 
ATOM     11  C19 <0> d           1.949  -9.021  -5.832  0.00  0.00     0.001 A 
ATOM     12  C20 <0> d           1.022  -9.556  -6.731  0.00  0.00     0.002 A 
ATOM     13  C21 <0> d           0.139  -8.774  -7.398  0.00  0.00     0.030 A 
ATOM     14  C22 <0> d           0.142  -7.369  -7.189  0.00  0.00     0.039 A 
ATOM     15  N5  <0> d          -0.599  -6.410  -7.703  0.00  0.00    -0.385 N 
ATOM     16  C23 <0> d          -0.184  -5.122  -7.138  0.00  0.00     0.161 A 
ATOM     17  O3  <0> d           0.134  -2.718  -4.924  0.00  0.00    -0.226 OA
ATOM     18  H23 <0> d          -1.310  -6.536  -8.351  0.00  0.00     0.160 HD
ENDROOT
BRANCH   1  19
ATOM     19  C5  <0> d           1.835  -1.835  -3.209  0.00  0.00    -0.030 A 
ATOM     20  C4  <0> d           1.786  -0.455  -3.136  0.00  0.00     0.012 A 
ATOM     21  C3  <0> d           1.173   0.161  -2.062  0.00  0.00     0.037 A 
ATOM     22  C2  <0> d           0.606  -0.607  -1.056  0.00  0.00     0.068 A 
ATOM     23  C7  <0> d           0.661  -1.992  -1.128  0.00  0.00     0.037 A 
ATOM     24  C6  <0> d           1.270  -2.602  -2.207  0.00  0.00     0.012 A 
BRANCH  22  25
ATOM     25  O1  <0> d           0.002  -0.004   0.002  0.00  0.00    -0.356 OA
ATOM     26  C1  <0> d          -0.017   1.425   0.010  0.00  0.00     0.210 C 
ENDBRANCH  22  25
ENDBRANCH   1  19
BRANCH   6  27
ATOM     27  C12 <0> d           4.861  -5.085  -2.712  0.00  0.00     0.229 C 
BRANCH  27  28
ATOM     28  N3  <0> d           5.935  -4.865  -1.741  0.00  0.00    -0.353 N 
ATOM     29  C15 <0> d           5.668  -4.895  -0.391  0.00  0.00     0.136 C 
ATOM     30  S1  <0> d           7.086  -4.107   0.354  0.00  0.00    -0.093 SA
ATOM     31  N4  <0> d           4.619  -5.388   0.209  0.00  0.00    -0.380 N 
ATOM     32  C14 <0> d           8.277  -4.368  -1.026  0.00  0.00     0.102 C 
ATOM     33  C13 <0> d           7.289  -4.609  -2.192  0.00  0.00     0.136 C 
ATOM     34  H16 <0> d           3.910  -5.795  -0.312  0.00  0.00     0.158 HD
ATOM     35  H24 <0> d           4.549  -5.347   1.175  0.00  0.00     0.158 HD
ENDBRANCH  27  28
ENDBRANCH   6  27
TORSDOF 4
