REMARK  5 active torsions:
REMARK  status: ('A' for Active; 'I' for Inactive)
REMARK    1  A    between atoms: C2_2  and  C3_3 
REMARK    2  A    between atoms: C3_3  and  N1_4 
REMARK    3  A    between atoms: C9_10  and  N2_13 
REMARK       I    between atoms: N2_13  and  C12_14 
REMARK    4  A    between atoms: C12_14  and  C13_16 
REMARK    5  A    between atoms: C13_16  and  C14_17 
ROOT
ATOM      1  N2  <0> d          -5.659  -2.893   1.002  0.00  0.00    -0.326 N 
ATOM      2  C12 <0> d          -6.883  -3.149   1.505  0.00  0.00     0.226 C 
ATOM      3  O1  <0> d          -7.031  -3.280   2.702  0.00  0.00    -0.273 OA
ATOM      4  H15 <0> d          -5.553  -2.709   0.055  0.00  0.00     0.169 HD
ENDROOT
BRANCH   2   5
ATOM      5  C13 <0> d          -8.067  -3.273   0.581  0.00  0.00     0.144 C 
BRANCH   5   6
ATOM      6  C14 <0> d          -9.307  -3.559   1.389  0.00  0.00    -0.020 A 
ATOM      7  C22 <0> d         -10.085  -2.507   1.867  0.00  0.00     0.013 A 
ATOM      8  N3  <0> d         -11.173  -2.717   2.569  0.00  0.00    -0.359 N 
ATOM      9  C23 <0> d          -9.670  -1.091   1.564  0.00  0.00     0.068 C 
ATOM     10  C21 <0> d         -11.579  -3.955   2.867  0.00  0.00     0.043 A 
ATOM     11  H29 <0> d         -11.691  -1.959   2.881  0.00  0.00     0.166 HD
ATOM     12  C16 <0> d         -10.830  -5.071   2.417  0.00  0.00    -0.003 A 
ATOM     13  C20 <0> d         -12.743  -4.174   3.624  0.00  0.00     0.030 A 
ATOM     14  C15 <0> d          -9.665  -4.849   1.658  0.00  0.00    -0.041 A 
ATOM     15  C17 <0> d         -11.261  -6.369   2.733  0.00  0.00     0.014 A 
ATOM     16  C24 <0> d          -8.836  -6.004   1.157  0.00  0.00     0.050 C 
ATOM     17  C18 <0> d         -12.393  -6.542   3.469  0.00  0.00     0.001 A 
ATOM     18  C19 <0> d         -13.131  -5.446   3.913  0.00  0.00     0.002 A 
ENDBRANCH   5   6
ENDBRANCH   2   5
BRANCH   1  19
ATOM     19  C9  <0> d          -4.542  -2.893   1.844  0.00  0.00     0.043 A 
ATOM     20  C8  <0> d          -4.561  -3.624   3.025  0.00  0.00     0.030 A 
ATOM     21  C7  <0> d          -3.457  -3.622   3.854  0.00  0.00     0.003 A 
ATOM     22  C6  <0> d          -2.333  -2.893   3.510  0.00  0.00     0.009 A 
ATOM     23  C5  <0> d          -2.310  -2.163   2.337  0.00  0.00    -0.022 A 
ATOM     24  C4  <0> d          -1.244  -1.290   1.714  0.00  0.00     0.274 C 
ATOM     25  C10 <0> d          -3.413  -2.161   1.502  0.00  0.00     0.002 A 
ATOM     26  N1  <0> d          -1.944  -0.458   0.710  0.00  0.00    -0.063 N 
ATOM     27  C11 <0> d          -3.103  -1.287   0.308  0.00  0.00     0.276 C 
ATOM     28  H28 <0> d          -1.346  -0.278  -0.083  0.00  0.00     0.280 HD
BRANCH  26  29
ATOM     29  C3  <0> d          -2.397   0.803   1.311  0.00  0.00     0.235 C 
BRANCH  29  30
ATOM     30  C2  <0> d          -1.186   1.693   1.602  0.00  0.00     0.023 C 
ATOM     31  C1  <0> d          -1.658   3.007   2.228  0.00  0.00     0.007 C 
ENDBRANCH  29  30
ENDBRANCH  26  29
ENDBRANCH   1  19
TORSDOF 5
