REMARK  6 active torsions:
REMARK  status: ('A' for Active; 'I' for Inactive)
REMARK    1  A    between atoms: C2_2  and  C4_4 
REMARK    2  A    between atoms: C2_2  and  C16_23 
REMARK    3  A    between atoms: C4_4  and  N1_5 
REMARK       I    between atoms: N1_5  and  C5_6 
REMARK       I    between atoms: C5_6  and  N2_8 
REMARK    4  A    between atoms: N2_8  and  N3_9 
REMARK       I    between atoms: N3_9  and  C6_10 
REMARK    5  A    between atoms: C6_10  and  C7_12 
REMARK    6  A    between atoms: C7_12  and  C8_13 
ROOT
ATOM      1  N1  <0> d          -2.119  -0.061   1.218  0.00  0.00    -0.341 N 
ATOM      2  C5  <0> d          -3.403  -0.406   1.442  0.00  0.00     0.334 C 
ATOM      3  O1  <0> d          -3.992  -1.108   0.643  0.00  0.00    -0.246 OA
ATOM      4  N2  <0> d          -4.034   0.029   2.551  0.00  0.00    -0.249 N 
ATOM      5  H9  <0> d          -1.649   0.499   1.855  0.00  0.00     0.164 HD
ATOM      6  H10 <0> d          -4.957  -0.219   2.712  0.00  0.00     0.192 HD
ENDROOT
BRANCH   4   7
ATOM      7  N3  <0> d          -3.355   0.839   3.471  0.00  0.00    -0.266 N 
ATOM      8  C6  <0> d          -3.986   1.274   4.580  0.00  0.00     0.243 C 
ATOM      9  O2  <0> d          -5.141   0.964   4.781  0.00  0.00    -0.271 OA
ATOM     10  H11 <0> d          -2.431   1.087   3.310  0.00  0.00     0.190 HD
BRANCH   8  11
ATOM     11  C7  <0> d          -3.256   2.144   5.569  0.00  0.00     0.183 C 
BRANCH  11  12
ATOM     12  C8  <0> d          -4.178   2.490   6.710  0.00  0.00     0.116 A 
ATOM     13  N5  <0> d          -4.315   1.759   7.850  0.00  0.00    -0.337 N 
ATOM     14  C14 <0> d          -5.245   2.404   8.641  0.00  0.00     0.064 A 
ATOM     15  C15 <0> d          -3.605   0.520   8.178  0.00  0.00     0.158 C 
ATOM     16  C9  <0> d          -5.653   3.536   7.916  0.00  0.00     0.085 A 
ATOM     17  C13 <0> d          -5.790   2.152   9.893  0.00  0.00     0.032 A 
ATOM     18  N4  <0> d          -4.963   3.527   6.747  0.00  0.00    -0.233 NA
ATOM     19  C10 <0> d          -6.607   4.396   8.465  0.00  0.00     0.034 A 
ATOM     20  C11 <0> d          -7.134   4.132   9.697  0.00  0.00     0.002 A 
ATOM     21  C12 <0> d          -6.730   3.015  10.415  0.00  0.00     0.002 A 
ENDBRANCH  11  12
ENDBRANCH   8  11
ENDBRANCH   4   7
BRANCH   1  22
ATOM     22  C4  <0> d          -1.433  -0.534   0.013  0.00  0.00     0.138 C 
BRANCH  22  23
ATOM     23  C2  <0> d           0.002  -0.004   0.002  0.00  0.00    -0.004 C 
ATOM     24  C1  <0> d          -0.019   1.526   0.010  0.00  0.00     0.021 C 
ATOM     25  C3  <0> d           0.742  -0.511   1.242  0.00  0.00     0.021 C 
BRANCH  23  26
ATOM     26  C16 <0> d           0.707  -0.490  -1.238  0.00  0.00    -0.049 A 
ATOM     27  C21 <0> d           2.024  -0.137  -1.467  0.00  0.00     0.008 A 
ATOM     28  C20 <0> d           2.672  -0.586  -2.603  0.00  0.00     0.001 A 
ATOM     29  C19 <0> d           2.001  -1.381  -3.513  0.00  0.00     0.000 A 
ATOM     30  C18 <0> d           0.683  -1.730  -3.286  0.00  0.00     0.001 A 
ATOM     31  C17 <0> d           0.036  -1.284  -2.148  0.00  0.00     0.008 A 
ENDBRANCH  23  26
ENDBRANCH  22  23
ENDBRANCH   1  22
TORSDOF 6
