REMARK  4 active torsions:
REMARK  status: ('A' for Active; 'I' for Inactive)
REMARK    1  A    between atoms: C8_8  and  O3_21 
REMARK    2  A    between atoms: C9_9  and  N1_10 
REMARK    3  A    between atoms: N1_10  and  S1_11 
REMARK    4  A    between atoms: S1_11  and  C10_14 
ROOT
ATOM      1  N1  <0> d           4.116  -0.952   1.212  0.00  0.00    -0.304 N 
ATOM      2  H9  <0> d           3.670  -1.574   1.807  0.00  0.00     0.173 HD
ENDROOT
BRANCH   1   3
ATOM      3  C9  <0> d           3.529  -0.636  -0.093  0.00  0.00     0.155 C 
ATOM      4  C4  <0> d           2.474   0.440   0.052  0.00  0.00    -0.026 A 
ATOM      5  C3  <0> d           2.605   1.810   0.200  0.00  0.00     0.010 A 
ATOM      6  C5  <0> d           1.216  -0.132   0.019  0.00  0.00    -0.047 A 
ATOM      7  C2  <0> d           1.483   2.607   0.315  0.00  0.00     0.001 A 
ATOM      8  C1  <0> d           0.224   2.035   0.282  0.00  0.00     0.001 A 
ATOM      9  C6  <0> d           0.092   0.669   0.135  0.00  0.00     0.008 A 
ATOM     10  C7  <0> d           1.339  -1.631  -0.150  0.00  0.00     0.073 C 
ATOM     11  C8  <0> d           2.780  -1.864  -0.654  0.00  0.00     0.150 C 
BRANCH  11  12
ATOM     12  O3  <0> d           2.822  -1.881  -2.082  0.00  0.00    -0.393 OA
ATOM     13  H11 <0> d           2.295  -2.585  -2.483  0.00  0.00     0.210 HD
ENDBRANCH  11  12
ENDBRANCH   1   3
BRANCH   1  14
ATOM     14  S1  <0> d           5.542  -0.245   1.671  0.00  0.00     0.261 S 
ATOM     15  O1  <0> d           5.399   1.149   1.432  0.00  0.00    -0.200 OA
ATOM     16  O2  <0> d           5.861  -0.769   2.952  0.00  0.00    -0.200 OA
BRANCH  14  17
ATOM     17  C10 <0> d           6.788  -0.821   0.566  0.00  0.00     0.105 A 
ATOM     18  C13 <0> d           7.137  -2.131   0.545  0.00  0.00     0.076 A 
ATOM     19  S2  <0> d           8.399  -2.156  -0.718  0.00  0.00    -0.073 SA
ATOM     20 Br1  <0> d           6.460  -3.560   1.581  0.00  0.00    -0.041 Br
ATOM     21  C12 <0> d           8.383  -0.418  -1.125  0.00  0.00     0.054 A 
ATOM     22  C11 <0> d           7.429   0.058  -0.288  0.00  0.00     0.053 A 
ATOM     23 Br2  <0> d           9.427   0.516  -2.396  0.00  0.00    -0.043 Br
ENDBRANCH  14  17
ENDBRANCH   1  14
TORSDOF 4
