REMARK  5 active torsions:
REMARK  status: ('A' for Active; 'I' for Inactive)
REMARK    1  A    between atoms: C7_7  and  N1_8 
REMARK       I    between atoms: N1_8  and  C8_9 
REMARK    2  A    between atoms: C8_9  and  C9_11 
REMARK    3  A    between atoms: C15_17  and  O2_18 
REMARK    4  A    between atoms: N2_25  and  C21_27 
REMARK    5  A    between atoms: C21_27  and  C22_28 
REMARK       I    between atoms: C22_28  and  N3_30 
ROOT
ATOM      1  C9  <0> d           0.308  -0.414   1.067  0.00  0.00     0.318 C 
ATOM      2  C10 <0> d           1.461   0.517   1.339  0.00  0.00     0.025 A 
ATOM      3  C11 <0> d           1.707   1.618   0.545  0.00  0.00    -0.042 A 
ATOM      4  C12 <0> d           2.775   2.454   0.829  0.00  0.00     0.047 A 
ATOM      5  C13 <0> d           3.604   2.192   1.907  0.00  0.00     0.108 A 
ATOM      6  C14 <0> d           3.362   1.082   2.709  0.00  0.00     0.139 A 
ATOM      7  C15 <0> d           2.290   0.248   2.423  0.00  0.00     0.113 A 
ATOM      8  O3  <0> d           4.307   1.040   3.695  0.00  0.00    -0.320 OA
ATOM      9  C17 <0> d           4.883   2.360   3.730  0.00  0.00     0.352 C 
ATOM     10  O4  <0> d           4.701   2.847   2.388  0.00  0.00    -0.323 OA
ATOM     11  C18 <0> d           0.835   1.940  -0.643  0.00  0.00     0.067 C 
ATOM     12  C19 <0> d          -0.480   1.166  -0.544  0.00  0.00     0.243 C 
ATOM     13  N2  <0> d          -0.172  -0.253  -0.308  0.00  0.00    -0.045 N 
ATOM     14  C20 <0> d           0.867  -0.693  -1.247  0.00  0.00     0.274 C 
ENDROOT
BRANCH   1  15
ATOM     15  C8  <0> d           0.760  -1.837   1.272  0.00  0.00     0.258 C 
ATOM     16  N1  <0> d           0.287  -2.552   2.312  0.00  0.00    -0.325 N 
ATOM     17  H9  <0> d          -0.411  -2.183   2.875  0.00  0.00     0.169 HD
ATOM     18  O1  <0> d           1.551  -2.339   0.501  0.00  0.00    -0.270 OA
BRANCH  16  19
ATOM     19  C7  <0> d           0.802  -3.825   2.578  0.00  0.00     0.040 A 
ATOM     20  C2  <0> d           0.104  -4.700   3.399  0.00  0.00    -0.035 A 
ATOM     21  C1  <0> d          -1.210  -4.279   4.006  0.00  0.00     0.050 C 
ATOM     22  C3  <0> d           0.612  -5.959   3.655  0.00  0.00     0.009 A 
ATOM     23  C4  <0> d           1.820  -6.343   3.104  0.00  0.00     0.001 A 
ATOM     24  C5  <0> d           2.520  -5.472   2.289  0.00  0.00     0.002 A 
ATOM     25  C6  <0> d           2.015  -4.215   2.025  0.00  0.00     0.030 A 
ENDBRANCH  16  19
ENDBRANCH   1  15
BRANCH  13  26
ATOM     26  C21 <0> d          -1.386  -1.058  -0.502  0.00  0.00     0.340 C 
BRANCH  26  27
ATOM     27  C22 <0> d          -2.457  -0.590   0.450  0.00  0.00     0.241 C 
ATOM     28  O5  <0> d          -2.241   0.343   1.194  0.00  0.00    -0.272 OA
ATOM     29  N3  <0> d          -3.655  -1.207   0.473  0.00  0.00    -0.369 N 
ATOM     30  H25 <0> d          -3.827  -1.953  -0.123  0.00  0.00     0.159 HD
ATOM     31  H26 <0> d          -4.344  -0.906   1.085  0.00  0.00     0.159 HD
ENDBRANCH  26  27
ENDBRANCH  13  26
BRANCH   7  32
ATOM     32  O2  <0> d           2.050  -0.838   3.205  0.00  0.00    -0.352 OA
ATOM     33  C16 <0> d           1.290  -0.625   4.396  0.00  0.00     0.210 C 
ENDBRANCH   7  32
TORSDOF 5
