REMARK  4 active torsions:
REMARK  status: ('A' for Active; 'I' for Inactive)
REMARK    1  A    between atoms: C3_3  and  C5_6 
REMARK    2  A    between atoms: C5_6  and  C6_7 
REMARK    3  A    between atoms: C6_7  and  N1_8 
REMARK    4  A    between atoms: N1_8  and  C7_9 
ROOT
ATOM      1  N1  <0> d           5.694  -0.701   0.229  0.00  0.00    -0.070 N 
ATOM      2  H13 <0> d           5.716  -0.790  -0.776  0.00  0.00     0.277 HD
ATOM      3  H20 <0> d           6.179   0.141   0.502  0.00  0.00     0.277 HD
ENDROOT
BRANCH   1   4
ATOM      4  C6  <0> d           4.300  -0.633   0.685  0.00  0.00     0.235 C 
BRANCH   4   5
ATOM      5  C5  <0> d           3.614   0.579   0.050  0.00  0.00     0.059 C 
BRANCH   5   6
ATOM      6  C3  <0> d           2.161   0.650   0.525  0.00  0.00     0.123 C 
ATOM      7  C2  <0> d           1.477   1.937  -0.002  0.00  0.00     0.034 C 
ATOM      8  C1  <0> d          -0.019   1.537   0.011  0.00  0.00     0.029 C 
ATOM      9  C4  <0> d           0.002  -0.004   0.002  0.00  0.00     0.168 C 
ATOM     10  O1  <0> d           1.379  -0.412  -0.062  0.00  0.00    -0.386 OA
ENDBRANCH   5   6
ENDBRANCH   4   5
ENDBRANCH   1   4
BRANCH   1  11
ATOM     11  C7  <0> d           6.353  -1.864   0.838  0.00  0.00     0.200 C 
ATOM     12  C10 <0> d           7.857  -1.851   0.476  0.00  0.00     0.173 C 
ATOM     13  S1  <0> d           8.272  -3.640   0.404  0.00  0.00     0.146 S 
ATOM     14  C9  <0> d           6.603  -4.353   0.717  0.00  0.00     0.142 C 
ATOM     15  O2  <0> d           8.674  -3.967  -0.919  0.00  0.00    -0.228 OA
ATOM     16  O3  <0> d           9.125  -3.963   1.493  0.00  0.00    -0.228 OA
ATOM     17  C8  <0> d           5.700  -3.153   0.312  0.00  0.00     0.049 C 
ENDBRANCH   1  11
TORSDOF 4
