REMARK  10 active torsions:
REMARK  status: ('A' for Active; 'I' for Inactive)
REMARK    1  A    between atoms: C2_2  and  O1_3 
REMARK    2  A    between atoms: O1_3  and  C3_4 
REMARK    3  A    between atoms: C3_4  and  C4_5 
REMARK    4  A    between atoms: C4_5  and  S1_6 
REMARK    5  A    between atoms: S1_6  and  N1_9 
REMARK    6  A    between atoms: N1_9  and  C6_11 
REMARK    7  A    between atoms: C6_11  and  C7_12 
REMARK    8  A    between atoms: C12_17  and  C13_18 
REMARK    9  A    between atoms: C14_19  and  C15_20 
REMARK   10  A    between atoms: C15_20  and  N2_21 
ROOT
ATOM      1  C7  <0> d          -6.036  -3.335   1.693  0.00  0.00    -0.021 A 
ATOM      2  C8  <0> d          -6.039  -2.264   0.823  0.00  0.00     0.010 A 
ATOM      3  C9  <0> d          -6.671  -1.085   1.174  0.00  0.00     0.001 A 
ATOM      4  C10 <0> d          -7.304  -0.970   2.399  0.00  0.00     0.002 A 
ATOM      5  C11 <0> d          -7.308  -2.033   3.279  0.00  0.00     0.021 A 
ATOM      6  C12 <0> d          -6.677  -3.228   2.928  0.00  0.00     0.025 A 
ENDROOT
BRANCH   1   7
ATOM      7  C6  <0> d          -5.348  -4.619   1.309  0.00  0.00     0.174 C 
BRANCH   7   8
ATOM      8  N1  <0> d          -4.640  -4.432   0.040  0.00  0.00    -0.311 N 
ATOM      9  C5  <0> d          -5.363  -4.559  -1.228  0.00  0.00     0.163 C 
BRANCH   8  10
ATOM     10  S1  <0> d          -3.022  -4.079   0.039  0.00  0.00     0.230 S 
ATOM     11  O2  <0> d          -2.546  -4.561  -1.211  0.00  0.00    -0.206 OA
ATOM     12  O3  <0> d          -2.531  -4.619   1.258  0.00  0.00    -0.206 OA
BRANCH  10  13
ATOM     13  C4  <0> d          -2.941  -2.267   0.081  0.00  0.00     0.189 C 
BRANCH  13  14
ATOM     14  C3  <0> d          -1.477  -1.822   0.083  0.00  0.00     0.184 C 
BRANCH  14  15
ATOM     15  O1  <0> d          -1.413  -0.395   0.116  0.00  0.00    -0.391 OA
BRANCH  15  16
ATOM     16  C2  <0> d          -0.083   0.128   0.120  0.00  0.00     0.163 C 
ATOM     17  C1  <0> d          -0.135   1.656   0.157  0.00  0.00     0.033 C 
ENDBRANCH  15  16
ENDBRANCH  14  15
ENDBRANCH  13  14
ENDBRANCH  10  13
ENDBRANCH   8  10
ENDBRANCH   7   8
ENDBRANCH   1   7
BRANCH   6  18
ATOM     18  C13 <0> d          -6.683  -4.337   3.834  0.00  0.00    -0.065 C 
ATOM     19  C14 <0> d          -6.688  -5.246   4.576  0.00  0.00    -0.074 C 
BRANCH  19  20
ATOM     20  C15 <0> d          -6.694  -6.386   5.507  0.00  0.00     0.323 C 
BRANCH  20  21
ATOM     21  N2  <0> d          -7.429  -6.019   6.726  0.00  0.00    -0.069 N 
ATOM     22  H21 <0> d          -6.980  -5.229   7.164  0.00  0.00     0.275 HD
ATOM     23  H22 <0> d          -8.378  -5.776   6.486  0.00  0.00     0.275 HD
ATOM     24  H23 <0> d          -7.433  -6.801   7.364  0.00  0.00     0.275 HD
ENDBRANCH  20  21
ENDBRANCH  19  20
ENDBRANCH   6  18
TORSDOF 10
