REMARK  2 active torsions:
REMARK  status: ('A' for Active; 'I' for Inactive)
REMARK    1  A    between atoms: C4_6  and  C5_7 
REMARK       I    between atoms: C5_7  and  N2_9 
REMARK    2  A    between atoms: N2_9  and  C6_10 
ROOT
ATOM      1  C6  <0> d          -2.112  -3.059   0.007  0.00  0.00     0.099 A 
ATOM      2  C7  <0> d          -2.134  -4.446   0.005  0.00  0.00     0.086 A 
ATOM      3  C8  <0> d          -3.433  -5.086   0.014  0.00  0.00    -0.018 A 
ATOM      4  C9  <0> d          -4.477  -4.225   0.021  0.00  0.00     0.018 A 
ATOM      5  S1  <0> d          -3.734  -2.622   0.026  0.00  0.00    -0.073 SA
ATOM      6  C10 <0> d          -5.927  -4.595   0.025  0.00  0.00     0.279 C 
ATOM      7  N3  <0> d          -6.044  -6.013  -0.362  0.00  0.00    -0.070 N 
ATOM      8  C11 <0> d          -5.131  -6.824   0.454  0.00  0.00     0.237 C 
ATOM      9  C12 <0> d          -3.681  -6.588   0.018  0.00  0.00     0.069 C 
ATOM     10  C13 <0> d          -0.924  -5.212  -0.004  0.00  0.00     0.103 C 
ATOM     11  N4  <0> d           0.036  -5.819  -0.012  0.00  0.00    -0.191 NA
ATOM     12  H7  <0> d          -6.992  -6.324  -0.214  0.00  0.00     0.277 HD
ATOM     13  H12 <0> d          -5.804  -6.116  -1.337  0.00  0.00     0.277 HD
ENDROOT
BRANCH   1  14
ATOM     14  N2  <0> d          -1.004  -2.224   0.000  0.00  0.00    -0.315 N 
ATOM     15  C5  <0> d          -1.169  -0.886   0.009  0.00  0.00     0.273 C 
ATOM     16  O1  <0> d          -2.289  -0.411   0.023  0.00  0.00    -0.266 OA
ATOM     17  H4  <0> d          -0.111  -2.603  -0.011  0.00  0.00     0.170 HD
BRANCH  15  18
ATOM     18  C4  <0> d           0.002  -0.004   0.002  0.00  0.00     0.102 A 
ATOM     19  C1  <0> d          -0.017   1.375   0.010  0.00  0.00     0.055 A 
ATOM     20  C2  <0> d           1.315   1.804  -0.001  0.00  0.00     0.028 A 
ATOM     21  C3  <0> d           2.106   0.704  -0.014  0.00  0.00     0.107 A 
ATOM     22 Br1  <0> d           1.905   3.601   0.003  0.00  0.00    -0.050 Br
ATOM     23  N1  <0> d           1.320  -0.401  -0.013  0.00  0.00    -0.360 N 
ATOM     24  H1  <0> d           1.634  -1.319  -0.021  0.00  0.00     0.165 HD
ENDBRANCH  15  18
ENDBRANCH   1  14
TORSDOF 2
