REMARK  5 active torsions:
REMARK  status: ('A' for Active; 'I' for Inactive)
REMARK    1  A    between atoms: C9_9  and  C11_14 
REMARK    2  A    between atoms: C11_14  and  C12_15 
REMARK    3  A    between atoms: C11_14  and  N6_32 
REMARK    4  A    between atoms: N5_19  and  C13_20 
REMARK    5  A    between atoms: C19_26  and  O2_29 
ROOT
ATOM      1  C11 <0> d          -0.120   0.978  -2.329  0.00  0.00     0.299 C 
ENDROOT
BRANCH   1   2
ATOM      2  C9  <0> d          -1.044   1.478  -3.410  0.00  0.00     0.049 A 
ATOM      3  C8  <0> d          -0.533   2.105  -4.498  0.00  0.00     0.029 A 
ATOM      4  C6  <0> d          -1.458   2.579  -5.530  0.00  0.00    -0.008 A 
ATOM      5  C5  <0> d          -2.839   2.369  -5.357  0.00  0.00     0.051 A 
ATOM      6  C7  <0> d          -0.990   3.232  -6.675  0.00  0.00     0.020 A 
ATOM      7  C4  <0> d          -3.725   2.816  -6.332  0.00  0.00    -0.034 A 
ATOM      8  N1  <0> d          -3.294   1.725  -4.227  0.00  0.00    -0.322 N 
ATOM      9  C3  <0> d          -3.242   3.457  -7.453  0.00  0.00     0.015 A 
ATOM     10  C22 <0> d          -5.207   2.600  -6.165  0.00  0.00     0.050 C 
ATOM     11  C2  <0> d          -1.879   3.662  -7.620  0.00  0.00    -0.061 A 
ATOM     12  C1  <0> d          -1.375   4.365  -8.854  0.00  0.00     0.048 C 
ATOM     13  C10 <0> d          -2.437   1.288  -3.287  0.00  0.00     0.254 A 
ATOM     14  H1  <0> d          -4.276   1.581  -4.103  0.00  0.00     0.169 HD
ATOM     15  O1  <0> d          -2.875   0.718  -2.303  0.00  0.00    -0.268 OA
ENDBRANCH   1   2
BRANCH   1  16
ATOM     16  C12 <0> d           1.307   1.272  -2.713  0.00  0.00     0.184 A 
ATOM     17  N5  <0> d           2.225   0.384  -3.136  0.00  0.00    -0.223 N 
ATOM     18  N4  <0> d           3.313   1.040  -3.361  0.00  0.00    -0.043 NA
ATOM     19  N3  <0> d           3.113   2.282  -3.089  0.00  0.00    -0.023 NA
ATOM     20  N2  <0> d           1.897   2.443  -2.693  0.00  0.00    -0.111 NA
BRANCH  17  21
ATOM     21  C13 <0> d           2.025  -1.056  -3.313  0.00  0.00     0.048 C 
ATOM     22  C14 <0> d           0.859  -1.295  -4.274  0.00  0.00     0.040 C 
ATOM     23  C15 <0> d           3.297  -1.681  -3.890  0.00  0.00     0.040 C 
ATOM     24  C16 <0> d           1.710  -1.698  -1.960  0.00  0.00     0.040 C 
ENDBRANCH  17  21
ENDBRANCH   1  16
BRANCH   1  25
ATOM     25  N6  <0> d          -0.464   1.644  -1.056  0.00  0.00    -0.055 N 
ATOM     26  C17 <0> d           0.474   1.220   0.005  0.00  0.00     0.238 C 
ATOM     27  C18 <0> d           0.026   1.829   1.336  0.00  0.00     0.059 C 
ATOM     28  C19 <0> d           0.033   3.356   1.221  0.00  0.00     0.121 C 
ATOM     29  C20 <0> d          -0.886   3.777   0.070  0.00  0.00     0.059 C 
ATOM     30  C21 <0> d          -0.412   3.112  -1.224  0.00  0.00     0.238 C 
ATOM     31  H31 <0> d          -1.417   1.374  -0.785  0.00  0.00     0.281 HD
BRANCH  28  32
ATOM     32  O2  <0> d          -0.439   3.929   2.442  0.00  0.00    -0.395 OA
ATOM     33  H27 <0> d           0.097   3.704   3.215  0.00  0.00     0.210 HD
ENDBRANCH  28  32
ENDBRANCH   1  25
TORSDOF 5
