REMARK  7 active torsions:
REMARK  status: ('A' for Active; 'I' for Inactive)
REMARK    1  A    between atoms: N1_5  and  C5_7 
REMARK    2  A    between atoms: C5_7  and  C6_8 
REMARK    3  A    between atoms: C6_8  and  C7_9 
REMARK    4  A    between atoms: C7_9  and  N3_10 
REMARK       I    between atoms: N3_10  and  C8_11 
REMARK    5  A    between atoms: C8_11  and  C9_13 
REMARK    6  A    between atoms: C11_16  and  S1_18 
REMARK    7  A    between atoms: S1_18  and  N5_21 
ROOT
ATOM      1  C9  <0> d           4.574  -6.749   4.014  0.00  0.00     0.106 A 
ATOM      2  N4  <0> d           5.647  -6.148   3.591  0.00  0.00    -0.258 NA
ATOM      3  C10 <0> d           6.781  -6.720   4.011  0.00  0.00     0.138 A 
ATOM      4  C11 <0> d           6.560  -7.792   4.778  0.00  0.00     0.080 A 
ATOM      5  C12 <0> d           5.050  -7.914   4.862  0.00  0.00     0.119 A 
ENDROOT
BRANCH   1   6
ATOM      6  C8  <0> d           3.179  -6.371   3.733  0.00  0.00     0.266 C 
ATOM      7  N3  <0> d           2.914  -5.302   2.956  0.00  0.00    -0.356 N 
ATOM      8  H11 <0> d           3.642  -4.782   2.582  0.00  0.00     0.162 HD
ATOM      9  O1  <0> d           2.265  -7.023   4.201  0.00  0.00    -0.266 OA
BRANCH   7  10
ATOM     10  C7  <0> d           1.526  -4.926   2.676  0.00  0.00     0.124 C 
BRANCH  10  11
ATOM     11  C6  <0> d           1.504  -3.688   1.777  0.00  0.00     0.041 C 
BRANCH  11  12
ATOM     12  C5  <0> d           0.055  -3.295   1.485  0.00  0.00     0.152 C 
BRANCH  12  13
ATOM     13  N1  <0> d           0.034  -2.109   0.625  0.00  0.00    -0.274 N 
ATOM     14  C4  <0> d           0.028  -2.107  -0.725  0.00  0.00     0.028 A 
ATOM     15  C3  <0> d           0.008  -0.818  -1.135  0.00  0.00     0.055 A 
ATOM     16  C17 <0> d           0.040  -3.323  -1.615  0.00  0.00     0.070 C 
ATOM     17  C2  <0> d           0.002  -0.004   0.002  0.00  0.00     0.053 A 
ATOM     18  C1  <0> d          -0.018   1.503   0.010  0.00  0.00     0.072 C 
ATOM     19  N2  <0> d           0.023  -0.777   1.058  0.00  0.00    -0.177 NA
ENDBRANCH  12  13
ENDBRANCH  11  12
ENDBRANCH  10  11
ENDBRANCH   7  10
ENDBRANCH   1   6
BRANCH   4  20
ATOM     20  S1  <0> d           7.763  -8.833   5.535  0.00  0.00     0.259 S 
ATOM     21  O2  <0> d           9.022  -8.201   5.350  0.00  0.00    -0.201 OA
ATOM     22  O3  <0> d           7.260  -9.166   6.822  0.00  0.00    -0.201 OA
BRANCH  20  23
ATOM     23  N5  <0> d           7.808 -10.242   4.665  0.00  0.00    -0.303 N 
ATOM     24  C16 <0> d           8.721 -10.397   3.522  0.00  0.00     0.161 C 
ATOM     25  C15 <0> d           7.920 -10.907   2.324  0.00  0.00     0.188 C 
ATOM     26  O4  <0> d           7.181 -12.068   2.709  0.00  0.00    -0.388 OA
ATOM     27  C14 <0> d           6.214 -11.833   3.735  0.00  0.00     0.188 C 
ATOM     28  C13 <0> d           6.932 -11.373   5.009  0.00  0.00     0.161 C 
ENDBRANCH  20  23
ENDBRANCH   4  20
TORSDOF 7
