REMARK  3 active torsions:
REMARK  status: ('A' for Active; 'I' for Inactive)
REMARK    1  A    between atoms: C3_3  and  N2_10 
REMARK    2  A    between atoms: C5_5  and  N1_7 
REMARK    3  A    between atoms: C9_14  and  C10_16 
ROOT
ATOM      1  C1  <0> d          -0.017   1.379   0.010  0.00  0.00     0.005 A 
ATOM      2  C2  <0> d           1.167   2.088   0.002  0.00  0.00     0.032 A 
ATOM      3  C3  <0> d           2.385   1.407  -0.013  0.00  0.00     0.062 A 
ATOM      4  C4  <0> d           2.397   0.010  -0.021  0.00  0.00     0.067 A 
ATOM      5  C5  <0> d           1.206  -0.686  -0.013  0.00  0.00     0.105 A 
ATOM      6  C6  <0> d           0.002  -0.004   0.002  0.00  0.00     0.036 A 
ENDROOT
BRANCH   3   7
ATOM      7  N2  <0> d           3.563   2.104  -0.021  0.00  0.00    -0.225 NA
ATOM      8  C7  <0> d           3.711   3.135  -0.822  0.00  0.00     0.163 C 
ATOM      9  S1  <0> d           5.135   4.198  -1.017  0.00  0.00    -0.085 SA
ATOM     10  N3  <0> d           2.800   3.669  -1.717  0.00  0.00    -0.368 N 
ATOM     11  C9  <0> d           4.711   4.925  -2.658  0.00  0.00     0.083 C 
ATOM     12  C8  <0> d           3.386   4.177  -2.955  0.00  0.00     0.138 C 
ATOM     13  H10 <0> d           1.847   3.702  -1.537  0.00  0.00     0.161 HD
BRANCH  11  14
ATOM     14  C10 <0> d           5.777   4.604  -3.707  0.00  0.00     0.102 C 
ATOM     15 Br1  <0> d           7.431   5.578  -3.280  0.00  0.00    -0.095 Br
ENDBRANCH  11  14
ENDBRANCH   3   7
BRANCH   5  16
ATOM     16  N1  <0> d           1.216  -2.166  -0.021  0.00  0.00    -0.116 N 
ATOM     17  O1  <0> d           2.268  -2.763  -0.035  0.00  0.00    -0.532 OA
ATOM     18  O2  <0> d           0.174  -2.778  -0.015  0.00  0.00    -0.532 OA
ENDBRANCH   5  16
TORSDOF 3
