REMARK  4 active torsions:
REMARK  status: ('A' for Active; 'I' for Inactive)
REMARK    1  A    between atoms: C2_2  and  S1_4 
REMARK    2  A    between atoms: S1_4  and  C4_7 
REMARK    3  A    between atoms: C8_11  and  O3_13 
REMARK    4  A    between atoms: C15_24  and  O4_26 
ROOT
ATOM      1  C4  <0> d          -2.086  -2.316   0.590  0.00  0.00     0.062 C 
ATOM      2  C5  <0> d          -1.899  -2.947  -0.638  0.00  0.00     0.033 C 
ATOM      3  C6  <0> d          -1.659  -4.273  -0.635  0.00  0.00    -0.019 C 
ATOM      4  C7  <0> d          -1.771  -5.042   0.514  0.00  0.00     0.076 C 
ATOM      5  C8  <0> d          -1.774  -4.419   1.746  0.00  0.00     0.097 C 
ATOM      6  C9  <0> d          -1.946  -3.036   1.766  0.00  0.00     0.062 C 
ATOM      7  N1  <0> d          -2.340  -6.290   0.290  0.00  0.00    -0.331 N 
ATOM      8  C11 <0> d          -2.191  -7.475   0.952  0.00  0.00     0.163 A 
ATOM      9  C12 <0> d          -1.541  -8.299  -0.089  0.00  0.00     0.145 A 
ATOM     10  C13 <0> d          -1.215  -9.573   0.227  0.00  0.00     0.160 A 
ATOM     11  N2  <0> d          -1.502 -10.024   1.452  0.00  0.00    -0.227 NA
ATOM     12  C14 <0> d          -2.093  -9.258   2.348  0.00  0.00     0.237 A 
ATOM     13  N3  <0> d          -2.432  -7.997   2.093  0.00  0.00    -0.222 NA
ATOM     14 Cl1  <0> d          -0.438 -10.602  -0.935  0.00  0.00    -0.060 Cl
ATOM     15  N4  <0> d          -1.440  -7.508  -1.190  0.00  0.00    -0.222 NA
ATOM     16  C15 <0> d          -0.794  -6.402  -1.036  0.00  0.00     0.142 C 
ATOM     17  C16 <0> d          -1.018  -5.093  -1.786  0.00  0.00     0.127 C 
ATOM     18  C17 <0> d          -3.255  -6.343  -0.853  0.00  0.00     0.158 C 
ENDROOT
BRANCH   1  19
ATOM     19  S1  <0> d          -2.491  -0.603   0.648  0.00  0.00     0.179 S 
ATOM     20  O1  <0> d          -3.182  -0.435   1.878  0.00  0.00    -0.222 OA
ATOM     21  O2  <0> d          -3.140  -0.342  -0.589  0.00  0.00    -0.222 OA
BRANCH  19  22
ATOM     22  C2  <0> d          -0.893   0.253   0.707  0.00  0.00     0.105 C 
ATOM     23  C1  <0> d          -1.124   1.755   0.886  0.00  0.00     0.026 C 
ATOM     24  C3  <0> d          -0.072  -0.280   1.883  0.00  0.00     0.026 C 
ENDBRANCH  19  22
ENDBRANCH   1  19
BRANCH   5  25
ATOM     25  O3  <0> d          -1.610  -5.127   2.895  0.00  0.00    -0.354 OA
ATOM     26  C10 <0> d          -1.629  -4.389   4.119  0.00  0.00     0.210 C 
ENDBRANCH   5  25
BRANCH  16  27
ATOM     27  O4  <0> d           0.187  -6.403  -0.110  0.00  0.00    -0.348 OA
ATOM     28  H16 <0> d           0.298  -7.249   0.344  0.00  0.00     0.219 HD
ENDBRANCH  16  27
TORSDOF 4
