REMARK  2 active torsions:
REMARK  status: ('A' for Active; 'I' for Inactive)
REMARK    1  A    between atoms: C7_8  and  C11_16 
REMARK    2  A    between atoms: C10_12  and  N4_15 
ROOT
ATOM      1  C1  <0> d          -0.280   1.337  -0.190  0.00  0.00     0.027 C 
ATOM      2  C2  <0> d          -0.343  -0.179  -0.388  0.00  0.00     0.005 C 
ATOM      3  C3  <0> d          -1.775  -0.666  -0.205  0.00  0.00     0.059 C 
ATOM      4  C4  <0> d          -2.269  -0.571   1.198  0.00  0.00    -0.033 C 
ATOM      5  C5  <0> d          -1.546  -0.429   2.336  0.00  0.00    -0.012 C 
ATOM      6  C6  <0> d          -0.042  -0.378   2.408  0.00  0.00     0.116 C 
ATOM      7  S1  <0> d           0.682  -1.010   0.869  0.00  0.00    -0.155 SA
ATOM      8  C7  <0> d          -2.260  -0.274   3.618  0.00  0.00     0.072 C 
ATOM      9  N1  <0> d          -3.523  -0.547   3.797  0.00  0.00    -0.254 NA
ATOM     10  C8  <0> d          -4.290  -1.117   2.696  0.00  0.00     0.288 C 
ATOM     11  C9  <0> d          -3.664  -0.595   1.414  0.00  0.00     0.041 C 
ATOM     12  C10 <0> d          -4.719  -0.176   0.684  0.00  0.00     0.125 C 
ATOM     13  N2  <0> d          -5.833  -0.177   1.463  0.00  0.00    -0.265 N 
ATOM     14  N3  <0> d          -5.675  -0.664   2.611  0.00  0.00    -0.183 NA
ATOM     15  C17 <0> d           0.156  -0.541  -1.788  0.00  0.00     0.027 C 
ATOM     16  H19 <0> d          -6.687   0.164   1.156  0.00  0.00     0.190 HD
ENDROOT
BRANCH   8  17
ATOM     17  C11 <0> d          -1.489   0.227   4.782  0.00  0.00    -0.007 A 
ATOM     18  C16 <0> d          -1.655  -0.360   6.036  0.00  0.00     0.014 A 
ATOM     19  C15 <0> d          -0.932   0.107   7.114  0.00  0.00     0.001 A 
ATOM     20  C14 <0> d          -0.051   1.161   6.955  0.00  0.00     0.000 A 
ATOM     21  C13 <0> d           0.114   1.751   5.715  0.00  0.00     0.001 A 
ATOM     22  C12 <0> d          -0.600   1.289   4.628  0.00  0.00     0.014 A 
ENDBRANCH   8  17
BRANCH  12  23
ATOM     23  N4  <0> d          -4.673   0.196  -0.648  0.00  0.00    -0.384 N 
ATOM     24  H9  <0> d          -3.956  -0.125  -1.218  0.00  0.00     0.157 HD
ATOM     25  H10 <0> d          -5.358   0.778  -1.013  0.00  0.00     0.157 HD
ENDBRANCH  12  23
TORSDOF 2
