REMARK  4 active torsions:
REMARK  status: ('A' for Active; 'I' for Inactive)
REMARK    1  A    between atoms: C7_8  and  N3_15 
REMARK    2  A    between atoms: C8_9  and  N2_12 
REMARK    3  A    between atoms: N3_15  and  C10_16 
REMARK    4  A    between atoms: C14_20  and  N4_21 
ROOT
ATOM      1  C1  <0> d           5.387   2.461   1.358  0.00  0.00     0.021 A 
ATOM      2  C2  <0> d           4.156   2.222   1.889  0.00  0.00     0.034 A 
ATOM      3  C3  <0> d           3.692   0.901   2.008  0.00  0.00     0.069 A 
ATOM      4  C4  <0> d           4.519  -0.161   1.569  0.00  0.00     0.023 A 
ATOM      5  C5  <0> d           5.780   0.120   1.027  0.00  0.00     0.035 A 
ATOM      6  C6  <0> d           6.199   1.414   0.928  0.00  0.00     0.011 A 
ATOM      7 Br1  <0> d           7.901   1.791   0.196  0.00  0.00    -0.051 Br
ATOM      8  C7  <0> d           4.048  -1.490   1.690  0.00  0.00     0.076 A 
ATOM      9  C8  <0> d           2.790  -1.685   2.236  0.00  0.00     0.147 A 
ATOM     10  C9  <0> d           2.039  -0.590   2.643  0.00  0.00     0.155 A 
ATOM     11  N1  <0> d           2.486   0.638   2.526  0.00  0.00    -0.258 NA
ENDROOT
BRANCH   8  12
ATOM     12  N3  <0> d           4.822  -2.564   1.275  0.00  0.00    -0.380 N 
ATOM     13  H7  <0> d           4.480  -3.178   0.606  0.00  0.00     0.160 HD
BRANCH  12  14
ATOM     14  C10 <0> d           6.155  -2.770   1.845  0.00  0.00     0.112 C 
ATOM     15  C14 <0> d           6.063  -3.676   3.086  0.00  0.00     0.206 C 
ATOM     16  C13 <0> d           6.912  -4.928   2.780  0.00  0.00     0.035 C 
ATOM     17  C12 <0> d           7.916  -4.452   1.701  0.00  0.00     0.004 C 
ATOM     18  C11 <0> d           7.057  -3.502   0.830  0.00  0.00     0.027 C 
BRANCH  15  19
ATOM     19  N4  <0> d           4.665  -4.061   3.325  0.00  0.00    -0.073 N 
ATOM     20  H14 <0> d           4.312  -4.561   2.522  0.00  0.00     0.274 HD
ATOM     21  H15 <0> d           4.615  -4.655   4.139  0.00  0.00     0.274 HD
ATOM     22  H16 <0> d           4.109  -3.233   3.477  0.00  0.00     0.274 HD
ENDBRANCH  15  19
ENDBRANCH  12  14
ENDBRANCH   8  12
BRANCH   9  23
ATOM     23  N2  <0> d           2.248  -3.055   2.386  0.00  0.00    -0.112 N 
ATOM     24  O1  <0> d           1.599  -3.345   3.364  0.00  0.00    -0.532 OA
ATOM     25  O2  <0> d           2.453  -3.883   1.529  0.00  0.00    -0.532 OA
ENDBRANCH   9  23
TORSDOF 4
