REMARK  5 active torsions:
REMARK  status: ('A' for Active; 'I' for Inactive)
REMARK    1  A    between atoms: C2_2  and  O1_3 
REMARK    2  A    between atoms: O1_3  and  C3_4 
REMARK    3  A    between atoms: C3_4  and  C4_6 
REMARK    4  A    between atoms: C4_6  and  C16_19 
REMARK       I    between atoms: C16_19  and  N2_21 
REMARK    5  A    between atoms: N2_21  and  C17_22 
ROOT
ATOM      1  C4  <0> d           1.230  -2.344   2.306  0.00  0.00     0.134 C 
ATOM      2  C5  <0> d           0.858  -3.670   2.534  0.00  0.00     0.061 C 
ATOM      3  C6  <0> d           0.279  -4.510   1.462  0.00  0.00    -0.002 A 
ATOM      4  C7  <0> d          -0.056  -3.941   0.232  0.00  0.00     0.014 A 
ATOM      5  C8  <0> d          -0.589  -4.733  -0.764  0.00  0.00     0.001 A 
ATOM      6  C9  <0> d          -0.788  -6.085  -0.541  0.00  0.00     0.001 A 
ATOM      7  C10 <0> d          -0.459  -6.651   0.676  0.00  0.00     0.008 A 
ATOM      8  C11 <0> d           0.072  -5.872   1.687  0.00  0.00    -0.043 A 
ATOM      9  C12 <0> d           0.406  -6.505   3.011  0.00  0.00     0.069 C 
ATOM     10  C13 <0> d           1.441  -5.671   3.767  0.00  0.00     0.027 C 
ATOM     11  N1  <0> d           1.016  -4.264   3.767  0.00  0.00    -0.379 N 
ATOM     12  C14 <0> d           2.800  -5.791   3.074  0.00  0.00     0.038 C 
ATOM     13  C15 <0> d           1.551  -6.175   5.207  0.00  0.00     0.038 C 
ATOM     14  H12 <0> d           0.853  -3.782   4.592  0.00  0.00     0.160 HD
ENDROOT
BRANCH   1  15
ATOM     15  C3  <0> d           1.367  -1.848   0.936  0.00  0.00     0.301 C 
ATOM     16  O2  <0> d           0.477  -1.184   0.438  0.00  0.00    -0.259 OA
BRANCH  15  17
ATOM     17  O1  <0> d           2.478  -2.127   0.225  0.00  0.00    -0.318 OA
BRANCH  17  18
ATOM     18  C2  <0> d           2.544  -1.611  -1.106  0.00  0.00     0.174 C 
ATOM     19  C1  <0> d           3.868  -2.027  -1.750  0.00  0.00     0.034 C 
ENDBRANCH  17  18
ENDBRANCH  15  17
ENDBRANCH   1  15
BRANCH   1  20
ATOM     20  C16 <0> d           1.485  -1.450   3.438  0.00  0.00     0.264 C 
ATOM     21  O3  <0> d           1.469  -1.886   4.574  0.00  0.00    -0.267 OA
ATOM     22  N2  <0> d           1.736  -0.143   3.221  0.00  0.00    -0.321 N 
ATOM     23  H19 <0> d           1.786   0.197   2.314  0.00  0.00     0.169 HD
BRANCH  22  24
ATOM     24  C17 <0> d           1.925   0.722   4.304  0.00  0.00     0.052 A 
ATOM     25  C22 <0> d           1.734   2.089   4.145  0.00  0.00     0.037 A 
ATOM     26  C21 <0> d           1.915   2.939   5.219  0.00  0.00     0.021 A 
ATOM     27 Br1  <0> d           1.218   2.783   2.464  0.00  0.00    -0.049 Br
ATOM     28  C20 <0> d           2.298   2.433   6.447  0.00  0.00     0.002 A 
ATOM     29  C19 <0> d           2.495   1.073   6.607  0.00  0.00     0.002 A 
ATOM     30  C18 <0> d           2.309   0.216   5.539  0.00  0.00     0.031 A 
ENDBRANCH  22  24
ENDBRANCH   1  20
TORSDOF 5
