REMARK  2 active torsions:
REMARK  status: ('A' for Active; 'I' for Inactive)
REMARK    1  A    between atoms: C2_2  and  N1_5 
REMARK    2  A    between atoms: C6_8  and  C9_15 
ROOT
ATOM      1  C9  <0> d           1.825  -3.713  -2.744  0.00  0.00     0.257 C 
ATOM      2  C10 <0> d           0.494  -4.456  -2.881  0.00  0.00     0.147 A 
ATOM      3  C11 <0> d           0.840  -5.940  -2.939  0.00  0.00    -0.041 A 
ATOM      4  C12 <0> d           0.265  -6.416  -4.034  0.00  0.00    -0.005 A 
ATOM      5  C13 <0> d           0.165  -7.780  -4.577  0.00  0.00     0.014 A 
ATOM      6  C14 <0> d          -0.499  -7.910  -5.756  0.00  0.00     0.001 A 
ATOM      7  C15 <0> d          -1.066  -6.831  -6.442  0.00  0.00     0.002 A 
ATOM      8  C16 <0> d          -1.028  -5.544  -6.013  0.00  0.00     0.030 A 
ATOM      9  C17 <0> d          -0.361  -5.282  -4.781  0.00  0.00     0.039 A 
ATOM     10  N3  <0> d          -0.201  -4.148  -4.129  0.00  0.00    -0.378 N 
ATOM     11  C18 <0> d           1.761  -6.574  -1.925  0.00  0.00     0.065 C 
ATOM     12  C19 <0> d           2.981  -5.642  -1.814  0.00  0.00     0.239 C 
ATOM     13  N4  <0> d           2.546  -4.262  -1.585  0.00  0.00    -0.064 N 
ATOM     14  C20 <0> d           3.725  -3.427  -1.317  0.00  0.00     0.270 C 
ATOM     15  H24 <0> d          -0.485  -3.266  -4.418  0.00  0.00     0.160 HD
ATOM     16  H25 <0> d           1.939  -4.239  -0.780  0.00  0.00     0.280 HD
ENDROOT
BRANCH   1  17
ATOM     17  C6  <0> d           1.567  -2.244  -2.533  0.00  0.00     0.097 A 
ATOM     18  C5  <0> d           0.909  -1.795  -1.374  0.00  0.00     0.265 A 
ATOM     19  N1  <0> d           0.688  -0.476  -1.203  0.00  0.00    -0.257 N 
ATOM     20  O1  <0> d           0.540  -2.593  -0.530  0.00  0.00    -0.267 OA
ATOM     21  C8  <0> d           1.088   0.409  -2.135  0.00  0.00     0.332 A 
ATOM     22  N2  <0> d           1.724   0.002  -3.248  0.00  0.00    -0.286 N 
ATOM     23  O2  <0> d           0.875   1.594  -1.965  0.00  0.00    -0.246 OA
ATOM     24  H1  <0> d           2.008   0.656  -3.907  0.00  0.00     0.172 HD
ATOM     25  C7  <0> d           1.969  -1.331  -3.462  0.00  0.00     0.196 A 
ATOM     26  O3  <0> d           2.603  -1.735  -4.583  0.00  0.00    -0.171 OA
BRANCH  19  27
ATOM     27  C2  <0> d           0.002  -0.004   0.002  0.00  0.00     0.034 C 
ATOM     28  C1  <0> d          -1.282   0.728  -0.395  0.00  0.00     0.038 C 
ATOM     29  C3  <0> d           0.918   0.952   0.768  0.00  0.00     0.038 C 
ATOM     30  C4  <0> d          -0.347  -1.199   0.892  0.00  0.00     0.038 C 
ENDBRANCH  19  27
ENDBRANCH   1  17
TORSDOF 2
