REMARK  5 active torsions:
REMARK  status: ('A' for Active; 'I' for Inactive)
REMARK    1  A    between atoms: C2_2  and  C11_17 
REMARK    2  A    between atoms: N1_3  and  N2_4 
REMARK       I    between atoms: N2_4  and  C3_5 
REMARK    3  A    between atoms: C3_5  and  C4_7 
REMARK    4  A    between atoms: C6_9  and  C7_12 
REMARK    5  A    between atoms: C14_20  and  O3_23 
ROOT
ATOM      1  N2  <0> d           0.024   0.035   2.339  0.00  0.00    -0.245 N 
ATOM      2  C3  <0> d           0.044  -0.645   3.503  0.00  0.00     0.268 C 
ATOM      3  O1  <0> d           0.060  -1.858   3.496  0.00  0.00    -0.269 OA
ATOM      4  H5  <0> d           0.011   1.005   2.345  0.00  0.00     0.192 HD
ENDROOT
BRANCH   1   5
ATOM      5  N1  <0> d           0.022  -0.659   1.122  0.00  0.00    -0.176 NA
ATOM      6  C2  <0> d           0.002  -0.004   0.002  0.00  0.00     0.061 C 
ATOM      7  C1  <0> d          -0.018   1.503   0.010  0.00  0.00     0.073 C 
BRANCH   6   8
ATOM      8  C11 <0> d          -0.000  -0.734  -1.279  0.00  0.00    -0.010 A 
ATOM      9  C16 <0> d           0.019  -2.131  -1.289  0.00  0.00     0.016 A 
ATOM     10  C15 <0> d           0.010  -2.810  -2.488  0.00  0.00     0.037 A 
ATOM     11  C14 <0> d          -0.004  -2.107  -3.686  0.00  0.00     0.065 A 
ATOM     12  C13 <0> d          -0.017  -0.718  -3.681  0.00  0.00     0.037 A 
ATOM     13  C12 <0> d          -0.015  -0.031  -2.486  0.00  0.00     0.016 A 
BRANCH  11  14
ATOM     14  O3  <0> d          -0.006  -2.780  -4.866  0.00  0.00    -0.361 OA
ATOM     15  H14 <0> d           0.876  -2.966  -5.214  0.00  0.00     0.217 HD
ENDBRANCH  11  14
ENDBRANCH   6   8
ENDBRANCH   1   5
BRANCH   2  16
ATOM     16  C4  <0> d           0.046   0.101   4.812  0.00  0.00     0.249 A 
ATOM     17  N4  <0> d          -0.318  -0.795   5.922  0.00  0.00    -0.173 NA
ATOM     18  N3  <0> d           0.639  -0.842   6.704  0.00  0.00    -0.152 NA
ATOM     19  C6  <0> d           1.706  -0.083   6.335  0.00  0.00     0.111 A 
ATOM     20  C5  <0> d           1.452   0.551   5.170  0.00  0.00     0.048 A 
BRANCH  19  21
ATOM     21  C7  <0> d           2.966   0.031   7.099  0.00  0.00     0.105 A 
ATOM     22  O2  <0> d           4.035   0.773   6.755  0.00  0.00    -0.320 OA
ATOM     23  C10 <0> d           4.993   0.635   7.686  0.00  0.00     0.142 A 
ATOM     24  C9  <0> d           4.550  -0.208   8.639  0.00  0.00     0.027 A 
ATOM     25  C8  <0> d           3.248  -0.601   8.270  0.00  0.00     0.041 A 
ENDBRANCH  19  21
ENDBRANCH   2  16
TORSDOF 5
