REMARK  4 active torsions:
REMARK  status: ('A' for Active; 'I' for Inactive)
REMARK    1  A    between atoms: C2_2  and  C3_3 
REMARK    2  A    between atoms: C2_2  and  N4_17 
REMARK       I    between atoms: C3_3  and  N1_5 
REMARK    3  A    between atoms: N1_5  and  N2_6 
REMARK    4  A    between atoms: C4_7  and  C5_8 
ROOT
ATOM      1  C3  <0> d          -1.518  -0.281  -0.120  0.00  0.00     0.260 C 
ATOM      2  O1  <0> d          -1.891  -1.020  -1.006  0.00  0.00    -0.269 OA
ATOM      3  N1  <0> d          -2.321  -0.036   0.935  0.00  0.00    -0.246 N 
ATOM      4  H5  <0> d          -2.023   0.555   1.644  0.00  0.00     0.192 HD
ENDROOT
BRANCH   1   5
ATOM      5  C2  <0> d          -0.157   0.362  -0.197  0.00  0.00     0.179 C 
ATOM      6  C1  <0> d          -0.312   1.884  -0.196  0.00  0.00     0.043 C 
BRANCH   5   7
ATOM      7  N4  <0> d           0.514  -0.061  -1.429  0.00  0.00    -0.319 N 
ATOM      8  C20 <0> d          -0.053   0.216  -2.620  0.00  0.00     0.258 C 
ATOM      9  C19 <0> d           0.523  -0.358  -3.847  0.00  0.00     0.058 A 
ATOM     10  O2  <0> d          -1.030   0.938  -2.681  0.00  0.00    -0.267 OA
ATOM     11  C14 <0> d           1.522  -1.340  -3.725  0.00  0.00     0.045 A 
ATOM     12  C18 <0> d           0.109   0.053  -5.112  0.00  0.00     0.019 A 
ATOM     13  N5  <0> d           1.900  -1.740  -2.449  0.00  0.00    -0.373 N 
ATOM     14  C15 <0> d           2.100  -1.883  -4.861  0.00  0.00     0.030 A 
ATOM     15  C13 <0> d           1.784  -0.781  -1.344  0.00  0.00     0.250 C 
ATOM     16  H15 <0> d           2.235  -2.637  -2.291  0.00  0.00     0.161 HD
ATOM     17  C16 <0> d           1.683  -1.461  -6.109  0.00  0.00     0.002 A 
ATOM     18  C17 <0> d           0.692  -0.501  -6.233  0.00  0.00     0.001 A 
ENDBRANCH   5   7
ENDBRANCH   1   5
BRANCH   3  19
ATOM     19  N2  <0> d          -3.586  -0.633   1.006  0.00  0.00    -0.184 NA
ATOM     20  C4  <0> d          -4.321  -0.484   2.079  0.00  0.00     0.148 C 
BRANCH  20  21
ATOM     21  C5  <0> d          -3.867   0.322   3.133  0.00  0.00    -0.009 A 
ATOM     22  C12 <0> d          -2.569   1.095   3.200  0.00  0.00     0.161 A 
ATOM     23  N3  <0> d          -2.568   1.776   4.498  0.00  0.00    -0.385 N 
ATOM     24  C11 <0> d          -3.674   1.475   5.147  0.00  0.00     0.039 A 
ATOM     25  H20 <0> d          -1.863   2.353   4.829  0.00  0.00     0.160 HD
ATOM     26  C6  <0> d          -4.515   0.573   4.340  0.00  0.00    -0.000 A 
ATOM     27  C10 <0> d          -4.148   1.865   6.428  0.00  0.00     0.030 A 
ATOM     28  C7  <0> d          -5.750   0.137   4.870  0.00  0.00     0.014 A 
ATOM     29  C8  <0> d          -6.137   0.551   6.102  0.00  0.00     0.001 A 
ATOM     30  C9  <0> d          -5.343   1.407   6.871  0.00  0.00     0.002 A 
ENDBRANCH  20  21
ENDBRANCH   3  19
TORSDOF 4
