REMARK  4 active torsions:
REMARK  status: ('A' for Active; 'I' for Inactive)
REMARK    1  A    between atoms: C3_4  and  C5_7 
REMARK    2  A    between atoms: C5_7  and  N2_8 
REMARK       I    between atoms: N2_8  and  C7_10 
REMARK    3  A    between atoms: C7_10  and  C8_12 
REMARK    4  A    between atoms: C9_13  and  N3_17 
ROOT
ATOM      1  N2  <0> d          -2.434  -3.349   1.431  0.00  0.00    -0.346 N 
ATOM      2  C6  <0> d          -3.403  -2.544   2.179  0.00  0.00     0.153 C 
ATOM      3  C7  <0> d          -1.992  -4.516   1.941  0.00  0.00     0.263 C 
ATOM      4  O1  <0> d          -1.110  -5.134   1.372  0.00  0.00    -0.267 OA
ENDROOT
BRANCH   3   5
ATOM      5  C8  <0> d          -2.554  -5.024   3.136  0.00  0.00     0.099 A 
ATOM      6  S2  <0> d          -3.941  -4.413   4.074  0.00  0.00    -0.094 SA
ATOM      7  C11 <0> d          -3.953  -5.551   5.310  0.00  0.00     0.053 A 
ATOM      8  C10 <0> d          -2.919  -6.374   5.021  0.00  0.00     0.037 A 
ATOM      9  C9  <0> d          -2.163  -6.130   3.891  0.00  0.00     0.049 A 
BRANCH   9  10
ATOM     10  N3  <0> d          -1.085  -6.934   3.530  0.00  0.00    -0.398 N 
ATOM     11  H12 <0> d          -0.577  -6.732   2.728  0.00  0.00     0.156 HD
ATOM     12  H13 <0> d          -0.842  -7.695   4.080  0.00  0.00     0.156 HD
ENDBRANCH   9  10
ENDBRANCH   3   5
BRANCH   1  13
ATOM     13  C5  <0> d          -1.944  -2.886   0.131  0.00  0.00     0.185 C 
BRANCH  13  14
ATOM     14  C3  <0> d          -0.711  -2.043   0.330  0.00  0.00     0.059 A 
ATOM     15  N1  <0> d          -0.793  -0.756   0.603  0.00  0.00    -0.249 NA
ATOM     16  C2  <0> d           0.281  -0.026   0.776  0.00  0.00     0.071 A 
ATOM     17  C1  <0> d           0.373   1.444   1.091  0.00  0.00     0.078 C 
ATOM     18  S1  <0> d           1.534  -1.128   0.552  0.00  0.00    -0.085 SA
ATOM     19  C4  <0> d           0.535  -2.574   0.235  0.00  0.00     0.080 A 
ENDBRANCH  13  14
ENDBRANCH   1  13
TORSDOF 4
