REMARK  8 active torsions:
REMARK  status: ('A' for Active; 'I' for Inactive)
REMARK    1  A    between atoms: N2_5  and  C6_8 
REMARK    2  A    between atoms: C6_8  and  C7_9 
REMARK    3  A    between atoms: C11_13  and  C13_15 
REMARK    4  A    between atoms: C13_15  and  C14_17 
REMARK    5  A    between atoms: C15_18  and  C16_19 
REMARK    6  A    between atoms: C19_22  and  C21_25 
REMARK    7  A    between atoms: C22_26  and  C23_27 
REMARK       I    between atoms: C23_27  and  N4_29 
REMARK    8  A    between atoms: N4_29  and  O3_30 
ROOT
ATOM      1  C13 <0> d          -1.371  -5.333   5.951  0.00  0.00     0.182 C 
ATOM      2  O1  <0> d          -2.565  -5.134   5.819  0.00  0.00    -0.288 OA
ENDROOT
BRANCH   1   3
ATOM      3  C11 <0> d          -0.454  -5.114   4.812  0.00  0.00     0.014 A 
ATOM      4  C10 <0> d           0.915  -5.342   4.960  0.00  0.00     0.015 A 
ATOM      5  C9  <0> d           1.765  -5.136   3.893  0.00  0.00     0.002 A 
ATOM      6  C8  <0> d           1.263  -4.705   2.678  0.00  0.00     0.009 A 
ATOM      7  C7  <0> d          -0.094  -4.478   2.524  0.00  0.00    -0.029 A 
ATOM      8  C12 <0> d          -0.954  -4.675   3.584  0.00  0.00     0.024 A 
BRANCH   7   9
ATOM      9  C6  <0> d          -0.632  -4.009   1.196  0.00  0.00     0.311 C 
BRANCH   9  10
ATOM     10  N2  <0> d          -0.624  -2.541   1.156  0.00  0.00     0.095 N 
ATOM     11  C3  <0> d          -1.356  -2.042  -0.017  0.00  0.00     0.300 C 
ATOM     12  C2  <0> d          -1.376  -0.512   0.011  0.00  0.00     0.264 C 
ATOM     13  N1  <0> d           0.002  -0.004   0.002  0.00  0.00    -0.072 N 
ATOM     14  C1  <0> d          -0.018   1.465   0.010  0.00  0.00     0.269 C 
ATOM     15  C5  <0> d           0.713  -0.490   1.192  0.00  0.00     0.264 C 
ATOM     16  H27 <0> d           0.475  -0.329  -0.828  0.00  0.00     0.279 HD
ATOM     17  C4  <0> d           0.750  -2.020   1.175  0.00  0.00     0.300 C 
ENDBRANCH   9  10
ENDBRANCH   7   9
ENDBRANCH   1   3
BRANCH   1  18
ATOM     18  C14 <0> d          -0.844  -5.788   7.237  0.00  0.00     0.056 C 
ATOM     19  C15 <0> d          -1.682  -5.988   8.279  0.00  0.00     0.017 C 
BRANCH  19  20
ATOM     20  C16 <0> d          -1.152  -6.445   9.571  0.00  0.00    -0.018 A 
ATOM     21  C20 <0> d           0.221  -6.677   9.734  0.00  0.00     0.128 A 
ATOM     22  N3  <0> d           0.699  -7.080  10.889  0.00  0.00    -0.260 NA
ATOM     23  C19 <0> d          -0.090  -7.295  11.938  0.00  0.00     0.056 A 
ATOM     24  C18 <0> d          -1.471  -7.091  11.851  0.00  0.00     0.032 A 
ATOM     25  C17 <0> d          -2.014  -6.661  10.658  0.00  0.00     0.015 A 
BRANCH  23  26
ATOM     26  C21 <0> d           0.499  -7.753  13.208  0.00  0.00     0.037 C 
ATOM     27  C22 <0> d           1.828  -7.952  13.302  0.00  0.00     0.078 C 
BRANCH  27  28
ATOM     28  C23 <0> d           2.414  -8.408  14.567  0.00  0.00     0.264 C 
ATOM     29  O2  <0> d           1.700  -8.606  15.532  0.00  0.00    -0.266 OA
ATOM     30  N4  <0> d           3.744  -8.607  14.661  0.00  0.00    -0.234 N 
ATOM     31  H25 <0> d           4.313  -8.450  13.891  0.00  0.00     0.197 HD
BRANCH  30  32
ATOM     32  O3  <0> d           4.309  -9.048  15.882  0.00  0.00    -0.287 OA
ATOM     33  H26 <0> d           5.269  -9.162  15.852  0.00  0.00     0.244 HD
ENDBRANCH  30  32
ENDBRANCH  27  28
ENDBRANCH  23  26
ENDBRANCH  19  20
ENDBRANCH   1  18
TORSDOF 8
