REMARK  2 active torsions:
REMARK  status: ('A' for Active; 'I' for Inactive)
REMARK    1  A    between atoms: C2_2  and  C4_4 
REMARK    2  A    between atoms: C4_4  and  C5_5 
ROOT
ATOM      1  C5  <0> d          -2.050  -0.348  -1.381  0.00  0.00     0.210 C 
ATOM      2  C6  <0> d          -3.444  -0.980  -1.416  0.00  0.00     0.201 C 
ATOM      3  O1  <0> d          -4.058  -0.676  -2.670  0.00  0.00    -0.377 OA
ATOM      4  C7  <0> d          -4.191   0.724  -2.937  0.00  0.00     0.190 C 
ATOM      5  C8  <0> d          -4.721   0.891  -4.341  0.00  0.00     0.006 A 
ATOM      6  C9  <0> d          -6.077   0.731  -4.565  0.00  0.00     0.012 A 
ATOM      7  C10 <0> d          -6.595   0.873  -5.838  0.00  0.00     0.001 A 
ATOM      8  C11 <0> d          -5.755   1.175  -6.894  0.00  0.00     0.003 A 
ATOM      9  C12 <0> d          -4.402   1.337  -6.676  0.00  0.00     0.037 A 
ATOM     10  C13 <0> d          -3.877   1.198  -5.394  0.00  0.00     0.077 A 
ATOM     11  O2  <0> d          -2.543   1.381  -5.220  0.00  0.00    -0.348 OA
ATOM     12  C14 <0> d          -1.954   0.922  -4.002  0.00  0.00     0.211 C 
ATOM     13  C15 <0> d          -2.827   1.404  -2.817  0.00  0.00     0.243 C 
ATOM     14  N1  <0> d          -2.179   1.105  -1.559  0.00  0.00    -0.060 N 
ATOM     15  H21 <0> d          -2.736   1.485  -0.809  0.00  0.00     0.278 HD
ATOM     16  H22 <0> d          -1.262   1.527  -1.540  0.00  0.00     0.278 HD
ENDROOT
BRANCH   1  17
ATOM     17  C4  <0> d          -1.388  -0.642  -0.033  0.00  0.00     0.039 C 
BRANCH  17  18
ATOM     18  C2  <0> d           0.051  -0.121  -0.047  0.00  0.00    -0.021 C 
ATOM     19  C1  <0> d           0.669  -0.293   1.342  0.00  0.00     0.009 C 
ATOM     20  C3  <0> d           0.869  -0.912  -1.071  0.00  0.00     0.009 C 
ENDBRANCH  17  18
ENDBRANCH   1  17
TORSDOF 2
