REMARK  8 active torsions:
REMARK  status: ('A' for Active; 'I' for Inactive)
REMARK    1  A    between atoms: C2_2  and  C3_3 
REMARK    2  A    between atoms: C2_2  and  N1_10 
REMARK    3  A    between atoms: C3_3  and  C4_4 
REMARK    4  A    between atoms: C4_4  and  C5_5 
REMARK    5  A    between atoms: C5_5  and  C6_6 
REMARK    6  A    between atoms: C6_6  and  O1_9 
REMARK       I    between atoms: N1_10  and  C9_11 
REMARK    7  A    between atoms: C9_11  and  C10_13 
REMARK       I    between atoms: N2_15  and  C18_23 
REMARK    8  A    between atoms: C18_23  and  C19_25 
ROOT
ATOM      1  C10 <0> d           2.783  -1.099   2.395  0.00  0.00     0.106 C 
ATOM      2  C11 <0> d           2.274  -2.504   2.788  0.00  0.00     0.140 C 
ATOM      3  N2  <0> d           3.225  -3.440   2.144  0.00  0.00    -0.350 N 
ATOM      4  C12 <0> d           4.548  -2.793   2.309  0.00  0.00     0.136 C 
ATOM      5  C13 <0> d           4.277  -1.292   2.085  0.00  0.00    -0.007 C 
ATOM      6  C14 <0> d           5.126  -0.454   3.034  0.00  0.00     0.039 C 
ATOM      7  C15 <0> d           6.604  -0.617   2.669  0.00  0.00     0.233 C 
ATOM      8  N3  <0> d           6.818  -0.189   1.282  0.00  0.00    -0.075 N 
ATOM      9  C16 <0> d           6.069  -1.060   0.368  0.00  0.00     0.233 C 
ATOM     10  C17 <0> d           4.569  -0.915   0.635  0.00  0.00     0.039 C 
ATOM     11  C18 <0> d           2.949  -4.615   1.544  0.00  0.00     0.224 C 
ATOM     12  O3  <0> d           3.844  -5.274   1.059  0.00  0.00    -0.273 OA
ATOM     13  H28 <0> d           6.500   0.763   1.173  0.00  0.00     0.277 HD
ATOM     14  H42 <0> d           7.801  -0.239   1.063  0.00  0.00     0.277 HD
ENDROOT
BRANCH   1  15
ATOM     15  C9  <0> d           2.054  -0.600   1.174  0.00  0.00     0.224 C 
ATOM     16  N1  <0> d           1.886   0.724   0.983  0.00  0.00    -0.356 N 
ATOM     17  H19 <0> d           2.234   1.355   1.632  0.00  0.00     0.162 HD
ATOM     18  O2  <0> d           1.618  -1.389   0.362  0.00  0.00    -0.273 OA
BRANCH  16  19
ATOM     19  C2  <0> d           1.177   1.209  -0.203  0.00  0.00     0.080 C 
ATOM     20  C1  <0> d           2.156   1.314  -1.375  0.00  0.00     0.032 C 
BRANCH  19  21
ATOM     21  C3  <0> d           0.580   2.588   0.087  0.00  0.00     0.025 C 
BRANCH  21  22
ATOM     22  C4  <0> d          -0.490   2.461   1.174  0.00  0.00     0.005 C 
BRANCH  22  23
ATOM     23  C5  <0> d          -1.087   3.840   1.464  0.00  0.00     0.037 C 
BRANCH  23  24
ATOM     24  C6  <0> d          -2.156   3.713   2.551  0.00  0.00     0.051 C 
ATOM     25  C7  <0> d          -2.840   5.067   2.753  0.00  0.00     0.045 C 
ATOM     26  C8  <0> d          -3.196   2.676   2.124  0.00  0.00     0.045 C 
BRANCH  24  27
ATOM     27  O1  <0> d          -1.546   3.300   3.775  0.00  0.00    -0.391 OA
ATOM     28  H18 <0> d          -0.874   3.913   4.106  0.00  0.00     0.210 HD
ENDBRANCH  24  27
ENDBRANCH  23  24
ENDBRANCH  22  23
ENDBRANCH  21  22
ENDBRANCH  19  21
ENDBRANCH  16  19
ENDBRANCH   1  15
BRANCH  11  29
ATOM     29  C19 <0> d           1.527  -5.111   1.475  0.00  0.00     0.082 C 
ATOM     30  C23 <0> d           1.488  -6.458   0.748  0.00  0.00     0.040 C 
ATOM     31  C22 <0> d           0.053  -6.990   0.752  0.00  0.00     0.168 C 
ATOM     32  O4  <0> d          -0.406  -7.107   2.101  0.00  0.00    -0.391 OA
ATOM     33  C21 <0> d          -0.437  -5.870   2.816  0.00  0.00     0.168 C 
ATOM     34  C20 <0> d           0.979  -5.293   2.894  0.00  0.00     0.040 C 
ENDBRANCH  11  29
TORSDOF 8
