REMARK  6 active torsions:
REMARK  status: ('A' for Active; 'I' for Inactive)
REMARK    1  A    between atoms: C5_5  and  O3_27 
REMARK    2  A    between atoms: C6_6  and  N1_8 
REMARK    3  A    between atoms: C9_10  and  C12_14 
REMARK       I    between atoms: C12_14  and  N2_16 
REMARK    4  A    between atoms: N2_16  and  C13_17 
REMARK    5  A    between atoms: C13_17  and  C14_18 
REMARK    6  A    between atoms: C14_18  and  N3_20 
ROOT
ATOM      1  N1  <0> d          -0.419  -3.770   2.067  0.00  0.00    -0.315 N 
ATOM      2  C8  <0> d           0.874  -4.048   2.704  0.00  0.00     0.147 C 
ATOM      3  C9  <0> d           0.582  -4.107   4.220  0.00  0.00     0.105 C 
ATOM      4  C10 <0> d          -0.913  -4.502   4.238  0.00  0.00     0.119 C 
ATOM      5  C11 <0> d          -1.440  -4.016   2.906  0.00  0.00     0.225 C 
ATOM      6  O1  <0> d          -2.613  -3.871   2.634  0.00  0.00    -0.273 OA
ENDROOT
BRANCH   3   7
ATOM      7  C12 <0> d           1.427  -5.159   4.891  0.00  0.00     0.223 C 
ATOM      8  O2  <0> d           2.205  -5.821   4.237  0.00  0.00    -0.273 OA
ATOM      9  N2  <0> d           1.318  -5.365   6.219  0.00  0.00    -0.359 N 
ATOM     10  H13 <0> d           0.695  -4.836   6.742  0.00  0.00     0.162 HD
BRANCH   9  11
ATOM     11  C13 <0> d           2.139  -6.388   6.872  0.00  0.00     0.155 C 
BRANCH  11  12
ATOM     12  C14 <0> d           1.729  -6.510   8.341  0.00  0.00     0.202 C 
ATOM     13  C15 <0> d           2.522  -7.640   8.999  0.00  0.00     0.042 C 
BRANCH  12  14
ATOM     14  N3  <0> d           0.293  -6.805   8.425  0.00  0.00    -0.066 N 
ATOM     15  C20 <0> d          -0.126  -6.790   9.832  0.00  0.00     0.235 C 
ATOM     16  C19 <0> d          -1.637  -7.017   9.921  0.00  0.00     0.032 C 
ATOM     17  C18 <0> d          -1.981  -8.374   9.299  0.00  0.00    -0.015 C 
ATOM     18  C17 <0> d          -1.473  -8.405   7.855  0.00  0.00     0.032 C 
ATOM     19  C21 <0> d          -3.498  -8.573   9.312  0.00  0.00     0.010 C 
ATOM     20  C16 <0> d           0.032  -8.127   7.842  0.00  0.00     0.235 C 
ATOM     21  H34 <0> d          -0.224  -6.106   7.914  0.00  0.00     0.280 HD
ENDBRANCH  12  14
ENDBRANCH  11  12
ENDBRANCH   9  11
ENDBRANCH   3   7
BRANCH   1  22
ATOM     22  C6  <0> d          -0.569  -3.301   0.755  0.00  0.00     0.071 A 
ATOM     23  C5  <0> d          -0.697  -4.204  -0.298  0.00  0.00     0.095 A 
ATOM     24  C4  <0> d          -0.845  -3.736  -1.594  0.00  0.00     0.039 A 
ATOM     25  C3  <0> d          -0.866  -2.375  -1.839  0.00  0.00     0.009 A 
ATOM     26  C2  <0> d          -0.739  -1.479  -0.794  0.00  0.00    -0.060 A 
ATOM     27  C1  <0> d          -0.763   0.003  -1.068  0.00  0.00     0.048 C 
ATOM     28  C7  <0> d          -0.585  -1.938   0.500  0.00  0.00     0.039 A 
BRANCH  23  29
ATOM     29  O3  <0> d          -0.678  -5.542  -0.055  0.00  0.00    -0.354 OA
ATOM     30  C22 <0> d          -0.815  -6.408  -1.183  0.00  0.00     0.210 C 
ENDBRANCH  23  29
ENDBRANCH   1  22
TORSDOF 6
