REMARK  7 active torsions:
REMARK  status: ('A' for Active; 'I' for Inactive)
REMARK    1  A    between atoms: C2_2  and  S1_4 
REMARK    2  A    between atoms: S1_4  and  N1_7 
REMARK    3  A    between atoms: N1_7  and  C4_8 
REMARK    4  A    between atoms: C4_8  and  C5_9 
REMARK    5  A    between atoms: C10_14  and  C11_15 
REMARK    6  A    between atoms: C12_16  and  C13_17 
REMARK    7  A    between atoms: C13_17  and  O3_18 
ROOT
ATOM      1  C5  <0> d          -1.576  -4.174   1.736  0.00  0.00    -0.021 A 
ATOM      2  C6  <0> d          -2.712  -4.487   2.454  0.00  0.00     0.010 A 
ATOM      3  C7  <0> d          -3.101  -5.807   2.597  0.00  0.00     0.001 A 
ATOM      4  C8  <0> d          -2.356  -6.821   2.020  0.00  0.00     0.002 A 
ATOM      5  C9  <0> d          -1.218  -6.520   1.299  0.00  0.00     0.021 A 
ATOM      6  C10 <0> d          -0.823  -5.190   1.147  0.00  0.00     0.025 A 
ENDROOT
BRANCH   1   7
ATOM      7  C4  <0> d          -1.154  -2.735   1.581  0.00  0.00     0.172 C 
BRANCH   7   8
ATOM      8  N1  <0> d          -1.578  -2.240   0.270  0.00  0.00    -0.315 N 
ATOM      9  H8  <0> d          -1.829  -2.866  -0.428  0.00  0.00     0.172 HD
BRANCH   8  10
ATOM     10  S1  <0> d          -1.630  -0.611  -0.023  0.00  0.00     0.230 S 
ATOM     11  O1  <0> d          -2.414  -0.077   1.035  0.00  0.00    -0.206 OA
ATOM     12  O2  <0> d          -2.061  -0.498  -1.372  0.00  0.00    -0.206 OA
BRANCH  10  13
ATOM     13  C2  <0> d           0.090  -0.054   0.132  0.00  0.00     0.121 C 
ATOM     14  C1  <0> d           0.960  -0.797  -0.885  0.00  0.00     0.027 C 
ATOM     15  C3  <0> d           0.165   1.450  -0.135  0.00  0.00     0.027 C 
ENDBRANCH  10  13
ENDBRANCH   8  10
ENDBRANCH   7   8
ENDBRANCH   1   7
BRANCH   6  16
ATOM     16  C11 <0> d           0.353  -4.871   0.395  0.00  0.00    -0.064 C 
ATOM     17  C12 <0> d           1.317  -4.609  -0.221  0.00  0.00    -0.075 C 
BRANCH  17  18
ATOM     18  C13 <0> d           2.526  -4.281  -0.994  0.00  0.00     0.258 C 
BRANCH  18  19
ATOM     19  O3  <0> d           3.115  -5.485  -1.490  0.00  0.00    -0.389 OA
ATOM     20  H17 <0> d           3.918  -5.344  -2.010  0.00  0.00     0.210 HD
ENDBRANCH  18  19
ENDBRANCH  17  18
ENDBRANCH   6  16
TORSDOF 7
