REMARK  5 active torsions:
REMARK  status: ('A' for Active; 'I' for Inactive)
REMARK    1  A    between atoms: C3_3  and  C9_13 
REMARK    2  A    between atoms: C4_5  and  C5_7 
REMARK       I    between atoms: C9_13  and  N4_15 
REMARK    3  A    between atoms: N4_15  and  C10_16 
REMARK    4  A    between atoms: N6_19  and  C13_21 
REMARK    5  A    between atoms: C13_21  and  C14_22 
REMARK       I    between atoms: C14_22  and  N7_24 
ROOT
ATOM      1  C9  <0> d          -0.008  -0.258  -2.573  0.00  0.00     0.265 C 
ATOM      2  O1  <0> d          -0.027   0.935  -2.810  0.00  0.00    -0.267 OA
ATOM      3  N4  <0> d          -0.001  -1.146  -3.587  0.00  0.00    -0.320 N 
ATOM      4  H7  <0> d           0.014  -2.098  -3.398  0.00  0.00     0.169 HD
ENDROOT
BRANCH   1   5
ATOM      5  C3  <0> d           0.006  -0.731  -1.183  0.00  0.00     0.099 A 
ATOM      6  C2  <0> d           0.002  -0.004   0.002  0.00  0.00     0.054 A 
ATOM      7  C1  <0> d          -0.018   1.503   0.010  0.00  0.00     0.072 C 
ATOM      8  N1  <0> d           0.022  -0.699   1.108  0.00  0.00    -0.241 NA
ATOM      9  C4  <0> d           0.036  -2.020   1.095  0.00  0.00     0.146 A 
ATOM     10  S1  <0> d           0.033  -2.398  -0.545  0.00  0.00    -0.059 SA
BRANCH   9  11
ATOM     11  C5  <0> d           0.054  -2.947   2.248  0.00  0.00     0.185 A 
ATOM     12  N3  <0> d           0.072  -4.255   2.027  0.00  0.00    -0.239 NA
ATOM     13  C8  <0> d           0.095  -5.110   3.035  0.00  0.00     0.120 A 
ATOM     14  C7  <0> d           0.088  -4.624   4.334  0.00  0.00     0.038 A 
ATOM     15  C6  <0> d           0.064  -3.251   4.529  0.00  0.00     0.120 A 
ATOM     16  N2  <0> d           0.048  -2.450   3.478  0.00  0.00    -0.239 NA
ENDBRANCH   9  11
ENDBRANCH   1   5
BRANCH   3  17
ATOM     17  C10 <0> d          -0.015  -0.693  -4.919  0.00  0.00     0.071 A 
ATOM     18  C12 <0> d          -0.009  -1.475  -6.029  0.00  0.00     0.144 A 
ATOM     19  N6  <0> d          -0.030  -0.652  -7.110  0.00  0.00    -0.270 N 
ATOM     20  N5  <0> d          -0.039   0.669  -6.644  0.00  0.00    -0.182 NA
ATOM     21  C11 <0> d          -0.030   0.646  -5.336  0.00  0.00     0.169 A 
BRANCH  19  22
ATOM     22  C13 <0> d          -0.036  -1.071  -8.513  0.00  0.00     0.253 C 
BRANCH  22  23
ATOM     23  C14 <0> d          -1.211  -0.445  -9.219  0.00  0.00     0.238 C 
ATOM     24  O2  <0> d          -1.969   0.280  -8.610  0.00  0.00    -0.271 OA
ATOM     25  N7  <0> d          -1.420  -0.691 -10.528  0.00  0.00    -0.359 N 
ATOM     26  C15 <0> d          -2.562  -0.083 -11.214  0.00  0.00     0.152 C 
ATOM     27  C16 <0> d          -0.505  -1.567 -11.264  0.00  0.00     0.152 C 
ENDBRANCH  22  23
ENDBRANCH  19  22
ENDBRANCH   3  17
TORSDOF 5
