REMARK  6 active torsions:
REMARK  status: ('A' for Active; 'I' for Inactive)
REMARK    1  A    between atoms: C2_2  and  N1_3 
REMARK       I    between atoms: N1_3  and  C3_4 
REMARK    2  A    between atoms: C3_4  and  C4_6 
REMARK    3  A    between atoms: C4_6  and  N2_8 
REMARK       I    between atoms: N2_8  and  C6_9 
REMARK       I    between atoms: C6_9  and  N3_11 
REMARK    4  A    between atoms: N3_11  and  C7_12 
REMARK    5  A    between atoms: C12_17  and  C13_18 
REMARK    6  A    between atoms: C13_18  and  N4_19 
ROOT
ATOM      1  C7  <0> d          -4.811  -6.490   1.053  0.00  0.00     0.044 A 
ATOM      2  C8  <0> d          -5.883  -5.742   1.523  0.00  0.00     0.030 A 
ATOM      3  C9  <0> d          -7.001  -6.379   2.025  0.00  0.00     0.002 A 
ATOM      4  C10 <0> d          -7.053  -7.760   2.061  0.00  0.00     0.001 A 
ATOM      5  C11 <0> d          -5.987  -8.508   1.594  0.00  0.00     0.011 A 
ATOM      6  C12 <0> d          -4.869  -7.877   1.085  0.00  0.00    -0.006 A 
ENDROOT
BRANCH   1   7
ATOM      7  N3  <0> d          -3.677  -5.847   0.543  0.00  0.00    -0.308 N 
ATOM      8  C6  <0> d          -3.274  -4.673   1.069  0.00  0.00     0.321 C 
ATOM      9  N2  <0> d          -2.129  -4.103   0.646  0.00  0.00    -0.330 N 
ATOM     10  O2  <0> d          -3.944  -4.130   1.926  0.00  0.00    -0.247 OA
ATOM     11  H11 <0> d          -1.595  -4.537  -0.038  0.00  0.00     0.165 HD
ATOM     12  H12 <0> d          -3.182  -6.246  -0.188  0.00  0.00     0.170 HD
BRANCH   9  13
ATOM     13  C4  <0> d          -1.691  -2.827   1.217  0.00  0.00     0.174 C 
ATOM     14  C5  <0> d          -2.369  -1.675   0.473  0.00  0.00     0.042 C 
BRANCH  13  15
ATOM     15  C3  <0> d          -0.196  -2.702   1.081  0.00  0.00     0.240 C 
ATOM     16  N1  <0> d           0.434  -1.603   1.540  0.00  0.00    -0.360 N 
ATOM     17  H6  <0> d          -0.076  -0.891   1.959  0.00  0.00     0.162 HD
ATOM     18  O1  <0> d           0.442  -3.592   0.557  0.00  0.00    -0.271 OA
BRANCH  16  19
ATOM     19  C2  <0> d           1.888  -1.482   1.407  0.00  0.00     0.118 C 
ATOM     20  C1  <0> d           2.345  -0.149   2.005  0.00  0.00     0.026 C 
ENDBRANCH  16  19
ENDBRANCH  13  15
ENDBRANCH   9  13
ENDBRANCH   1   7
BRANCH   6  21
ATOM     21  C13 <0> d          -3.711  -8.692   0.572  0.00  0.00     0.275 C 
BRANCH  21  22
ATOM     22  N4  <0> d          -2.639  -8.708   1.577  0.00  0.00    -0.066 N 
ATOM     23  C17 <0> d          -3.102  -9.436   2.760  0.00  0.00     0.245 C 
ATOM     24  C16 <0> d          -2.169  -9.153   3.943  0.00  0.00     0.101 C 
ATOM     25  S1  <0> d          -0.507  -9.762   3.518  0.00  0.00    -0.166 SA
ATOM     26  C15 <0> d          -0.226  -9.035   1.873  0.00  0.00     0.101 C 
ATOM     27  C14 <0> d          -1.449  -9.336   0.999  0.00  0.00     0.245 C 
ATOM     28  H27 <0> d          -2.418  -7.759   1.838  0.00  0.00     0.280 HD
ENDBRANCH  21  22
ENDBRANCH   6  21
TORSDOF 6
