REMARK  4 active torsions:
REMARK  status: ('A' for Active; 'I' for Inactive)
REMARK    1  A    between atoms: C2_2  and  C3_3 
REMARK    2  A    between atoms: C3_3  and  C4_4 
REMARK    3  A    between atoms: C4_4  and  C9_10 
REMARK       I    between atoms: C9_10  and  N2_12 
REMARK    4  A    between atoms: N2_12  and  C10_13 
ROOT
ATOM      1  C4  <0> d          -1.396  -1.531   0.237  0.00  0.00     0.065 C 
ATOM      2  C5  <0> d          -0.771  -2.287  -0.939  0.00  0.00     0.022 C 
ATOM      3  C6  <0> d          -1.060  -3.782  -0.784  0.00  0.00     0.029 C 
ATOM      4  C7  <0> d          -2.572  -3.998  -0.694  0.00  0.00     0.232 C 
ATOM      5  N1  <0> d          -3.106  -3.272   0.465  0.00  0.00    -0.074 N 
ATOM      6  C8  <0> d          -2.896  -1.829   0.288  0.00  0.00     0.251 C 
ATOM      7  H14 <0> d          -4.093  -3.459   0.552  0.00  0.00     0.277 HD
ATOM      8  H22 <0> d          -2.632  -3.580   1.300  0.00  0.00     0.277 HD
ENDROOT
BRANCH   1   9
ATOM      9  C3  <0> d          -1.181  -0.028   0.051  0.00  0.00     0.020 C 
BRANCH   9  10
ATOM     10  C2  <0> d          -1.741   0.722   1.261  0.00  0.00    -0.003 C 
ATOM     11  C1  <0> d          -1.420   2.212   1.132  0.00  0.00     0.005 C 
ENDBRANCH   9  10
ENDBRANCH   1   9
BRANCH   1  12
ATOM     12  C9  <0> d          -0.750  -1.976   1.523  0.00  0.00     0.232 C 
ATOM     13  O1  <0> d          -1.437  -2.369   2.442  0.00  0.00    -0.272 OA
ATOM     14  N2  <0> d           0.591  -1.938   1.652  0.00  0.00    -0.325 N 
ATOM     15  H17 <0> d           1.145  -1.708   0.890  0.00  0.00     0.169 HD
BRANCH  14  16
ATOM     16  C10 <0> d           1.184  -2.230   2.886  0.00  0.00     0.052 A 
ATOM     17  C15 <0> d           2.374  -1.612   3.250  0.00  0.00     0.037 A 
ATOM     18  C14 <0> d           2.954  -1.898   4.471  0.00  0.00     0.021 A 
ATOM     19 Br1  <0> d           3.195  -0.374   2.079  0.00  0.00    -0.049 Br
ATOM     20  C13 <0> d           2.357  -2.807   5.325  0.00  0.00     0.002 A 
ATOM     21  C12 <0> d           1.175  -3.428   4.963  0.00  0.00     0.002 A 
ATOM     22  C11 <0> d           0.588  -3.142   3.746  0.00  0.00     0.031 A 
ENDBRANCH  14  16
ENDBRANCH   1  12
TORSDOF 4
