REMARK  10 active torsions:
REMARK  status: ('A' for Active; 'I' for Inactive)
REMARK    1  A    between atoms: C2_2  and  C3_3 
REMARK    2  A    between atoms: C3_3  and  C4_4 
REMARK    3  A    between atoms: C3_3  and  N2_20 
REMARK    4  A    between atoms: C4_4  and  C5_5 
REMARK    5  A    between atoms: C4_4  and  N1_11 
REMARK    6  A    between atoms: N1_11  and  C9_12 
REMARK    7  A    between atoms: N1_11  and  C12_16 
REMARK    8  A    between atoms: C9_12  and  C10_13 
REMARK    9  A    between atoms: C10_13  and  O1_14 
REMARK   10  A    between atoms: C12_16  and  C13_17 
ROOT
ATOM      1  C4  <0> d          -0.425  -1.403  -0.020  0.00  0.00     0.260 C 
ENDROOT
BRANCH   1   2
ATOM      2  C3  <0> d          -0.225   0.112   0.047  0.00  0.00     0.253 C 
BRANCH   2   3
ATOM      3  C2  <0> d           1.201   0.418   0.509  0.00  0.00     0.033 C 
ATOM      4  C1  <0> d           1.364   1.927   0.696  0.00  0.00     0.007 C 
ENDBRANCH   2   3
BRANCH   2   5
ATOM      5  N2  <0> d          -0.444   0.694  -1.284  0.00  0.00     0.085 N 
ATOM      6  H26 <0> d          -0.380   1.700  -1.254  0.00  0.00     0.313 HD
ATOM      7  H27 <0> d           0.204   0.311  -1.957  0.00  0.00     0.313 HD
ENDBRANCH   2   5
ENDBRANCH   1   2
BRANCH   1   8
ATOM      8  C5  <0> d           0.472  -1.982  -1.084  0.00  0.00     0.017 A 
ATOM      9  S1  <0> d           2.213  -2.365  -1.000  0.00  0.00    -0.103 SA
ATOM     10  C8  <0> d           2.415  -2.989  -2.661  0.00  0.00     0.069 A 
ATOM     11  C7  <0> d           1.162  -2.858  -3.163  0.00  0.00     0.018 A 
ATOM     12  C6  <0> d           0.166  -2.342  -2.355  0.00  0.00     0.036 A 
ATOM     13 Br1  <0> d           0.783  -3.374  -4.943  0.00  0.00    -0.051 Br
ENDBRANCH   1   8
BRANCH   1  14
ATOM     14  N1  <0> d          -0.090  -2.000   1.280  0.00  0.00    -0.058 N 
ATOM     15  H28 <0> d           0.886  -1.842   1.481  0.00  0.00     0.281 HD
BRANCH  14  16
ATOM     16  C9  <0> d          -0.354  -3.444   1.239  0.00  0.00     0.261 C 
BRANCH  16  17
ATOM     17  C10 <0> d           0.132  -4.088   2.539  0.00  0.00     0.194 C 
BRANCH  17  18
ATOM     18  O1  <0> d          -0.674  -3.632   3.627  0.00  0.00    -0.394 OA
ATOM     19  C11 <0> d          -0.233  -4.090   4.907  0.00  0.00     0.201 C 
ENDBRANCH  17  18
ENDBRANCH  16  17
ENDBRANCH  14  16
BRANCH  14  20
ATOM     20  C12 <0> d          -0.912  -1.381   2.329  0.00  0.00     0.239 C 
BRANCH  20  21
ATOM     21  C13 <0> d          -2.321  -1.977   2.290  0.00  0.00     0.003 C 
ATOM     22  C14 <0> d          -3.149  -1.405   3.443  0.00  0.00     0.011 C 
ATOM     23  C15 <0> d          -2.988  -1.625   0.959  0.00  0.00     0.011 C 
ENDBRANCH  20  21
ENDBRANCH  14  20
ENDBRANCH   1  14
TORSDOF 10
