REMARK  9 active torsions:
REMARK  status: ('A' for Active; 'I' for Inactive)
REMARK    1  A    between atoms: C2_2  and  C3_3 
REMARK    2  A    between atoms: C2_2  and  N1_10 
REMARK    3  A    between atoms: N1_10  and  C9_11 
REMARK    4  A    between atoms: C9_11  and  C10_12 
REMARK    5  A    between atoms: C10_12  and  C11_13 
REMARK    6  A    between atoms: C10_12  and  O2_21 
REMARK    7  A    between atoms: C11_13  and  O1_14 
REMARK    8  A    between atoms: O1_14  and  C12_15 
REMARK    9  A    between atoms: C12_15  and  C13_16 
ROOT
ATOM      1  N1  <0> d           0.713  -0.491   1.192  0.00  0.00    -0.065 N 
ATOM      2  H10 <0> d           0.798  -1.495   1.145  0.00  0.00     0.278 HD
ATOM      3  H21 <0> d           1.632  -0.076   1.228  0.00  0.00     0.278 HD
ENDROOT
BRANCH   1   4
ATOM      4  C2  <0> d           0.002  -0.004   0.002  0.00  0.00     0.214 C 
ATOM      5  C1  <0> d          -0.019   1.526   0.010  0.00  0.00     0.045 C 
BRANCH   4   6
ATOM      6  C3  <0> d           0.707  -0.490  -1.238  0.00  0.00    -0.028 A 
ATOM      7  C8  <0> d          -0.027  -0.920  -2.327  0.00  0.00     0.010 A 
ATOM      8  C7  <0> d           0.619  -1.362  -3.466  0.00  0.00     0.019 A 
ATOM      9  C6  <0> d           2.002  -1.383  -3.512  0.00  0.00     0.011 A 
ATOM     10  C5  <0> d           2.736  -0.957  -2.421  0.00  0.00     0.019 A 
ATOM     11 Br1  <0> d           2.887  -1.992  -5.068  0.00  0.00    -0.051 Br
ATOM     12  C4  <0> d           2.089  -0.511  -1.284  0.00  0.00     0.010 A 
ENDBRANCH   4   6
ENDBRANCH   1   4
BRANCH   1  13
ATOM     13  C9  <0> d          -0.040  -0.119   2.398  0.00  0.00     0.266 C 
BRANCH  13  14
ATOM     14  C10 <0> d           0.700  -0.626   3.637  0.00  0.00     0.167 C 
BRANCH  14  15
ATOM     15  C11 <0> d          -0.143  -0.349   4.883  0.00  0.00     0.201 C 
BRANCH  15  16
ATOM     16  O1  <0> d           0.492  -0.925   6.026  0.00  0.00    -0.384 OA
BRANCH  16  17
ATOM     17  C12 <0> d          -0.217  -0.722   7.250  0.00  0.00     0.213 C 
BRANCH  17  18
ATOM     18  C13 <0> d           0.539  -1.368   8.382  0.00  0.00     0.006 A 
ATOM     19  S1  <0> d           0.407  -3.030   9.019  0.00  0.00    -0.104 SA
ATOM     20  C16 <0> d           1.637  -2.905  10.307  0.00  0.00     0.050 A 
ATOM     21  C15 <0> d           2.055  -1.622  10.172  0.00  0.00     0.008 A 
ATOM     22  C14 <0> d           1.492  -0.835   9.186  0.00  0.00     0.017 A 
ENDBRANCH  17  18
ENDBRANCH  16  17
ENDBRANCH  15  16
ENDBRANCH  14  15
BRANCH  14  23
ATOM     23  O2  <0> d           1.955   0.049   3.752  0.00  0.00    -0.392 OA
ATOM     24  H20 <0> d           1.879   1.009   3.837  0.00  0.00     0.210 HD
ENDBRANCH  14  23
ENDBRANCH  13  14
ENDBRANCH   1  13
TORSDOF 9
