REMARK  5 active torsions:
REMARK  status: ('A' for Active; 'I' for Inactive)
REMARK    1  A    between atoms: N1_6  and  C7_8 
REMARK    2  A    between atoms: C7_8  and  C8_9 
REMARK    3  A    between atoms: C8_9  and  N2_10 
REMARK       I    between atoms: N2_10  and  C9_11 
REMARK       I    between atoms: C9_11  and  N3_13 
REMARK    4  A    between atoms: N3_13  and  C10_14 
REMARK    5  A    between atoms: C12_16  and  C15_22 
ROOT
ATOM      1  N2  <0> d           2.581  -4.461   3.366  0.00  0.00    -0.341 N 
ATOM      2  C9  <0> d           2.836  -5.775   3.521  0.00  0.00     0.320 C 
ATOM      3  O1  <0> d           2.559  -6.557   2.632  0.00  0.00    -0.247 OA
ATOM      4  N3  <0> d           3.399  -6.222   4.661  0.00  0.00    -0.304 N 
ATOM      5  H18 <0> d           2.802  -3.837   4.075  0.00  0.00     0.164 HD
ATOM      6  H19 <0> d           3.687  -5.592   5.339  0.00  0.00     0.171 HD
ENDROOT
BRANCH   1   7
ATOM      7  C8  <0> d           1.970  -3.975   2.126  0.00  0.00     0.152 C 
BRANCH   7   8
ATOM      8  C7  <0> d           1.789  -2.458   2.208  0.00  0.00     0.254 C 
BRANCH   8   9
ATOM      9  N1  <0> d           1.176  -1.970   0.965  0.00  0.00    -0.069 N 
ATOM     10  C5  <0> d          -0.180  -2.517   0.843  0.00  0.00     0.235 C 
ATOM     11  C4  <0> d          -0.793  -2.078  -0.489  0.00  0.00     0.028 C 
ATOM     12  C3  <0> d          -0.852  -0.549  -0.538  0.00  0.00     0.007 C 
ATOM     13  C2  <0> d           0.558   0.013  -0.335  0.00  0.00     0.007 C 
ATOM     14  C1  <0> d           0.500   1.542  -0.304  0.00  0.00     0.011 C 
ATOM     15  C6  <0> d           1.122  -0.503   0.990  0.00  0.00     0.239 C 
ATOM     16  H22 <0> d           1.731  -2.271   0.178  0.00  0.00     0.280 HD
ENDBRANCH   8   9
ENDBRANCH   7   8
ENDBRANCH   1   7
BRANCH   4  17
ATOM     17  C10 <0> d           3.566  -7.599   4.867  0.00  0.00     0.105 A 
ATOM     18  C14 <0> d           2.451  -8.465   4.852  0.00  0.00     0.272 A 
ATOM     19  N4  <0> d           2.623  -9.786   5.045  0.00  0.00    -0.331 N 
ATOM     20  O2  <0> d           1.332  -8.016   4.658  0.00  0.00    -0.266 OA
ATOM     21  C13 <0> d           3.862 -10.301   5.268  0.00  0.00     0.107 A 
ATOM     22  H2  <0> d           1.855 -10.377   5.030  0.00  0.00     0.168 HD
ATOM     23  C12 <0> d           4.951  -9.499   5.294  0.00  0.00     0.065 A 
ATOM     24  C11 <0> d           4.812  -8.119   5.091  0.00  0.00     0.052 A 
BRANCH  23  25
ATOM     25  C15 <0> d           6.315 -10.090   5.542  0.00  0.00     0.418 C 
ATOM     26  F1  <0> d           6.200 -11.473   5.715  0.00  0.00    -0.166 F 
ATOM     27  F2  <0> d           7.144  -9.824   4.447  0.00  0.00    -0.166 F 
ATOM     28  F3  <0> d           6.868  -9.521   6.694  0.00  0.00    -0.166 F 
ENDBRANCH  23  25
ENDBRANCH   4  17
TORSDOF 5
