REMARK  3 active torsions:
REMARK  status: ('A' for Active; 'I' for Inactive)
REMARK    1  A    between atoms: N1_2  and  C2_3 
REMARK       I    between atoms: N1_2  and  C11_16 
REMARK    2  A    between atoms: C2_3  and  C3_4 
REMARK    3  A    between atoms: C11_16  and  C12_18 
ROOT
ATOM      1  C12 <0> d          -5.151  -0.393  -0.933  0.00  0.00     0.033 A 
ATOM      2  C13 <0> d          -5.549   0.027   0.340  0.00  0.00     0.019 A 
ATOM      3  C14 <0> d          -6.540   0.975   0.481  0.00  0.00     0.032 A 
ATOM      4  C15 <0> d          -7.147   1.509  -0.650  0.00  0.00     0.059 A 
ATOM      5  C16 <0> d          -6.767   1.070  -1.911  0.00  0.00     0.109 A 
ATOM      6  C17 <0> d          -5.779   0.134  -2.069  0.00  0.00     0.044 A 
ATOM      7  S1  <0> d          -7.627   1.750  -3.295  0.00  0.00     0.287 S 
ATOM      8  O3  <0> d          -6.880   2.874  -3.740  0.00  0.00    -0.198 OA
ATOM      9  O4  <0> d          -7.967   0.665  -4.148  0.00  0.00    -0.198 OA
ATOM     10  N4  <0> d          -9.041   2.329  -2.657  0.00  0.00    -0.146 NA
ATOM     11  C18 <0> d          -9.151   2.612  -1.386  0.00  0.00     0.120 C 
ATOM     12  N5  <0> d          -8.128   2.516  -0.511  0.00  0.00    -0.333 N 
ATOM     13  C19 <0> d          -7.903   3.382   0.626  0.00  0.00     0.131 C 
ATOM     14  C20 <0> d          -8.379   4.768   0.633  0.00  0.00     0.020 C 
ATOM     15  C21 <0> d          -9.715   5.203   0.154  0.00  0.00     0.002 C 
ATOM     16  C22 <0> d         -10.797   4.191  -0.086  0.00  0.00     0.008 C 
ATOM     17  C23 <0> d         -10.482   3.062  -0.961  0.00  0.00     0.080 C 
ENDROOT
BRANCH   1  18
ATOM     18  C11 <0> d          -4.075  -1.392  -1.079  0.00  0.00     0.253 C 
ATOM     19  N1  <0> d          -3.146  -1.246  -2.045  0.00  0.00    -0.345 N 
ATOM     20  C1  <0> d          -3.259  -0.151  -3.010  0.00  0.00     0.153 C 
ATOM     21  O2  <0> d          -4.028  -2.348  -0.329  0.00  0.00    -0.267 OA
BRANCH  19  22
ATOM     22  C2  <0> d          -2.023  -2.184  -2.128  0.00  0.00     0.204 C 
BRANCH  22  23
ATOM     23  C3  <0> d          -2.400  -3.341  -3.016  0.00  0.00     0.125 A 
ATOM     24  N3  <0> d          -3.585  -3.349  -3.548  0.00  0.00    -0.233 NA
ATOM     25  C10 <0> d          -3.994  -4.358  -4.358  0.00  0.00     0.074 A 
ATOM     26  C5  <0> d          -3.107  -5.424  -4.626  0.00  0.00     0.061 A 
ATOM     27  C9  <0> d          -5.267  -4.367  -4.930  0.00  0.00     0.032 A 
ATOM     28  C4  <0> d          -1.773  -5.384  -4.008  0.00  0.00     0.259 A 
ATOM     29  C6  <0> d          -3.504  -6.471  -5.455  0.00  0.00     0.019 A 
ATOM     30  N2  <0> d          -1.483  -4.323  -3.219  0.00  0.00    -0.309 N 
ATOM     31  O1  <0> d          -0.961  -6.270  -4.199  0.00  0.00    -0.267 OA
ATOM     32  H1  <0> d          -0.613  -4.263  -2.795  0.00  0.00     0.170 HD
ATOM     33  C7  <0> d          -4.765  -6.458  -6.008  0.00  0.00     0.001 A 
ATOM     34  C8  <0> d          -5.640  -5.411  -5.746  0.00  0.00     0.002 A 
ENDBRANCH  22  23
ENDBRANCH  19  22
ENDBRANCH   1  18
TORSDOF 3
