REMARK  7 active torsions:
REMARK  status: ('A' for Active; 'I' for Inactive)
REMARK    1  A    between atoms: C4_4  and  N1_7 
REMARK    2  A    between atoms: C7_8  and  C20_28 
REMARK    3  A    between atoms: C8_11  and  S1_12 
REMARK    4  A    between atoms: S1_12  and  C9_13 
REMARK    5  A    between atoms: C9_13  and  C10_14 
REMARK       I    between atoms: C10_14  and  N4_16 
REMARK    6  A    between atoms: N4_16  and  N5_17 
REMARK    7  A    between atoms: C11_18  and  C12_19 
ROOT
ATOM      1  N1  <0> d           3.784  -0.539   0.009  0.00  0.00    -0.332 N 
ATOM      2  C7  <0> d           4.132  -1.963   0.155  0.00  0.00     0.208 C 
ATOM      3  N2  <0> d           5.595  -2.064  -0.049  0.00  0.00    -0.232 NA
ATOM      4  N3  <0> d           5.936  -0.874  -0.845  0.00  0.00    -0.227 NA
ATOM      5  C8  <0> d           5.045   0.172  -0.284  0.00  0.00     0.237 C 
ATOM      6  H8  <0> d           6.084  -2.061   0.833  0.00  0.00     0.143 HD
ATOM      7  H9  <0> d           5.740  -1.024  -1.823  0.00  0.00     0.143 HD
ENDROOT
BRANCH   5   8
ATOM      8  S1  <0> d           5.757   0.856   1.238  0.00  0.00    -0.118 SA
BRANCH   8   9
ATOM      9  C9  <0> d           6.983   2.056   0.648  0.00  0.00     0.181 C 
BRANCH   9  10
ATOM     10  C10 <0> d           7.570   2.794   1.824  0.00  0.00     0.247 C 
ATOM     11  O1  <0> d           7.197   2.535   2.949  0.00  0.00    -0.271 OA
ATOM     12  N4  <0> d           8.508   3.740   1.626  0.00  0.00    -0.247 N 
ATOM     13  H12 <0> d           8.806   3.947   0.726  0.00  0.00     0.192 HD
BRANCH  12  14
ATOM     14  N5  <0> d           9.054   4.426   2.719  0.00  0.00    -0.184 NA
ATOM     15  C11 <0> d           9.966   5.345   2.526  0.00  0.00     0.148 C 
BRANCH  15  16
ATOM     16  C12 <0> d          10.512   6.032   3.620  0.00  0.00    -0.009 A 
ATOM     17  C19 <0> d          10.169   5.843   5.081  0.00  0.00     0.161 A 
ATOM     18  N6  <0> d          11.011   6.789   5.820  0.00  0.00    -0.385 N 
ATOM     19  C18 <0> d          11.752   7.468   4.970  0.00  0.00     0.039 A 
ATOM     20  H24 <0> d          11.019   6.900   6.784  0.00  0.00     0.160 HD
ATOM     21  C13 <0> d          11.479   7.034   3.588  0.00  0.00    -0.000 A 
ATOM     22  C17 <0> d          12.716   8.491   5.171  0.00  0.00     0.030 A 
ATOM     23  C14 <0> d          12.181   7.649   2.528  0.00  0.00     0.014 A 
ATOM     24  C15 <0> d          13.088   8.622   2.797  0.00  0.00     0.001 A 
ATOM     25  C16 <0> d          13.351   9.037   4.106  0.00  0.00     0.002 A 
ENDBRANCH  15  16
ENDBRANCH  12  14
ENDBRANCH   9  10
ENDBRANCH   8   9
ENDBRANCH   5   8
BRANCH   1  26
ATOM     26  C4  <0> d           2.512   0.027   0.121  0.00  0.00     0.033 A 
ATOM     27  C3  <0> d           2.356   1.406   0.069  0.00  0.00     0.029 A 
ATOM     28  C2  <0> d           1.097   1.962   0.178  0.00  0.00     0.002 A 
ATOM     29  C1  <0> d          -0.009   1.147   0.341  0.00  0.00     0.000 A 
ATOM     30  C6  <0> d           0.143  -0.226   0.393  0.00  0.00     0.002 A 
ATOM     31  C5  <0> d           1.399  -0.789   0.283  0.00  0.00     0.029 A 
ENDBRANCH   1  26
BRANCH   2  32
ATOM     32  C20 <0> d           3.768  -2.445   1.536  0.00  0.00    -0.017 A 
ATOM     33  C24 <0> d           4.063  -3.739   1.936  0.00  0.00     0.029 A 
ATOM     34  C23 <0> d           3.719  -4.144   3.212  0.00  0.00     0.117 A 
ATOM     35  N7  <0> d           3.107  -3.319   4.040  0.00  0.00    -0.273 NA
ATOM     36  C22 <0> d           2.806  -2.083   3.691  0.00  0.00     0.117 A 
ATOM     37  C21 <0> d           3.124  -1.607   2.433  0.00  0.00     0.029 A 
ENDBRANCH   2  32
TORSDOF 7
