REMARK  5 active torsions:
REMARK  status: ('A' for Active; 'I' for Inactive)
REMARK    1  A    between atoms: O1_2  and  C2_3 
REMARK    2  A    between atoms: C4_5  and  C8_11 
REMARK    3  A    between atoms: C7_8  and  O2_9 
REMARK    4  A    between atoms: N1_12  and  N2_13 
REMARK       I    between atoms: N2_13  and  C9_14 
REMARK    5  A    between atoms: C9_14  and  C10_16 
ROOT
ATOM      1  C2  <0> d           2.377  -0.025   0.612  0.00  0.00     0.103 A 
ATOM      2  C3  <0> d           1.221  -0.633   0.159  0.00  0.00     0.052 A 
ATOM      3  C4  <0> d          -0.025  -0.116   0.521  0.00  0.00    -0.013 A 
ATOM      4  C5  <0> d          -0.097   1.014   1.340  0.00  0.00     0.035 A 
ATOM      5  C6  <0> d           1.060   1.616   1.788  0.00  0.00     0.047 A 
ATOM      6  C7  <0> d           2.298   1.101   1.428  0.00  0.00     0.116 A 
ATOM      7 Br1  <0> d           0.961   3.145   2.897  0.00  0.00    -0.048 Br
ENDROOT
BRANCH   3   8
ATOM      8  C8  <0> d          -1.261  -0.760   0.041  0.00  0.00     0.150 C 
ATOM      9  N1  <0> d          -2.394  -0.132   0.121  0.00  0.00    -0.183 NA
BRANCH   9  10
ATOM     10  N2  <0> d          -2.420   1.268   0.129  0.00  0.00    -0.241 N 
ATOM     11  C9  <0> d          -3.579   1.920   0.346  0.00  0.00     0.295 C 
ATOM     12  O3  <0> d          -4.605   1.291   0.535  0.00  0.00    -0.264 OA
ATOM     13  H8  <0> d          -1.493   1.836  -0.042  0.00  0.00     0.192 HD
BRANCH  11  14
ATOM     14  C10 <0> d          -3.606   3.386   0.354  0.00  0.00     0.144 A 
ATOM     15  O4  <0> d          -2.546   4.199   0.166  0.00  0.00    -0.317 OA
ATOM     16  C13 <0> d          -2.947   5.475   0.237  0.00  0.00     0.143 A 
ATOM     17  C12 <0> d          -4.276   5.501   0.484  0.00  0.00     0.027 A 
ATOM     18  C11 <0> d          -4.707   4.167   0.561  0.00  0.00     0.045 A 
ENDBRANCH  11  14
ENDBRANCH   9  10
ENDBRANCH   3   8
BRANCH   1  19
ATOM     19  O1  <0> d           3.591  -0.526   0.261  0.00  0.00    -0.353 OA
ATOM     20  C1  <0> d           3.598  -1.683  -0.578  0.00  0.00     0.210 C 
ENDBRANCH   1  19
BRANCH   6  21
ATOM     21  O2  <0> d           3.436   1.697   1.873  0.00  0.00    -0.357 OA
ATOM     22  H6  <0> d           3.375   2.587   2.517  0.00  0.00     0.218 HD
ENDBRANCH   6  21
TORSDOF 5
