REMARK  3 active torsions:
REMARK  status: ('A' for Active; 'I' for Inactive)
REMARK    1  A    between atoms: C2_2  and  C5_5 
REMARK    2  A    between atoms: C15_15  and  O3_24 
REMARK    3  A    between atoms: C17_18  and  O2_19 
ROOT
ATOM      1  C5  <0> d           0.718  -0.497  -1.256  0.00  0.00    -0.003 C 
ATOM      2  C6  <0> d           0.768  -2.030  -1.258  0.00  0.00     0.011 C 
ATOM      3  C7  <0> d           1.269  -2.492  -2.620  0.00  0.00     0.060 C 
ATOM      4  C8  <0> d           2.483  -1.715  -3.065  0.00  0.00     0.044 C 
ATOM      5  C9  <0> d           2.911  -0.559  -2.438  0.00  0.00    -0.021 C 
ATOM      6  C10 <0> d           4.034   0.113  -2.911  0.00  0.00     0.004 C 
ATOM      7  C11 <0> d           4.669   1.255  -2.232  0.00  0.00     0.013 A 
ATOM      8  C12 <0> d           4.406   1.602  -0.910  0.00  0.00     0.015 A 
ATOM      9  C13 <0> d           5.013   2.704  -0.342  0.00  0.00     0.004 A 
ATOM     10  C14 <0> d           5.919   3.458  -1.068  0.00  0.00     0.040 A 
ATOM     11  C15 <0> d           6.230   3.104  -2.368  0.00  0.00     0.102 A 
ATOM     12  C16 <0> d           5.619   1.999  -2.955  0.00  0.00     0.122 A 
ATOM     13  O1  <0> d           5.952   1.635  -4.213  0.00  0.00    -0.284 OA
ATOM     14  C17 <0> d           5.629   0.433  -4.712  0.00  0.00     0.199 C 
ATOM     15  C18 <0> d           4.658  -0.351  -4.107  0.00  0.00     0.079 C 
ATOM     16  C19 <0> d           4.212  -1.639  -4.647  0.00  0.00     0.137 C 
ATOM     17  N1  <0> d           3.135  -2.220  -4.104  0.00  0.00    -0.235 NA
ATOM     18  N2  <0> d           4.844  -2.242  -5.643  0.00  0.00    -0.383 N 
ATOM     19  C21 <0> d           2.160   0.011  -1.262  0.00  0.00     0.047 C 
ATOM     20  H18 <0> d           5.628  -1.831  -6.038  0.00  0.00     0.157 HD
ATOM     21  H19 <0> d           4.522  -3.094  -5.976  0.00  0.00     0.157 HD
ENDROOT
BRANCH   1  22
ATOM     22  C2  <0> d           0.002  -0.004   0.002  0.00  0.00    -0.048 C 
ATOM     23  C1  <0> d          -0.019   1.526   0.010  0.00  0.00     0.015 C 
ATOM     24  C3  <0> d           0.742  -0.511   1.242  0.00  0.00     0.015 C 
ATOM     25  C4  <0> d          -1.433  -0.534   0.013  0.00  0.00     0.015 C 
ENDBRANCH   1  22
BRANCH  14  26
ATOM     26  O2  <0> d           6.273   0.012  -5.815  0.00  0.00    -0.340 OA
ATOM     27  H25 <0> d           6.928   0.638  -6.151  0.00  0.00     0.220 HD
ENDBRANCH  14  26
BRANCH  11  28
ATOM     28  O3  <0> d           7.135   3.836  -3.072  0.00  0.00    -0.353 OA
ATOM     29  C20 <0> d           7.723   4.956  -2.407  0.00  0.00     0.210 C 
ENDBRANCH  11  28
TORSDOF 3
