REMARK  3 active torsions:
REMARK  status: ('A' for Active; 'I' for Inactive)
REMARK    1  A    between atoms: C2_2  and  C5_5 
REMARK    2  A    between atoms: C11_11  and  C18_22 
REMARK    3  A    between atoms: C13_13  and  N2_17 
ROOT
ATOM      1  C5  <0> d           0.767  -0.994  -1.506  0.00  0.00    -0.003 C 
ATOM      2  C6  <0> d           0.916  -2.504  -1.742  0.00  0.00     0.033 C 
ATOM      3  C7  <0> d           1.645  -2.693  -3.047  0.00  0.00    -0.017 C 
ATOM      4  C8  <0> d           2.558  -1.829  -3.444  0.00  0.00    -0.034 C 
ATOM      5  C9  <0> d           2.988  -0.639  -2.638  0.00  0.00     0.032 C 
ATOM      6  C10 <0> d           2.163  -0.384  -1.400  0.00  0.00     0.015 C 
ATOM      7  C11 <0> d           3.030   0.578  -3.564  0.00  0.00     0.070 C 
ATOM      8  C12 <0> d           4.088   0.342  -4.643  0.00  0.00     0.188 C 
ATOM      9  C13 <0> d           3.914  -0.990  -5.310  0.00  0.00     0.062 C 
ATOM     10  C14 <0> d           3.216  -2.018  -4.764  0.00  0.00     0.075 C 
ATOM     11  C15 <0> d           3.115  -3.270  -5.451  0.00  0.00     0.102 C 
ATOM     12  N1  <0> d           3.034  -4.263  -5.996  0.00  0.00    -0.191 NA
ATOM     13  C16 <0> d           5.423   0.398  -4.027  0.00  0.00     0.092 C 
ATOM     14  N3  <0> d           6.454   0.442  -3.551  0.00  0.00    -0.195 NA
ATOM     15  C17 <0> d           3.984   1.403  -5.658  0.00  0.00     0.092 C 
ATOM     16  N4  <0> d           3.904   2.223  -6.440  0.00  0.00    -0.195 NA
ENDROOT
BRANCH   9  17
ATOM     17  N2  <0> d           4.489  -1.179  -6.535  0.00  0.00    -0.399 N 
ATOM     18  H18 <0> d           4.994  -0.462  -6.949  0.00  0.00     0.156 HD
ATOM     19  H19 <0> d           4.393  -2.030  -6.990  0.00  0.00     0.156 HD
ENDBRANCH   9  17
BRANCH   7  20
ATOM     20  C18 <0> d           1.682   0.768  -4.209  0.00  0.00    -0.049 A 
ATOM     21  C23 <0> d           1.363   0.076  -5.363  0.00  0.00     0.026 A 
ATOM     22  C22 <0> d           0.123   0.247  -5.952  0.00  0.00     0.011 A 
ATOM     23  C21 <0> d          -0.794   1.118  -5.392  0.00  0.00     0.019 A 
ATOM     24 Br1  <0> d          -0.316  -0.705  -7.525  0.00  0.00    -0.051 Br
ATOM     25  C20 <0> d          -0.472   1.814  -4.241  0.00  0.00     0.002 A 
ATOM     26  C19 <0> d           0.765   1.639  -3.650  0.00  0.00     0.007 A 
ENDBRANCH   7  20
BRANCH   1  27
ATOM     27  C2  <0> d          -0.003  -0.748  -0.207  0.00  0.00    -0.048 C 
ATOM     28  C1  <0> d          -0.136   0.757   0.029  0.00  0.00     0.015 C 
ATOM     29  C3  <0> d           0.753  -1.383   0.962  0.00  0.00     0.015 C 
ATOM     30  C4  <0> d          -1.395  -1.373  -0.314  0.00  0.00     0.015 C 
ENDBRANCH   1  27
TORSDOF 3
