REMARK  4 active torsions:
REMARK  status: ('A' for Active; 'I' for Inactive)
REMARK    1  A    between atoms: C2_2  and  C3_3 
REMARK    2  A    between atoms: C2_2  and  C17_20 
REMARK    3  A    between atoms: C3_3  and  N1_4 
REMARK    4  A    between atoms: C12_14  and  C13_16 
ROOT
ATOM      1  N1  <0> d          -0.153  -0.227  -2.541  0.00  0.00    -0.063 N 
ATOM      2  C4  <0> d          -0.014   1.190  -2.946  0.00  0.00     0.274 C 
ATOM      3  C5  <0> d           1.105   1.216  -3.964  0.00  0.00    -0.022 A 
ATOM      4  C6  <0> d           1.871   2.244  -4.436  0.00  0.00     0.043 A 
ATOM      5  C7  <0> d           2.858   1.998  -5.393  0.00  0.00     0.086 A 
ATOM      6  C8  <0> d           3.053   0.688  -5.863  0.00  0.00     0.065 A 
ATOM      7  C9  <0> d           2.266  -0.345  -5.373  0.00  0.00     0.041 A 
ATOM      8  C10 <0> d           1.298  -0.080  -4.429  0.00  0.00    -0.022 A 
ATOM      9  C11 <0> d           0.310  -0.985  -3.726  0.00  0.00     0.274 C 
ATOM     10  N2  <0> d           4.079   0.762  -6.784  0.00  0.00    -0.337 N 
ATOM     11  C12 <0> d           4.469   2.063  -6.851  0.00  0.00     0.110 A 
ATOM     12  N3  <0> d           3.756   2.787  -6.038  0.00  0.00    -0.233 NA
ATOM     13  C16 <0> d           4.643  -0.354  -7.547  0.00  0.00     0.158 C 
ATOM     14  H25 <0> d          -1.117  -0.446  -2.337  0.00  0.00     0.280 HD
ENDROOT
BRANCH   1  15
ATOM     15  C3  <0> d           0.697  -0.517  -1.379  0.00  0.00     0.246 C 
BRANCH  15  16
ATOM     16  C2  <0> d           0.517  -1.979  -0.967  0.00  0.00     0.068 C 
ATOM     17  C1  <0> d          -0.917  -2.199  -0.479  0.00  0.00     0.019 C 
BRANCH  16  18
ATOM     18  C17 <0> d           1.481  -2.311   0.142  0.00  0.00     0.076 C 
ATOM     19  S1  <0> d           2.308  -1.145   0.859  0.00  0.00    -0.065 SA
ATOM     20  N4  <0> d           1.647  -3.591   0.530  0.00  0.00    -0.393 N 
ATOM     21  H23 <0> d           1.146  -4.299   0.096  0.00  0.00     0.156 HD
ATOM     22  H24 <0> d           2.268  -3.805   1.244  0.00  0.00     0.156 HD
ENDBRANCH  16  18
ENDBRANCH  15  16
ENDBRANCH   1  15
BRANCH  11  23
ATOM     23  C13 <0> d           5.568   2.591  -7.737  0.00  0.00     0.047 C 
ATOM     24  C14 <0> d           4.993   3.637  -8.694  0.00  0.00     0.017 C 
ATOM     25  C15 <0> d           6.656   3.232  -6.874  0.00  0.00     0.017 C 
ENDBRANCH  11  23
TORSDOF 4
