REMARK  4 active torsions:
REMARK  status: ('A' for Active; 'I' for Inactive)
REMARK    1  A    between atoms: N1_5  and  C5_7 
REMARK    2  A    between atoms: C11_17  and  C12_18 
REMARK    3  A    between atoms: C12_18  and  C13_20 
REMARK    4  A    between atoms: C16_23  and  O3_26 
ROOT
ATOM      1  C1  <0> d          -0.018   1.503   0.010  0.00  0.00     0.073 C 
ATOM      2  C2  <0> d           0.002  -0.004   0.002  0.00  0.00     0.063 A 
ATOM      3  C3  <0> d           0.008  -0.810  -1.127  0.00  0.00     0.027 A 
ATOM      4  C4  <0> d           0.032  -2.116  -0.715  0.00  0.00     0.159 A 
ATOM      5  N1  <0> d           0.032  -2.117   0.636  0.00  0.00    -0.042 N 
ATOM      6  N2  <0> d           0.023  -0.778   1.062  0.00  0.00    -0.155 NA
ATOM      7  N5  <0> d           0.064  -3.175  -1.620  0.00  0.00    -0.310 N 
ATOM      8  C9  <0> d           0.274  -2.891  -2.923  0.00  0.00     0.224 C 
ATOM      9  O1  <0> d           0.118  -3.767  -3.748  0.00  0.00    -0.273 OA
ATOM     10  C10 <0> d           0.694  -1.524  -3.384  0.00  0.00     0.120 C 
ATOM     11  C11 <0> d          -0.013  -0.426  -2.585  0.00  0.00     0.108 C 
ATOM     12  H8  <0> d          -0.062  -4.089  -1.323  0.00  0.00     0.170 HD
ENDROOT
BRANCH  11  13
ATOM     13  C12 <0> d          -1.439  -0.295  -3.055  0.00  0.00     0.168 C 
ATOM     14  O2  <0> d          -2.323  -0.900  -2.486  0.00  0.00    -0.292 OA
BRANCH  13  15
ATOM     15  C13 <0> d          -1.759   0.565  -4.202  0.00  0.00     0.011 A 
ATOM     16  C18 <0> d          -3.083   0.688  -4.640  0.00  0.00     0.018 A 
ATOM     17  C17 <0> d          -3.376   1.497  -5.708  0.00  0.00     0.037 A 
ATOM     18  C16 <0> d          -2.360   2.185  -6.362  0.00  0.00     0.068 A 
ATOM     19  C15 <0> d          -1.043   2.062  -5.934  0.00  0.00     0.037 A 
ATOM     20  C14 <0> d          -0.739   1.261  -4.864  0.00  0.00     0.018 A 
BRANCH  18  21
ATOM     21  O3  <0> d          -2.655   2.980  -7.421  0.00  0.00    -0.356 OA
ATOM     22  C19 <0> d          -4.028   3.062  -7.809  0.00  0.00     0.210 C 
ENDBRANCH  18  21
ENDBRANCH  13  15
ENDBRANCH  11  13
BRANCH   5  23
ATOM     23  C5  <0> d           0.044  -3.242   1.458  0.00  0.00     0.750 A 
ATOM     24  N4  <0> d           0.043  -3.081   2.772  0.00  0.00    -0.073 NA
ATOM     25  C8  <0> d           0.048  -4.128   3.581  0.00  0.00     0.138 A 
ATOM     26  C7  <0> d           0.068  -5.403   3.037  0.00  0.00     0.040 A 
ATOM     27  C6  <0> d           0.075  -5.533   1.657  0.00  0.00     0.138 A 
ATOM     28  N3  <0> d           0.063  -4.445   0.906  0.00  0.00    -0.073 NA
ENDBRANCH   5  23
TORSDOF 4
