REMARK  4 active torsions:
REMARK  status: ('A' for Active; 'I' for Inactive)
REMARK    1  A    between atoms: C3_3  and  N5_14 
REMARK    2  A    between atoms: N2_5  and  C4_6 
REMARK    3  A    between atoms: C4_6  and  C5_7 
REMARK    4  A    between atoms: C5_7  and  N3_8 
ROOT
ATOM      1  C4  <0> d          -1.171  -0.882   0.009  0.00  0.00     0.180 C 
ENDROOT
BRANCH   1   2
ATOM      2  N2  <0> d           0.002  -0.004   0.002  0.00  0.00    -0.276 N 
ATOM      3  C1  <0> d          -0.016   1.346   0.009  0.00  0.00     0.135 A 
ATOM      4  C2  <0> d           1.267   1.776  -0.001  0.00  0.00     0.082 A 
ATOM      5  C3  <0> d           2.098   0.650  -0.015  0.00  0.00     0.233 A 
ATOM      6 Br1  <0> d           1.837   3.579   0.003  0.00  0.00    -0.045 Br
ATOM      7  N1  <0> d           1.341  -0.417  -0.013  0.00  0.00    -0.147 NA
BRANCH   5   8
ATOM      8  N5  <0> d           3.578   0.663  -0.029  0.00  0.00    -0.093 N 
ATOM      9  O1  <0> d           4.173   1.716  -0.029  0.00  0.00    -0.530 OA
ATOM     10  O2  <0> d           4.192  -0.378  -0.040  0.00  0.00    -0.530 OA
ENDBRANCH   5   8
ENDBRANCH   1   2
BRANCH   1  11
ATOM     11  C5  <0> d          -1.095  -1.844  -1.179  0.00  0.00     0.294 C 
BRANCH  11  12
ATOM     12  N3  <0> d          -2.271  -2.724  -1.173  0.00  0.00     0.093 N 
ATOM     13  C9  <0> d          -2.357  -3.497  -2.420  0.00  0.00     0.300 C 
ATOM     14  C8  <0> d          -3.624  -4.355  -2.398  0.00  0.00     0.262 C 
ATOM     15  N4  <0> d          -3.583  -5.260  -1.242  0.00  0.00    -0.072 N 
ATOM     16  C7  <0> d          -3.522  -4.473  -0.004  0.00  0.00     0.262 C 
ATOM     17  H10 <0> d          -2.767  -5.850  -1.306  0.00  0.00     0.277 HD
ATOM     18  H15 <0> d          -4.413  -5.834  -1.235  0.00  0.00     0.277 HD
ATOM     19  C6  <0> d          -2.254  -3.616  -0.005  0.00  0.00     0.300 C 
ENDBRANCH  11  12
ENDBRANCH   1  11
TORSDOF 4
