REMARK  6 active torsions:
REMARK  status: ('A' for Active; 'I' for Inactive)
REMARK    1  A    between atoms: C7_7  and  S1_8 
REMARK    2  A    between atoms: S1_8  and  C8_9 
REMARK    3  A    between atoms: C8_9  and  C9_10 
REMARK    4  A    between atoms: C9_10  and  O2_12 
REMARK    5  A    between atoms: O2_12  and  C10_13 
REMARK    6  A    between atoms: C10_13  and  C12_15 
REMARK       I    between atoms: C12_15  and  N1_17 
ROOT
ATOM      1  C8  <0> d           2.247  -0.821  -0.025  0.00  0.00     0.190 C 
ENDROOT
BRANCH   1   2
ATOM      2  S1  <0> d           2.720   0.930  -0.020  0.00  0.00    -0.120 SA
BRANCH   2   3
ATOM      3  C7  <0> d           1.181   1.788   0.000  0.00  0.00     0.007 A 
ATOM      4  C2  <0> d           1.158   3.177   0.008  0.00  0.00    -0.044 A 
ATOM      5  C1  <0> d           2.450   3.953   0.000  0.00  0.00     0.049 C 
ATOM      6  C3  <0> d          -0.050   3.846   0.023  0.00  0.00     0.027 A 
ATOM      7  C4  <0> d          -1.237   3.134   0.031  0.00  0.00     0.011 A 
ATOM      8  C5  <0> d          -1.217   1.750   0.017  0.00  0.00     0.020 A 
ATOM      9 Br1  <0> d          -2.889   4.054   0.052  0.00  0.00    -0.051 Br
ATOM     10  C6  <0> d          -0.013   1.076   0.008  0.00  0.00     0.020 A 
ENDBRANCH   2   3
ENDBRANCH   1   2
BRANCH   1  11
ATOM     11  C9  <0> d           3.488  -1.676  -0.042  0.00  0.00     0.269 C 
ATOM     12  O1  <0> d           4.579  -1.158  -0.050  0.00  0.00    -0.264 OA
BRANCH  11  13
ATOM     13  O2  <0> d           3.380  -3.014  -0.049  0.00  0.00    -0.306 OA
BRANCH  13  14
ATOM     14  C10 <0> d           4.617  -3.775  -0.065  0.00  0.00     0.219 C 
ATOM     15  C11 <0> d           5.066  -4.050   1.372  0.00  0.00     0.050 C 
BRANCH  14  16
ATOM     16  C12 <0> d           4.394  -5.082  -0.781  0.00  0.00     0.244 C 
ATOM     17  O3  <0> d           3.300  -5.346  -1.233  0.00  0.00    -0.271 OA
ATOM     18  N1  <0> d           5.409  -5.957  -0.919  0.00  0.00    -0.368 N 
ATOM     19  H13 <0> d           6.284  -5.745  -0.558  0.00  0.00     0.159 HD
ATOM     20  H14 <0> d           5.266  -6.798  -1.380  0.00  0.00     0.159 HD
ENDBRANCH  14  16
ENDBRANCH  13  14
ENDBRANCH  11  13
ENDBRANCH   1  11
TORSDOF 6
