REMARK  6 active torsions:
REMARK  status: ('A' for Active; 'I' for Inactive)
REMARK    1  A    between atoms: C2_2  and  C6_11 
REMARK    2  A    between atoms: C6_11  and  N4_12 
REMARK    3  A    between atoms: N4_12  and  C7_13 
REMARK    4  A    between atoms: N4_12  and  C11_17 
REMARK    5  A    between atoms: C7_13  and  C8_14 
REMARK    6  A    between atoms: C11_17  and  C12_18 
ROOT
ATOM      1  C6  <0> d           1.054   3.620   0.090  0.00  0.00     0.294 C 
ENDROOT
BRANCH   1   2
ATOM      2  C2  <0> d           1.123   2.115   0.052  0.00  0.00     0.068 A 
ATOM      3  C1  <0> d          -0.030   1.360   0.052  0.00  0.00     0.105 A 
ATOM      4  C4  <0> d           0.054  -0.032   0.016  0.00  0.00     0.272 A 
ATOM      5  N2  <0> d           1.277  -0.639  -0.019  0.00  0.00    -0.172 N 
ATOM      6  O1  <0> d          -0.964  -0.707   0.016  0.00  0.00    -0.266 OA
ATOM      7  C3  <0> d           2.368   0.185  -0.015  0.00  0.00     0.199 A 
ATOM      8  N3  <0> d           1.538  -2.005  -0.057  0.00  0.00    -0.168 NA
ATOM      9  N1  <0> d           2.298   1.492   0.018  0.00  0.00    -0.225 NA
ATOM     10  S1  <0> d           3.722  -0.969  -0.066  0.00  0.00    -0.041 SA
ATOM     11  C5  <0> d           2.751  -2.467  -0.087  0.00  0.00     0.192 A 
ENDBRANCH   1   2
BRANCH   1  12
ATOM     12  N4  <0> d           1.635   4.106   1.349  0.00  0.00    -0.056 N 
ATOM     13  H14 <0> d           2.569   3.738   1.452  0.00  0.00     0.281 HD
BRANCH  12  14
ATOM     14  C7  <0> d           1.685   5.574   1.331  0.00  0.00     0.240 C 
BRANCH  14  15
ATOM     15  C8  <0> d           2.422   6.074   2.576  0.00  0.00     0.011 A 
ATOM     16  C10 <0> d           2.683   7.577   2.685  0.00  0.00     0.007 A 
ATOM     17  C9  <0> d           1.628   6.917   3.575  0.00  0.00     0.007 A 
ENDBRANCH  14  15
ENDBRANCH  12  14
BRANCH  12  18
ATOM     18  C11 <0> d           0.805   3.658   2.476  0.00  0.00     0.347 C 
BRANCH  18  19
ATOM     19  C12 <0> d          -0.572   4.258   2.356  0.00  0.00     0.199 C 
ATOM     20  O2  <0> d          -0.872   4.901   1.365  0.00  0.00    -0.647 OA
ATOM     21  O3  <0> d          -1.385   4.101   3.250  0.00  0.00    -0.647 OA
ENDBRANCH  18  19
ENDBRANCH  12  18
ENDBRANCH   1  12
TORSDOF 6
