REMARK  4 active torsions:
REMARK  status: ('A' for Active; 'I' for Inactive)
REMARK    1  A    between atoms: C4_4  and  C7_7 
REMARK    2  A    between atoms: C9_10  and  C10_13 
REMARK    3  A    between atoms: C10_13  and  N3_14 
REMARK       I    between atoms: N3_14  and  C11_15 
REMARK    4  A    between atoms: C11_15  and  C12_17 
ROOT
ATOM      1  C7  <0> d           3.699  -0.689  -0.037  0.00  0.00     0.059 A 
ATOM      2  C8  <0> d           4.932  -0.120  -0.041  0.00  0.00     0.119 A 
ATOM      3  N1  <0> d           5.837  -1.144  -0.057  0.00  0.00    -0.352 N 
ATOM      4  C9  <0> d           5.138  -2.301  -0.064  0.00  0.00     0.099 A 
ATOM      5  N2  <0> d           3.864  -2.027  -0.046  0.00  0.00    -0.343 N 
ATOM      6  H1  <0> d           6.803  -1.057  -0.064  0.00  0.00     0.166 HD
ATOM      7  H13 <0> d           3.148  -2.682  -0.043  0.00  0.00     0.167 HD
ENDROOT
BRANCH   4   8
ATOM      8  C10 <0> d           5.736  -3.684  -0.081  0.00  0.00     0.199 C 
BRANCH   8   9
ATOM      9  N3  <0> d           7.118  -3.613  -0.562  0.00  0.00    -0.348 N 
ATOM     10  C11 <0> d           7.855  -4.737  -0.663  0.00  0.00     0.275 C 
ATOM     11  O1  <0> d           7.373  -5.811  -0.354  0.00  0.00    -0.265 OA
ATOM     12  H10 <0> d           7.502  -2.757  -0.809  0.00  0.00     0.163 HD
BRANCH  10  13
ATOM     13  C12 <0> d           9.238  -4.665  -1.144  0.00  0.00     0.144 A 
ATOM     14  O2  <0> d           9.891  -3.545  -1.518  0.00  0.00    -0.298 OA
ATOM     15  C15 <0> d          11.136  -3.861  -1.896  0.00  0.00     0.122 A 
ATOM     16  C14 <0> d          11.299  -5.199  -1.779  0.00  0.00     0.048 A 
ATOM     17 Br1  <0> d          12.447  -2.641  -2.501  0.00  0.00    -0.023 Br
ATOM     18  C13 <0> d          10.089  -5.722  -1.298  0.00  0.00     0.046 A 
ENDBRANCH  10  13
ENDBRANCH   8   9
ENDBRANCH   4   8
BRANCH   1  19
ATOM     19  C4  <0> d           2.402   0.033  -0.021  0.00  0.00    -0.008 A 
ATOM     20  C3  <0> d           2.377   1.426  -0.013  0.00  0.00     0.014 A 
ATOM     21  C2  <0> d           1.169   2.092   0.002  0.00  0.00     0.001 A 
ATOM     22  C1  <0> d          -0.017   1.379   0.010  0.00  0.00     0.000 A 
ATOM     23  C6  <0> d           0.002  -0.004   0.002  0.00  0.00     0.001 A 
ATOM     24  C5  <0> d           1.205  -0.680  -0.013  0.00  0.00     0.014 A 
ENDBRANCH   1  19
TORSDOF 4
