REMARK  4 active torsions:
REMARK  status: ('A' for Active; 'I' for Inactive)
REMARK    1  A    between atoms: C3_3  and  C5_6 
REMARK    2  A    between atoms: N1_11  and  C9_13 
REMARK    3  A    between atoms: C9_13  and  C10_14 
REMARK       I    between atoms: C10_14  and  N3_16 
REMARK    4  A    between atoms: N3_16  and  C11_17 
ROOT
ATOM      1  C5  <0> d           3.739   1.825  -0.024  0.00  0.00     0.094 A 
ATOM      2  C6  <0> d           4.816   0.905  -0.045  0.00  0.00     0.040 A 
ATOM      3  C7  <0> d           6.086   1.400  -0.055  0.00  0.00     0.078 A 
ATOM      4  C8  <0> d           6.250   2.803  -0.043  0.00  0.00     0.264 A 
ATOM      5  O1  <0> d           7.369   3.291  -0.052  0.00  0.00    -0.267 OA
ATOM      6  N1  <0> d           5.164   3.598  -0.024  0.00  0.00    -0.225 N 
ATOM      7  N2  <0> d           3.974   3.118  -0.020  0.00  0.00    -0.168 NA
ENDROOT
BRANCH   6   8
ATOM      8  C9  <0> d           5.346   5.052  -0.011  0.00  0.00     0.257 C 
BRANCH   8   9
ATOM      9  C10 <0> d           5.393   5.564  -1.428  0.00  0.00     0.237 C 
ATOM     10  O2  <0> d           5.285   4.792  -2.356  0.00  0.00    -0.272 OA
ATOM     11  N3  <0> d           5.554   6.882  -1.663  0.00  0.00    -0.354 N 
ATOM     12  H9  <0> d           5.641   7.500  -0.920  0.00  0.00     0.162 HD
BRANCH  11  13
ATOM     13  C11 <0> d           5.599   7.380  -3.040  0.00  0.00     0.099 C 
ATOM     14  C14 <0> d           5.161   8.872  -3.073  0.00  0.00     0.165 C 
ATOM     15  S2  <0> d           5.871   9.396  -4.691  0.00  0.00     0.146 S 
ATOM     16  C13 <0> d           7.160   8.100  -4.891  0.00  0.00     0.142 C 
ATOM     17  O3  <0> d           6.505  10.657  -4.530  0.00  0.00    -0.228 OA
ATOM     18  O4  <0> d           4.888   9.231  -5.704  0.00  0.00    -0.228 OA
ATOM     19  C12 <0> d           7.038   7.292  -3.577  0.00  0.00     0.041 C 
ENDBRANCH  11  13
ENDBRANCH   8   9
ENDBRANCH   6   8
BRANCH   1  20
ATOM     20  C3  <0> d           2.347   1.329  -0.013  0.00  0.00     0.035 A 
ATOM     21  C2  <0> d           1.177   2.041   0.002  0.00  0.00     0.022 A 
ATOM     22  C1  <0> d          -0.016   1.354   0.009  0.00  0.00     0.008 A 
ATOM     23  C4  <0> d           0.002  -0.004   0.002  0.00  0.00     0.050 A 
ATOM     24  S1  <0> d           1.752  -0.354  -0.017  0.00  0.00    -0.100 SA
ENDBRANCH   1  20
TORSDOF 4
