REMARK  4 active torsions:
REMARK  status: ('A' for Active; 'I' for Inactive)
REMARK    1  A    between atoms: C2_2  and  C4_4 
REMARK    2  A    between atoms: C2_2  and  N1_7 
REMARK    3  A    between atoms: N1_7  and  C6_9 
REMARK    4  A    between atoms: C9_13  and  C11_15 
REMARK       I    between atoms: C11_15  and  N3_17 
ROOT
ATOM      1  C6  <0> d           2.007   0.333  -1.326  0.00  0.00     0.034 A 
ATOM      2  C7  <0> d           2.552   1.085  -0.287  0.00  0.00     0.046 A 
ATOM      3  C8  <0> d           3.794   1.668  -0.454  0.00  0.00     0.090 A 
ATOM      4  N2  <0> d           4.466   1.523  -1.576  0.00  0.00    -0.361 N 
ATOM      5  C9  <0> d           3.986   0.816  -2.593  0.00  0.00     0.102 A 
ATOM      6  C10 <0> d           2.746   0.194  -2.501  0.00  0.00     0.064 A 
ATOM      7  H17 <0> d           5.335   1.944  -1.663  0.00  0.00     0.165 HD
ENDROOT
BRANCH   1   8
ATOM      8  N1  <0> d           0.759  -0.269  -1.193  0.00  0.00    -0.367 N 
ATOM      9  C5  <0> d           0.239  -1.121  -2.265  0.00  0.00     0.151 C 
BRANCH   8  10
ATOM     10  C2  <0> d          -0.034  -0.051   0.019  0.00  0.00     0.113 C 
ATOM     11  C1  <0> d           0.679  -0.683   1.216  0.00  0.00     0.050 C 
ATOM     12  C3  <0> d          -1.412  -0.692  -0.151  0.00  0.00     0.050 C 
BRANCH  10  13
ATOM     13  C4  <0> d          -0.195   1.429   0.254  0.00  0.00     0.202 C 
ATOM     14  O1  <0> d           0.185   2.225  -0.588  0.00  0.00    -0.646 OA
ATOM     15  O2  <0> d          -0.704   1.831   1.286  0.00  0.00    -0.646 OA
ENDBRANCH  10  13
ENDBRANCH   8  10
ENDBRANCH   1   8
BRANCH   5  16
ATOM     16  C11 <0> d           4.783   0.684  -3.836  0.00  0.00     0.267 C 
ATOM     17  O3  <0> d           4.349   0.038  -4.770  0.00  0.00    -0.266 OA
ATOM     18  N3  <0> d           5.988   1.280  -3.930  0.00  0.00    -0.360 N 
ATOM     19  C12 <0> d           6.775   1.149  -5.159  0.00  0.00     0.149 C 
ATOM     20  H13 <0> d           6.334   1.795  -3.185  0.00  0.00     0.162 HD
ENDBRANCH   5  16
TORSDOF 4
