REMARK  5 active torsions:
REMARK  status: ('A' for Active; 'I' for Inactive)
REMARK    1  A    between atoms: C2_2  and  C18_28 
REMARK    2  A    between atoms: N1_5  and  C5_9 
REMARK    3  A    between atoms: C5_9  and  C6_10 
REMARK       I    between atoms: C6_10  and  N3_12 
REMARK    4  A    between atoms: C14_20  and  S1_22 
REMARK    5  A    between atoms: S1_22  and  N4_25 
ROOT
ATOM      1  C6  <0> d           3.998  -0.950  -1.696  0.00  0.00     0.242 C 
ATOM      2  O3  <0> d           3.108  -1.732  -1.437  0.00  0.00    -0.271 OA
ATOM      3  N3  <0> d           5.017  -1.329  -2.493  0.00  0.00    -0.316 N 
ATOM      4  C7  <0> d           6.144  -0.422  -2.746  0.00  0.00     0.132 C 
ATOM      5  C8  <0> d           6.453  -0.465  -4.248  0.00  0.00     0.025 C 
ATOM      6  C9  <0> d           6.897  -1.880  -4.621  0.00  0.00     0.042 C 
ATOM      7  C10 <0> d           5.903  -2.894  -4.119  0.00  0.00    -0.030 A 
ATOM      8  C11 <0> d           5.021  -2.597  -3.090  0.00  0.00     0.043 A 
ATOM      9  C12 <0> d           4.122  -3.559  -2.643  0.00  0.00     0.032 A 
ATOM     10  C13 <0> d           4.109  -4.813  -3.219  0.00  0.00     0.027 A 
ATOM     11  C14 <0> d           4.989  -5.111  -4.243  0.00  0.00     0.080 A 
ATOM     12  C15 <0> d           5.879  -4.151  -4.698  0.00  0.00     0.034 A 
ENDROOT
BRANCH   1  13
ATOM     13  C5  <0> d           3.965   0.445  -1.127  0.00  0.00     0.240 C 
BRANCH  13  14
ATOM     14  N1  <0> d           2.710   0.646  -0.399  0.00  0.00    -0.259 N 
ATOM     15  C3  <0> d           2.544   0.380   0.912  0.00  0.00     0.262 A 
ATOM     16  C2  <0> d           1.104   0.738   1.223  0.00  0.00     0.157 A 
ATOM     17  O1  <0> d           3.373  -0.055   1.681  0.00  0.00    -0.270 OA
ATOM     18  C1  <0> d           0.335  -0.495   1.703  0.00  0.00     0.056 C 
ATOM     19  N2  <0> d           0.577   1.208  -0.069  0.00  0.00    -0.319 N 
ATOM     20  C4  <0> d           1.587   1.117  -0.953  0.00  0.00     0.326 A 
ATOM     21  H4  <0> d          -0.324   1.521  -0.248  0.00  0.00     0.166 HD
ATOM     22  O2  <0> d           1.490   1.428  -2.124  0.00  0.00    -0.247 OA
BRANCH  16  23
ATOM     23  C18 <0> d           1.038   1.835   2.254  0.00  0.00     0.071 A 
ATOM     24  N5  <0> d           2.153   2.307   2.776  0.00  0.00    -0.262 NA
ATOM     25  C22 <0> d           2.144   3.271   3.676  0.00  0.00     0.117 A 
ATOM     26  C21 <0> d           0.953   3.817   4.115  0.00  0.00     0.019 A 
ATOM     27  C20 <0> d          -0.241   3.343   3.592  0.00  0.00     0.003 A 
ATOM     28  C19 <0> d          -0.191   2.333   2.644  0.00  0.00     0.030 A 
ENDBRANCH  16  23
ENDBRANCH  13  14
ENDBRANCH   1  13
BRANCH  11  29
ATOM     29  S1  <0> d           4.971  -6.711  -4.980  0.00  0.00     0.260 S 
ATOM     30  O4  <0> d           6.260  -6.913  -5.545  0.00  0.00    -0.200 OA
ATOM     31  O5  <0> d           4.415  -7.596  -4.017  0.00  0.00    -0.200 OA
BRANCH  29  32
ATOM     32  N4  <0> d           3.904  -6.656  -6.245  0.00  0.00    -0.315 N 
ATOM     33  C16 <0> d           4.371  -6.283  -7.582  0.00  0.00     0.162 C 
ATOM     34  C17 <0> d           2.492  -6.979  -6.026  0.00  0.00     0.162 C 
ENDBRANCH  29  32
ENDBRANCH  11  29
TORSDOF 5
