REMARK  4 active torsions:
REMARK  status: ('A' for Active; 'I' for Inactive)
REMARK    1  A    between atoms: N1_5  and  C12_16 
REMARK    2  A    between atoms: C6_8  and  C10_13 
REMARK    3  A    between atoms: C10_13  and  N2_15 
REMARK    4  A    between atoms: C12_16  and  C13_17 
ROOT
ATOM      1  C1  <0> d          -2.369   4.069  -2.463  0.00  0.00     0.050 C 
ATOM      2  C2  <0> d          -1.160   3.258  -2.934  0.00  0.00     0.217 C 
ATOM      3  C3  <0> d          -0.394   2.758  -1.736  0.00  0.00     0.254 C 
ATOM      4  O1  <0> d           0.512   3.418  -1.273  0.00  0.00    -0.270 OA
ATOM      5  N1  <0> d          -0.721   1.571  -1.179  0.00  0.00    -0.310 N 
ATOM      6  C4  <0> d          -1.746   0.808  -1.758  0.00  0.00     0.071 A 
ATOM      7  C5  <0> d          -2.332  -0.235  -1.058  0.00  0.00     0.041 A 
ATOM      8  C6  <0> d          -3.344  -0.972  -1.644  0.00  0.00    -0.026 A 
ATOM      9  C7  <0> d          -3.776  -0.668  -2.922  0.00  0.00     0.012 A 
ATOM     10  C8  <0> d          -3.199   0.376  -3.622  0.00  0.00     0.040 A 
ATOM     11  C9  <0> d          -2.185   1.118  -3.042  0.00  0.00     0.096 A 
ATOM     12  O2  <0> d          -1.607   2.148  -3.716  0.00  0.00    -0.335 OA
ENDROOT
BRANCH   8  13
ATOM     13  C10 <0> d          -3.979  -2.111  -0.887  0.00  0.00     0.212 C 
ATOM     14  C11 <0> d          -3.382  -3.436  -1.365  0.00  0.00     0.045 C 
BRANCH  13  15
ATOM     15  N2  <0> d          -5.428  -2.111  -1.129  0.00  0.00    -0.071 N 
ATOM     16  H12 <0> d          -5.892  -2.942  -0.577  0.00  0.00     0.275 HD
ATOM     17  H13 <0> d          -5.621  -2.233  -2.205  0.00  0.00     0.275 HD
ATOM     18  H19 <0> d          -5.857  -1.158  -0.785  0.00  0.00     0.275 HD
ENDBRANCH  13  15
ENDBRANCH   8  13
BRANCH   5  19
ATOM     19  C12 <0> d          -0.013   1.086   0.008  0.00  0.00     0.158 C 
BRANCH  19  20
ATOM     20  C13 <0> d          -0.718   1.572   1.248  0.00  0.00    -0.017 C 
ATOM     21  C14 <0> d          -1.109   0.714   2.158  0.00  0.00     0.008 C 
ENDBRANCH  19  20
ENDBRANCH   5  19
TORSDOF 4
