REMARK  5 active torsions:
REMARK  status: ('A' for Active; 'I' for Inactive)
REMARK    1  A    between atoms: C6_6  and  N1_7 
REMARK       I    between atoms: N1_7  and  C7_8 
REMARK    2  A    between atoms: C7_8  and  C8_10 
REMARK    3  A    between atoms: C8_10  and  O2_11 
REMARK    4  A    between atoms: O2_11  and  C9_12 
REMARK    5  A    between atoms: C9_12  and  C10_14 
ROOT
ATOM      1  N1  <0> d          -1.200  -0.722   0.010  0.00  0.00    -0.325 N 
ATOM      2  C7  <0> d          -1.183  -2.065  -0.099  0.00  0.00     0.246 C 
ATOM      3  O1  <0> d          -0.126  -2.659  -0.113  0.00  0.00    -0.271 OA
ATOM      4  H6  <0> d          -2.044  -0.252   0.098  0.00  0.00     0.169 HD
ENDROOT
BRANCH   2   5
ATOM      5  C8  <0> d          -2.478  -2.828  -0.204  0.00  0.00     0.281 C 
BRANCH   5   6
ATOM      6  O2  <0> d          -2.200  -4.226  -0.309  0.00  0.00    -0.310 OA
BRANCH   6   7
ATOM      7  C9  <0> d          -3.254  -5.051  -0.411  0.00  0.00     0.282 C 
ATOM      8  O3  <0> d          -4.376  -4.601  -0.411  0.00  0.00    -0.263 OA
BRANCH   7   9
ATOM      9  C10 <0> d          -3.039  -6.538  -0.525  0.00  0.00     0.184 C 
ATOM     10  N2  <0> d          -4.253  -7.190  -1.031  0.00  0.00    -0.347 N 
ATOM     11  C13 <0> d          -4.527  -8.311  -0.339  0.00  0.00     0.218 C 
ATOM     12  H13 <0> d          -4.787  -6.855  -1.767  0.00  0.00     0.163 HD
ATOM     13  C12 <0> d          -3.490  -8.524   0.742  0.00  0.00     0.105 C 
ATOM     14  O4  <0> d          -5.470  -9.044  -0.552  0.00  0.00    -0.274 OA
ATOM     15  C11 <0> d          -2.790  -7.151   0.871  0.00  0.00     0.044 C 
ENDBRANCH   7   9
ENDBRANCH   6   7
ENDBRANCH   5   6
ENDBRANCH   2   5
BRANCH   1  16
ATOM     16  C6  <0> d           0.002  -0.004  -0.004  0.00  0.00     0.034 A 
ATOM     17  C1  <0> d           1.072  -0.453  -0.766  0.00  0.00     0.031 A 
ATOM     18  C2  <0> d           2.256   0.258  -0.778  0.00  0.00     0.021 A 
ATOM     19  C3  <0> d           2.377   1.416  -0.032  0.00  0.00     0.011 A 
ATOM     20  C4  <0> d           1.312   1.866   0.729  0.00  0.00     0.021 A 
ATOM     21 Br1  <0> d           4.000   2.387  -0.051  0.00  0.00    -0.051 Br
ATOM     22  C5  <0> d           0.126   1.159   0.745  0.00  0.00     0.031 A 
ENDBRANCH   1  16
TORSDOF 5
