REMARK  8 active torsions:
REMARK  status: ('A' for Active; 'I' for Inactive)
REMARK    1  A    between atoms: C2_2  and  C3_3 
REMARK    2  A    between atoms: C3_3  and  O1_4 
REMARK    3  A    between atoms: O1_4  and  C4_5 
REMARK    4  A    between atoms: C8_9  and  C10_11 
REMARK    5  A    between atoms: C10_11  and  N1_12 
REMARK    6  A    between atoms: N1_12  and  S1_13 
REMARK    7  A    between atoms: S1_13  and  C11_16 
REMARK    8  A    between atoms: C13_18  and  C16_22 
REMARK       I    between atoms: C16_22  and  N3_24 
ROOT
ATOM      1  S1  <0> d           0.753  -8.255   3.758  0.00  0.00     0.260 S 
ATOM      2  O2  <0> d          -0.481  -8.413   4.445  0.00  0.00    -0.200 OA
ATOM      3  O3  <0> d           0.928  -8.653   2.405  0.00  0.00    -0.200 OA
ENDROOT
BRANCH   1   4
ATOM      4  N1  <0> d           1.132  -6.645   3.831  0.00  0.00    -0.311 N 
ATOM      5  H14 <0> d           0.531  -6.024   4.273  0.00  0.00     0.172 HD
BRANCH   4   6
ATOM      6  C10 <0> d           2.376  -6.157   3.229  0.00  0.00     0.170 C 
BRANCH   6   7
ATOM      7  C8  <0> d           2.317  -4.657   3.100  0.00  0.00    -0.037 A 
ATOM      8  C7  <0> d           2.774  -3.857   4.131  0.00  0.00     0.009 A 
ATOM      9  C6  <0> d           2.721  -2.480   4.015  0.00  0.00     0.003 A 
ATOM     10  C5  <0> d           2.212  -1.900   2.869  0.00  0.00     0.037 A 
ATOM     11  C4  <0> d           1.753  -2.701   1.834  0.00  0.00     0.069 A 
ATOM     12  C9  <0> d           1.801  -4.082   1.954  0.00  0.00     0.045 A 
BRANCH  11  13
ATOM     13  O1  <0> d           1.251  -2.134   0.705  0.00  0.00    -0.351 OA
BRANCH  13  14
ATOM     14  C3  <0> d           1.232  -0.706   0.651  0.00  0.00     0.175 C 
BRANCH  14  15
ATOM     15  C2  <0> d           0.637  -0.255  -0.685  0.00  0.00     0.022 C 
ATOM     16  C1  <0> d           0.617   1.274  -0.743  0.00  0.00     0.007 C 
ENDBRANCH  14  15
ENDBRANCH  13  14
ENDBRANCH  11  13
ENDBRANCH   6   7
ENDBRANCH   4   6
ENDBRANCH   1   4
BRANCH   1  17
ATOM     17  C11 <0> d           1.966  -9.120   4.699  0.00  0.00     0.097 A 
ATOM     18  C14 <0> d           1.896  -9.405   6.021  0.00  0.00     0.116 A 
ATOM     19  N2  <0> d           3.013 -10.082   6.384  0.00  0.00    -0.355 N 
ATOM     20  C13 <0> d           3.819 -10.226   5.277  0.00  0.00     0.103 A 
ATOM     21  C15 <0> d           3.314 -10.574   7.730  0.00  0.00     0.156 C 
ATOM     22  C12 <0> d           3.176  -9.627   4.214  0.00  0.00     0.062 A 
BRANCH  20  23
ATOM     23  C16 <0> d           5.124 -10.894   5.236  0.00  0.00     0.266 C 
ATOM     24  O4  <0> d           5.635 -11.294   6.265  0.00  0.00    -0.266 OA
ATOM     25  N3  <0> d           5.756 -11.065   4.058  0.00  0.00    -0.365 N 
ATOM     26  H20 <0> d           5.385 -10.682   3.248  0.00  0.00     0.159 HD
ATOM     27  H21 <0> d           6.583 -11.570   4.021  0.00  0.00     0.159 HD
ENDBRANCH  20  23
ENDBRANCH   1  17
TORSDOF 8
