REMARK  4 active torsions:
REMARK  status: ('A' for Active; 'I' for Inactive)
REMARK    1  A    between atoms: C5_5  and  C9_9 
REMARK    2  A    between atoms: C9_9  and  C10_10 
REMARK    3  A    between atoms: N1_13  and  C18_22 
REMARK    4  A    between atoms: C15_17  and  N2_21 
ROOT
ATOM      1  C10 <0> d          -1.244  -4.793   0.078  0.00  0.00     0.225 C 
ATOM      2  C11 <0> d          -1.211  -6.294   0.210  0.00  0.00     0.254 C 
ATOM      3  O1  <0> d          -1.069  -6.806   1.300  0.00  0.00    -0.270 OA
ATOM      4  N1  <0> d          -1.339  -7.066  -0.890  0.00  0.00    -0.309 N 
ATOM      5  C12 <0> d          -1.629  -6.459  -2.122  0.00  0.00     0.071 A 
ATOM      6  C13 <0> d          -1.543  -7.184  -3.300  0.00  0.00     0.035 A 
ATOM      7  C14 <0> d          -1.818  -6.571  -4.508  0.00  0.00     0.031 A 
ATOM      8  C15 <0> d          -2.180  -5.231  -4.544  0.00  0.00     0.028 A 
ATOM      9  C16 <0> d          -2.272  -4.503  -3.364  0.00  0.00     0.068 A 
ATOM     10  C17 <0> d          -2.003  -5.117  -2.154  0.00  0.00     0.099 A 
ATOM     11  O2  <0> d          -2.120  -4.424  -0.990  0.00  0.00    -0.334 OA
ENDROOT
BRANCH   1  12
ATOM     12  C9  <0> d           0.165  -4.276  -0.218  0.00  0.00     0.081 C 
BRANCH  12  13
ATOM     13  C5  <0> d           0.156  -2.769  -0.227  0.00  0.00    -0.049 A 
ATOM     14  C4  <0> d           0.012  -2.086  -1.420  0.00  0.00     0.008 A 
ATOM     15  C3  <0> d           0.003  -0.703  -1.428  0.00  0.00     0.007 A 
ATOM     16  C2  <0> d           0.137  -0.004  -0.243  0.00  0.00    -0.061 A 
ATOM     17  C1  <0> d           0.128   1.503  -0.252  0.00  0.00     0.048 C 
ATOM     18  C7  <0> d           0.287  -0.688   0.949  0.00  0.00     0.014 A 
ATOM     19  C6  <0> d           0.291  -2.070   0.958  0.00  0.00    -0.055 A 
ATOM     20  C8  <0> d           0.448  -2.815   2.258  0.00  0.00     0.049 C 
ENDBRANCH  12  13
ENDBRANCH   1  12
BRANCH   4  21
ATOM     21  C18 <0> d          -1.178  -8.519  -0.799  0.00  0.00     0.085 C 
ATOM     22  C19 <0> d           0.214  -8.845  -0.253  0.00  0.00     0.032 C 
ATOM     23  C20 <0> d          -2.241  -9.092   0.141  0.00  0.00     0.032 C 
ENDBRANCH   4  21
BRANCH   8  24
ATOM     24  N2  <0> d          -2.452  -4.613  -5.769  0.00  0.00    -0.399 N 
ATOM     25  H16 <0> d          -2.388  -5.120  -6.593  0.00  0.00     0.156 HD
ATOM     26  H17 <0> d          -2.705  -3.677  -5.794  0.00  0.00     0.156 HD
ENDBRANCH   8  24
TORSDOF 4
