REMARK  4 active torsions:
REMARK  status: ('A' for Active; 'I' for Inactive)
REMARK    1  A    between atoms: C3_3  and  S1_8 
REMARK    2  A    between atoms: S1_8  and  N1_11 
REMARK    3  A    between atoms: N1_11  and  C7_12 
REMARK    4  A    between atoms: C12_17  and  N2_18 
ROOT
ATOM      1  C7  <0> d           4.554   1.457   2.396  0.00  0.00     0.071 A 
ATOM      2  C8  <0> d           5.221   0.341   1.915  0.00  0.00     0.072 A 
ATOM      3  C9  <0> d           5.446  -0.746   2.745  0.00  0.00     0.107 A 
ATOM      4  C10 <0> d           5.001  -0.718   4.064  0.00  0.00     0.107 A 
ATOM      5  C11 <0> d           4.334   0.397   4.546  0.00  0.00     0.071 A 
ATOM      6  C12 <0> d           4.114   1.488   3.718  0.00  0.00     0.056 A 
ATOM      7  O3  <0> d           5.342  -1.896   4.665  0.00  0.00    -0.323 OA
ATOM      8  C13 <0> d           5.636  -2.806   3.588  0.00  0.00     0.352 C 
ATOM      9  O4  <0> d           6.066  -1.942   2.519  0.00  0.00    -0.323 OA
ENDROOT
BRANCH   1  10
ATOM     10  N1  <0> d           4.327   2.556   1.555  0.00  0.00    -0.278 N 
ATOM     11  H5  <0> d           4.358   3.457   1.915  0.00  0.00     0.179 HD
BRANCH  10  12
ATOM     12  S1  <0> d           4.006   2.317  -0.051  0.00  0.00     0.263 S 
ATOM     13  O1  <0> d           5.056   1.506  -0.559  0.00  0.00    -0.200 OA
ATOM     14  O2  <0> d           3.695   3.592  -0.598  0.00  0.00    -0.200 OA
BRANCH  12  15
ATOM     15  C3  <0> d           2.533   1.355  -0.151  0.00  0.00     0.081 A 
ATOM     16  C2  <0> d           1.302   1.979  -0.208  0.00  0.00     0.025 A 
ATOM     17  C1  <0> d           0.146   1.224  -0.286  0.00  0.00     0.003 A 
ATOM     18  C6  <0> d           0.222  -0.155  -0.306  0.00  0.00     0.019 A 
ATOM     19  C5  <0> d           1.454  -0.781  -0.249  0.00  0.00     0.012 A 
ATOM     20  C4  <0> d           2.610  -0.026  -0.172  0.00  0.00     0.044 A 
ATOM     21 Br1  <0> d           1.558  -2.669  -0.279  0.00  0.00    -0.051 Br
ENDBRANCH  12  15
ENDBRANCH  10  12
ENDBRANCH   1  10
BRANCH   6  22
ATOM     22  N2  <0> d           3.444   2.618   4.209  0.00  0.00    -0.397 N 
ATOM     23  H8  <0> d           3.287   3.379   3.628  0.00  0.00     0.156 HD
ATOM     24  H9  <0> d           3.138   2.639   5.129  0.00  0.00     0.156 HD
ENDBRANCH   6  22
TORSDOF 4
