REMARK  6 active torsions:
REMARK  status: ('A' for Active; 'I' for Inactive)
REMARK    1  A    between atoms: C5_5  and  C8_12 
REMARK    2  A    between atoms: C7_7  and  S1_8 
REMARK    3  A    between atoms: S1_8  and  N1_11 
REMARK       I    between atoms: C8_12  and  N2_14 
REMARK    4  A    between atoms: N2_14  and  C9_15 
REMARK    5  A    between atoms: C12_18  and  O4_21 
REMARK    6  A    between atoms: O4_21  and  C15_22 
ROOT
ATOM      1  C8  <0> d           1.211  -4.228  -0.239  0.00  0.00     0.256 C 
ATOM      2  O3  <0> d           2.172  -4.808   0.229  0.00  0.00    -0.267 OA
ATOM      3  N2  <0> d           0.175  -4.932  -0.737  0.00  0.00    -0.323 N 
ATOM      4  H9  <0> d          -0.636  -4.475  -1.008  0.00  0.00     0.169 HD
ENDROOT
BRANCH   1   5
ATOM      5  C5  <0> d           1.179  -2.750  -0.261  0.00  0.00     0.033 A 
ATOM      6  C4  <0> d           0.077  -2.081  -0.797  0.00  0.00     0.017 A 
ATOM      7  C3  <0> d           0.054  -0.702  -0.815  0.00  0.00     0.009 A 
ATOM      8  C2  <0> d           1.118   0.018  -0.302  0.00  0.00    -0.039 A 
ATOM      9  C1  <0> d           1.085   1.525  -0.324  0.00  0.00     0.050 C 
ATOM     10  C7  <0> d           2.215  -0.639   0.226  0.00  0.00     0.086 A 
ATOM     11  C6  <0> d           2.249  -2.018   0.255  0.00  0.00     0.042 A 
BRANCH  10  12
ATOM     12  S1  <0> d           3.569   0.287   0.869  0.00  0.00     0.257 S 
ATOM     13  O1  <0> d           3.015   1.267   1.737  0.00  0.00    -0.201 OA
ATOM     14  O2  <0> d           4.537  -0.657   1.306  0.00  0.00    -0.201 OA
BRANCH  12  15
ATOM     15  N1  <0> d           4.248   1.107  -0.399  0.00  0.00    -0.324 N 
ATOM     16  H7  <0> d           3.878   1.014  -1.291  0.00  0.00     0.169 HD
ATOM     17  H8  <0> d           5.016   1.681  -0.250  0.00  0.00     0.169 HD
ENDBRANCH  12  15
ENDBRANCH  10  12
ENDBRANCH   1   5
BRANCH   3  18
ATOM     18  C9  <0> d           0.271  -6.323  -0.863  0.00  0.00     0.035 A 
ATOM     19  C14 <0> d           1.073  -7.046   0.010  0.00  0.00     0.032 A 
ATOM     20  C13 <0> d           1.161  -8.419  -0.110  0.00  0.00     0.039 A 
ATOM     21  C12 <0> d           0.459  -9.074  -1.112  0.00  0.00     0.076 A 
ATOM     22  C11 <0> d          -0.337  -8.352  -1.989  0.00  0.00     0.039 A 
ATOM     23  C10 <0> d          -0.432  -6.980  -1.865  0.00  0.00     0.032 A 
BRANCH  21  24
ATOM     24  O4  <0> d           0.551 -10.425  -1.234  0.00  0.00    -0.311 OA
BRANCH  24  25
ATOM     25  C15 <0> d          -0.558 -11.165  -0.980  0.00  0.00     0.078 A 
ATOM     26  C19 <0> d          -1.756 -10.555  -0.616  0.00  0.00     0.056 A 
ATOM     27  C18 <0> d          -2.862 -11.342  -0.372  0.00  0.00     0.119 A 
ATOM     28  N3  <0> d          -2.792 -12.656  -0.469  0.00  0.00    -0.273 NA
ATOM     29  C17 <0> d          -1.674 -13.271  -0.805  0.00  0.00     0.119 A 
ATOM     30  C16 <0> d          -0.526 -12.555  -1.071  0.00  0.00     0.056 A 
ENDBRANCH  24  25
ENDBRANCH  21  24
ENDBRANCH   3  18
TORSDOF 6
