REMARK  3 active torsions:
REMARK  status: ('A' for Active; 'I' for Inactive)
REMARK    1  A    between atoms: C2_2  and  N1_4 
REMARK    2  A    between atoms: C6_7  and  N2_10 
REMARK       I    between atoms: N2_10  and  C10_12 
REMARK    3  A    between atoms: C10_12  and  C11_14 
ROOT
ATOM      1  N2  <0> d           3.381  -2.308  -3.862  0.00  0.00    -0.351 N 
ATOM      2  C9  <0> d           2.683  -2.000  -5.112  0.00  0.00     0.153 C 
ATOM      3  C10 <0> d           4.539  -2.998  -3.889  0.00  0.00     0.229 C 
ATOM      4  O1  <0> d           5.054  -3.276  -4.951  0.00  0.00    -0.272 OA
ENDROOT
BRANCH   1   5
ATOM      5  C6  <0> d           2.822  -1.867  -2.582  0.00  0.00     0.089 C 
ATOM      6  C5  <0> d           2.807  -0.336  -2.530  0.00  0.00     0.053 C 
ATOM      7  C4  <0> d           2.148   0.118  -1.226  0.00  0.00     0.237 C 
ATOM      8  N1  <0> d           0.772  -0.389  -1.165  0.00  0.00    -0.067 N 
ATOM      9  C8  <0> d           0.782  -1.856  -1.142  0.00  0.00     0.237 C 
ATOM     10  H32 <0> d           0.263  -0.070  -1.976  0.00  0.00     0.280 HD
ATOM     11  C7  <0> d           1.388  -2.386  -2.443  0.00  0.00     0.053 C 
BRANCH   8  12
ATOM     12  C2  <0> d           0.120   0.114   0.051  0.00  0.00     0.180 C 
ATOM     13  C1  <0> d           0.108   1.644   0.028  0.00  0.00     0.039 C 
ATOM     14  C3  <0> d          -1.318  -0.406   0.111  0.00  0.00     0.039 C 
ENDBRANCH   8  12
ENDBRANCH   1   5
BRANCH   3  15
ATOM     15  C11 <0> d           5.193  -3.423  -2.600  0.00  0.00     0.061 C 
ATOM     16  C15 <0> d           6.435  -4.263  -2.910  0.00  0.00     0.251 C 
ATOM     17  N3  <0> d           6.046  -5.453  -3.675  0.00  0.00    -0.074 N 
ATOM     18  C14 <0> d           5.159  -6.298  -2.866  0.00  0.00     0.232 C 
ATOM     19  H26 <0> d           6.872  -5.976  -3.924  0.00  0.00     0.277 HD
ATOM     20  H33 <0> d           5.565  -5.169  -4.516  0.00  0.00     0.277 HD
ATOM     21  C13 <0> d           3.868  -5.536  -2.555  0.00  0.00     0.029 C 
ATOM     22  C12 <0> d           4.209  -4.261  -1.779  0.00  0.00     0.022 C 
ATOM     23  C16 <0> d           5.601  -2.184  -1.801  0.00  0.00     0.027 C 
ENDBRANCH   3  15
TORSDOF 3
