REMARK  3 active torsions:
REMARK  status: ('A' for Active; 'I' for Inactive)
REMARK    1  A    between atoms: C6_6  and  C8_8 
REMARK    2  A    between atoms: C10_10  and  C11_13 
REMARK    3  A    between atoms: C12_15  and  C13_18 
ROOT
ATOM      1  C8  <0> d          -0.203  -2.505   2.625  0.00  0.00     0.088 A 
ATOM      2  C9  <0> d          -0.255  -3.822   2.900  0.00  0.00     0.041 A 
ATOM      3  C10 <0> d          -0.370  -3.874   4.413  0.00  0.00     0.207 A 
ATOM      4  N1  <0> d          -0.366  -2.453   4.799  0.00  0.00    -0.179 NA
ATOM      5  N2  <0> d          -0.266  -1.778   3.772  0.00  0.00    -0.154 NA
ENDROOT
BRANCH   3   6
ATOM      6  C11 <0> d          -1.679  -4.547   4.832  0.00  0.00     0.285 A 
ATOM      7  O1  <0> d          -2.805  -3.780   4.379  0.00  0.00    -0.226 OA
ATOM      8  N4  <0> d          -3.515  -3.386   5.541  0.00  0.00    -0.111 NA
ATOM      9  C12 <0> d          -2.939  -3.832   6.609  0.00  0.00     0.181 A 
ATOM     10  N3  <0> d          -1.804  -4.559   6.299  0.00  0.00    -0.341 N 
ATOM     11  H10 <0> d          -1.205  -4.992   6.927  0.00  0.00     0.164 HD
BRANCH   9  12
ATOM     12  C13 <0> d          -3.432  -3.596   7.986  0.00  0.00     0.104 A 
ATOM     13  N5  <0> d          -2.767  -4.100   9.018  0.00  0.00    -0.257 NA
ATOM     14  C17 <0> d          -3.169  -3.910  10.257  0.00  0.00     0.117 A 
ATOM     15  C16 <0> d          -4.313  -3.181  10.529  0.00  0.00     0.019 A 
ATOM     16  C15 <0> d          -5.042  -2.641   9.479  0.00  0.00     0.004 A 
ATOM     17  C14 <0> d          -4.593  -2.853   8.186  0.00  0.00     0.036 A 
ENDBRANCH   9  12
ENDBRANCH   3   6
BRANCH   1  18
ATOM     18  C6  <0> d          -0.087  -1.928   1.263  0.00  0.00     0.001 A 
ATOM     19  C5  <0> d           0.957  -1.057   0.959  0.00  0.00    -0.049 A 
ATOM     20  C4  <0> d           1.061  -0.524  -0.310  0.00  0.00     0.008 A 
ATOM     21  C18 <0> d           1.972  -0.699   2.014  0.00  0.00     0.049 C 
ATOM     22  C3  <0> d           0.130  -0.852  -1.279  0.00  0.00     0.007 A 
ATOM     23  C2  <0> d          -0.909  -1.716  -0.982  0.00  0.00    -0.061 A 
ATOM     24  C1  <0> d          -1.919  -2.069  -2.043  0.00  0.00     0.048 C 
ATOM     25  C7  <0> d          -1.025  -2.251   0.284  0.00  0.00     0.021 A 
ENDBRANCH   1  18
TORSDOF 3
