REMARK  4 active torsions:
REMARK  status: ('A' for Active; 'I' for Inactive)
REMARK    1  A    between atoms: C3_3  and  S1_9 
REMARK    2  A    between atoms: S1_9  and  N3_12 
REMARK    3  A    between atoms: N3_12  and  C7_13 
REMARK    4  A    between atoms: C7_13  and  C8_14 
ROOT
ATOM      1  N3  <0> d           1.960   3.914   1.586  0.00  0.00    -0.311 N 
ATOM      2  H10 <0> d           1.382   4.601   1.954  0.00  0.00     0.172 HD
ENDROOT
BRANCH   1   3
ATOM      3  S1  <0> d           1.797   3.455   0.004  0.00  0.00     0.263 S 
ATOM      4  O1  <0> d           3.102   3.471  -0.560  0.00  0.00    -0.200 OA
ATOM      5  O2  <0> d           0.727   4.221  -0.533  0.00  0.00    -0.200 OA
BRANCH   3   6
ATOM      6  C3  <0> d           1.267   1.775  -0.001  0.00  0.00     0.129 A 
ATOM      7  C2  <0> d           2.098   0.650  -0.015  0.00  0.00     0.076 A 
ATOM      8  C1  <0> d           3.604   0.664  -0.029  0.00  0.00     0.074 C 
ATOM      9  N2  <0> d           1.341  -0.417  -0.013  0.00  0.00    -0.176 NA
ATOM     10  N1  <0> d           0.002  -0.004   0.002  0.00  0.00    -0.277 N 
ATOM     11  C4  <0> d          -0.016   1.345   0.009  0.00  0.00     0.051 A 
ATOM     12  C5  <0> d          -1.171  -0.882   0.008  0.00  0.00     0.179 C 
ATOM     13  C6  <0> d          -1.245   2.217   0.020  0.00  0.00     0.072 C 
ENDBRANCH   3   6
ENDBRANCH   1   3
BRANCH   1  14
ATOM     14  C7  <0> d           2.975   3.281   2.432  0.00  0.00     0.170 C 
BRANCH  14  15
ATOM     15  C8  <0> d           3.173   4.103   3.680  0.00  0.00    -0.039 A 
ATOM     16  C13 <0> d           2.411   3.848   4.806  0.00  0.00     0.019 A 
ATOM     17  C12 <0> d           2.595   4.599   5.946  0.00  0.00    -0.022 A 
ATOM     18  C11 <0> d           3.544   5.612   5.984  0.00  0.00     0.075 A 
ATOM     19  C14 <0> d           1.923   4.569   7.305  0.00  0.00     0.068 C 
ATOM     20  C10 <0> d           4.304   5.865   4.844  0.00  0.00     0.038 A 
ATOM     21  O3  <0> d           3.573   6.216   7.204  0.00  0.00    -0.350 OA
ATOM     22  C9  <0> d           4.120   5.110   3.705  0.00  0.00     0.011 A 
ATOM     23  C15 <0> d           2.349   5.931   7.902  0.00  0.00     0.180 C 
ENDBRANCH  14  15
ENDBRANCH   1  14
TORSDOF 4
