REMARK  3 active torsions:
REMARK  status: ('A' for Active; 'I' for Inactive)
REMARK    1  A    between atoms: C4_5  and  C5_7 
REMARK    2  A    between atoms: C9_11  and  N2_13 
REMARK       I    between atoms: N2_13  and  C11_14 
REMARK    3  A    between atoms: C11_14  and  C12_16 
ROOT
ATOM      1  C5  <0> d           0.243  -3.240   1.565  0.00  0.00     0.019 A 
ATOM      2  C6  <0> d           0.088  -4.511   1.007  0.00  0.00     0.016 A 
ATOM      3  C7  <0> d          -0.070  -5.610   1.827  0.00  0.00     0.003 A 
ATOM      4  C8  <0> d          -0.076  -5.458   3.201  0.00  0.00     0.029 A 
ATOM      5  C9  <0> d           0.077  -4.198   3.766  0.00  0.00     0.035 A 
ATOM      6  C10 <0> d           0.243  -3.088   2.951  0.00  0.00     0.045 A 
ENDROOT
BRANCH   5   7
ATOM      7  N2  <0> d           0.070  -4.050   5.157  0.00  0.00    -0.323 N 
ATOM      8  C11 <0> d          -0.441  -2.933   5.713  0.00  0.00     0.257 C 
ATOM      9  O2  <0> d          -0.982  -2.099   5.013  0.00  0.00    -0.267 OA
ATOM     10  H8  <0> d           0.433  -4.750   5.721  0.00  0.00     0.169 HD
BRANCH   8  11
ATOM     11  C12 <0> d          -0.344  -2.724   7.173  0.00  0.00     0.050 A 
ATOM     12  C16 <0> d          -0.869  -1.572   7.760  0.00  0.00     0.142 A 
ATOM     13  N3  <0> d          -0.787  -1.388   9.063  0.00  0.00    -0.210 N 
ATOM     14  C15 <0> d          -0.202  -2.267   9.856  0.00  0.00     0.125 A 
ATOM     15  O3  <0> d          -1.335  -0.210   9.627  0.00  0.00    -0.082 OA
ATOM     16  C14 <0> d           0.347  -3.431   9.349  0.00  0.00     0.021 A 
ATOM     17  C13 <0> d           0.282  -3.674   7.988  0.00  0.00     0.020 A 
ENDBRANCH   8  11
ENDBRANCH   5   7
BRANCH   1  18
ATOM     18  C4  <0> d           0.412  -2.061   0.690  0.00  0.00     0.180 A 
ATOM     19  O1  <0> d           0.430  -2.078  -0.654  0.00  0.00    -0.294 OA
ATOM     20  C3  <0> d           0.604  -0.810  -1.077  0.00  0.00     0.076 A 
ATOM     21  C2  <0> d           0.691  -0.032   0.017  0.00  0.00     0.063 A 
ATOM     22  C17 <0> d           0.685  -0.349  -2.510  0.00  0.00     0.079 C 
ATOM     23  C1  <0> d           0.889   1.462   0.030  0.00  0.00     0.073 C 
ATOM     24  N1  <0> d           0.575  -0.824   1.094  0.00  0.00    -0.226 NA
ENDBRANCH   1  18
TORSDOF 3
