REMARK  4 active torsions:
REMARK  status: ('A' for Active; 'I' for Inactive)
REMARK    1  A    between atoms: C5_6  and  N3_8 
REMARK    2  A    between atoms: N3_8  and  C7_10 
REMARK    3  A    between atoms: C7_10  and  C8_11 
REMARK    4  A    between atoms: C12_15  and  N4_17 
ROOT
ATOM      1  N3  <0> d           0.095  -2.650   2.360  0.00  0.00    -0.364 N 
ATOM      2  C6  <0> d           0.223  -4.109   2.377  0.00  0.00     0.151 C 
ENDROOT
BRANCH   1   3
ATOM      3  C5  <0> d           0.046  -1.971   1.149  0.00  0.00     0.150 A 
ATOM      4  C4  <0> d           1.220  -1.509   0.559  0.00  0.00     0.076 A 
ATOM      5  N1  <0> d           1.169  -0.865  -0.592  0.00  0.00    -0.260 NA
ATOM      6  C14 <0> d           2.547  -1.745   1.234  0.00  0.00     0.074 C 
ATOM      7  C3  <0> d           0.005  -0.659  -1.185  0.00  0.00     0.143 A 
ATOM      8  C2  <0> d          -1.162  -1.115  -0.603  0.00  0.00     0.050 A 
ATOM      9  C1  <0> d          -2.485  -0.877  -1.283  0.00  0.00     0.072 C 
ATOM     10  N2  <0> d          -1.120  -1.757   0.553  0.00  0.00    -0.233 NA
ENDBRANCH   1   3
BRANCH   1  11
ATOM     11  C7  <0> d           0.019  -1.907   3.620  0.00  0.00     0.162 C 
BRANCH  11  12
ATOM     12  C8  <0> d          -1.423  -1.776   4.040  0.00  0.00    -0.038 A 
ATOM     13  C13 <0> d          -1.998  -2.742   4.842  0.00  0.00     0.037 A 
ATOM     14  C12 <0> d          -3.325  -2.618   5.233  0.00  0.00     0.026 A 
ATOM     15  C11 <0> d          -4.072  -1.527   4.806  0.00  0.00     0.029 A 
ATOM     16  C10 <0> d          -3.493  -0.568   3.999  0.00  0.00     0.003 A 
ATOM     17  C9  <0> d          -2.170  -0.692   3.616  0.00  0.00     0.009 A 
BRANCH  14  18
ATOM     18  N4  <0> d          -3.908  -3.590   6.049  0.00  0.00    -0.399 N 
ATOM     19  H14 <0> d          -4.836  -3.504   6.319  0.00  0.00     0.156 HD
ATOM     20  H15 <0> d          -3.385  -4.350   6.347  0.00  0.00     0.156 HD
ENDBRANCH  14  18
ENDBRANCH  11  12
ENDBRANCH   1  11
TORSDOF 4
