REMARK  3 active torsions:
REMARK  status: ('A' for Active; 'I' for Inactive)
REMARK    1  A    between atoms: C2_2  and  C5_7 
REMARK       I    between atoms: C5_7  and  N1_9 
REMARK    2  A    between atoms: N1_9  and  N2_10 
REMARK       I    between atoms: N2_10  and  C6_11 
REMARK    3  A    between atoms: C6_11  and  C7_13 
ROOT
ATOM      1  N2  <0> d          -0.406  -0.666  -3.684  0.00  0.00    -0.263 N 
ATOM      2  C6  <0> d          -1.005  -0.090  -4.746  0.00  0.00     0.272 C 
ATOM      3  O2  <0> d          -1.625   0.948  -4.606  0.00  0.00    -0.266 OA
ATOM      4  H7  <0> d           0.088  -1.493  -3.796  0.00  0.00     0.190 HD
ENDROOT
BRANCH   1   5
ATOM      5  N1  <0> d          -0.498  -0.069  -2.420  0.00  0.00    -0.266 N 
ATOM      6  C5  <0> d           0.101  -0.645  -1.358  0.00  0.00     0.247 C 
ATOM      7  O1  <0> d           0.719  -1.679  -1.498  0.00  0.00    -0.271 OA
ATOM      8  H6  <0> d          -0.992   0.758  -2.308  0.00  0.00     0.190 HD
BRANCH   6   9
ATOM      9  C2  <0> d           0.002  -0.004   0.002  0.00  0.00     0.077 A 
ATOM     10  C1  <0> d          -0.019   1.526   0.010  0.00  0.00     0.029 C 
ATOM     11  C4  <0> d           0.701  -0.708   1.167  0.00  0.00     0.130 A 
ATOM     12  C3  <0> d          -0.825  -0.728   1.066  0.00  0.00     0.065 A 
ATOM     13 Cl1  <0> d           1.580  -2.240   0.807  0.00  0.00    -0.100 Cl
ATOM     14 Cl2  <0> d           1.438   0.330   2.445  0.00  0.00    -0.100 Cl
ENDBRANCH   6   9
ENDBRANCH   1   5
BRANCH   2  15
ATOM     15  C7  <0> d          -0.909  -0.715  -6.072  0.00  0.00     0.061 A 
ATOM     16  C10 <0> d          -1.502  -0.217  -7.327  0.00  0.00     0.008 A 
ATOM     17  C9  <0> d          -1.137  -1.144  -8.317  0.00  0.00     0.045 A 
ATOM     18  C11 <0> d          -2.273   0.893  -7.659  0.00  0.00     0.015 A 
ATOM     19  N3  <0> d          -0.391  -2.130  -7.707  0.00  0.00    -0.359 N 
ATOM     20  C14 <0> d          -1.552  -0.939  -9.629  0.00  0.00     0.030 A 
ATOM     21  C8  <0> d          -0.259  -1.873  -6.383  0.00  0.00     0.108 A 
ATOM     22  C15 <0> d           0.180  -3.292  -8.393  0.00  0.00     0.156 C 
ATOM     23  C13 <0> d          -2.323   0.160  -9.942  0.00  0.00     0.002 A 
ATOM     24  C12 <0> d          -2.679   1.076  -8.963  0.00  0.00     0.001 A 
ENDBRANCH   2  15
TORSDOF 3
