REMARK  3 active torsions:
REMARK  status: ('A' for Active; 'I' for Inactive)
REMARK    1  A    between atoms: N1_5  and  C5_9 
REMARK    2  A    between atoms: C5_9  and  C6_10 
REMARK    3  A    between atoms: C8_13  and  C9_15 
ROOT
ATOM      1  C6  <0> d          -2.601  -3.391   1.225  0.00  0.00     0.164 A 
ATOM      2  N3  <0> d          -2.047  -4.426   1.792  0.00  0.00    -0.236 NA
ATOM      3  C7  <0> d          -2.256  -5.506   1.023  0.00  0.00     0.157 A 
ATOM      4  C8  <0> d          -2.970  -5.105  -0.060  0.00  0.00     0.105 A 
ATOM      5  O3  <0> d          -3.184  -3.778   0.082  0.00  0.00    -0.292 OA
ENDROOT
BRANCH   1   6
ATOM      6  C5  <0> d          -2.593  -1.987   1.771  0.00  0.00     0.223 C 
BRANCH   6   7
ATOM      7  N1  <0> d          -1.419  -1.272   1.263  0.00  0.00    -0.260 N 
ATOM      8  C3  <0> d          -1.404  -0.557   0.121  0.00  0.00     0.256 A 
ATOM      9  C2  <0> d           0.002  -0.004   0.002  0.00  0.00     0.108 A 
ATOM     10  O1  <0> d          -2.324  -0.392  -0.652  0.00  0.00    -0.270 OA
ATOM     11  C1  <0> d          -0.019   1.526   0.010  0.00  0.00     0.049 C 
ATOM     12  N2  <0> d           0.679  -0.520   1.204  0.00  0.00    -0.325 N 
ATOM     13  C15 <0> d           0.684  -0.525  -1.265  0.00  0.00     0.049 C 
ATOM     14  C4  <0> d          -0.231  -1.248   1.876  0.00  0.00     0.326 A 
ATOM     15  H4  <0> d           1.602  -0.365   1.461  0.00  0.00     0.165 HD
ATOM     16  O2  <0> d           0.001  -1.819   2.923  0.00  0.00    -0.247 OA
ENDBRANCH   6   7
ENDBRANCH   1   6
BRANCH   4  17
ATOM     17  C9  <0> d          -3.429  -5.957  -1.177  0.00  0.00    -0.001 A 
ATOM     18  C14 <0> d          -4.159  -5.400  -2.229  0.00  0.00     0.016 A 
ATOM     19  C13 <0> d          -4.580  -6.199  -3.272  0.00  0.00     0.024 A 
ATOM     20  C12 <0> d          -4.290  -7.553  -3.271  0.00  0.00     0.034 A 
ATOM     21  C11 <0> d          -3.571  -8.112  -2.228  0.00  0.00     0.024 A 
ATOM     22 Cl1  <0> d          -4.830  -8.553  -4.583  0.00  0.00    -0.084 Cl
ATOM     23  C10 <0> d          -3.140  -7.322  -1.182  0.00  0.00     0.016 A 
ENDBRANCH   4  17
TORSDOF 3
