REMARK  4 active torsions:
REMARK  status: ('A' for Active; 'I' for Inactive)
REMARK    1  A    between atoms: C4_4  and  O1_10 
REMARK    2  A    between atoms: O1_10  and  C9_11 
REMARK    3  A    between atoms: C12_14  and  C15_17 
REMARK    4  A    between atoms: C15_17  and  N1_18 
ROOT
ATOM      1  C9  <0> d           0.152  -4.100  -2.347  0.00  0.00     0.076 A 
ATOM      2  C10 <0> d          -0.930  -4.885  -1.965  0.00  0.00     0.038 A 
ATOM      3  C11 <0> d          -0.809  -6.256  -1.924  0.00  0.00     0.018 A 
ATOM      4  C12 <0> d           0.404  -6.858  -2.268  0.00  0.00     0.007 A 
ATOM      5  C13 <0> d           1.489  -6.067  -2.652  0.00  0.00     0.018 A 
ATOM      6  C14 <0> d           1.358  -4.697  -2.695  0.00  0.00     0.038 A 
ENDROOT
BRANCH   1   7
ATOM      7  O1  <0> d           0.028  -2.749  -2.385  0.00  0.00    -0.311 OA
BRANCH   7   8
ATOM      8  C4  <0> d           0.327  -2.049  -1.260  0.00  0.00     0.077 A 
ATOM      9  C3  <0> d           0.752  -2.715  -0.119  0.00  0.00     0.045 A 
ATOM     10  C2  <0> d           1.056  -2.001   1.024  0.00  0.00    -0.037 A 
ATOM     11  C1  <0> d           1.517  -2.724   2.263  0.00  0.00     0.050 C 
ATOM     12  C7  <0> d           0.932  -0.623   1.033  0.00  0.00     0.046 A 
ATOM     13  C6  <0> d           0.513   0.044  -0.105  0.00  0.00    -0.037 A 
ATOM     14 Cl1  <0> d           1.308   0.271   2.473  0.00  0.00    -0.083 Cl
ATOM     15  C5  <0> d           0.208  -0.667  -1.250  0.00  0.00     0.045 A 
ATOM     16  C8  <0> d           0.384   1.545  -0.093  0.00  0.00     0.050 C 
ENDBRANCH   7   8
ENDBRANCH   1   7
BRANCH   4  17
ATOM     17  C15 <0> d           0.538  -8.329  -2.225  0.00  0.00     0.102 C 
ATOM     18  N2  <0> d          -0.498  -9.082  -1.859  0.00  0.00    -0.385 N 
ATOM     19  H14 <0> d          -1.340  -8.665  -1.620  0.00  0.00     0.157 HD
ATOM     20  H15 <0> d          -0.409 -10.048  -1.831  0.00  0.00     0.157 HD
BRANCH  17  21
ATOM     21  N1  <0> d           1.696  -8.902  -2.554  0.00  0.00    -0.385 N 
ATOM     22  H13 <0> d           2.450  -8.354  -2.821  0.00  0.00     0.157 HD
ATOM     23  H16 <0> d           1.784  -9.868  -2.526  0.00  0.00     0.157 HD
ENDBRANCH  17  21
ENDBRANCH   4  17
TORSDOF 4
