REMARK  8 active torsions:
REMARK  status: ('A' for Active; 'I' for Inactive)
REMARK    1  A    between atoms: C2_2  and  C3_3 
REMARK    2  A    between atoms: C3_3  and  N1_4 
REMARK    3  A    between atoms: N1_4  and  C4_5 
REMARK    4  A    between atoms: N1_4  and  C8_11 
REMARK    5  A    between atoms: C4_5  and  C5_6 
REMARK       I    between atoms: C5_6  and  N2_8 
REMARK    6  A    between atoms: C8_11  and  C9_12 
REMARK    7  A    between atoms: C8_11  and  C13_18 
REMARK    8  A    between atoms: C13_18  and  N3_20 
ROOT
ATOM      1  C8  <0> d          -1.361  -3.077   0.968  0.00  0.00     0.293 C 
ENDROOT
BRANCH   1   2
ATOM      2  N1  <0> d          -1.318  -1.979  -0.007  0.00  0.00     0.108 N 
BRANCH   2   3
ATOM      3  C3  <0> d          -0.820  -0.743   0.614  0.00  0.00     0.273 C 
BRANCH   3   4
ATOM      4  C2  <0> d           0.684  -0.868   0.861  0.00  0.00     0.026 C 
ATOM      5  C1  <0> d           1.227   0.463   1.386  0.00  0.00     0.007 C 
ENDBRANCH   3   4
ENDBRANCH   2   3
BRANCH   2   6
ATOM      6  C4  <0> d          -2.637  -1.766  -0.618  0.00  0.00     0.375 C 
BRANCH   6   7
ATOM      7  C5  <0> d          -2.473  -1.025  -1.920  0.00  0.00     0.247 C 
ATOM      8  O1  <0> d          -1.367  -0.705  -2.301  0.00  0.00    -0.271 OA
ATOM      9  N2  <0> d          -3.555  -0.717  -2.661  0.00  0.00    -0.359 N 
ATOM     10  C6  <0> d          -3.396   0.004  -3.927  0.00  0.00     0.152 C 
ATOM     11  C7  <0> d          -4.892  -1.103  -2.202  0.00  0.00     0.152 C 
ENDBRANCH   6   7
ENDBRANCH   2   6
ENDBRANCH   1   2
BRANCH   1  12
ATOM     12  C9  <0> d          -1.308  -4.396   0.241  0.00  0.00     0.019 A 
ATOM     13  S1  <0> d          -2.060  -4.855  -1.312  0.00  0.00    -0.103 SA
ATOM     14  C12 <0> d          -1.481  -6.542  -1.383  0.00  0.00     0.069 A 
ATOM     15  C11 <0> d          -0.770  -6.644  -0.233  0.00  0.00     0.018 A 
ATOM     16  C10 <0> d          -0.682  -5.544   0.600  0.00  0.00     0.036 A 
ATOM     17 Br1  <0> d           0.086  -8.266   0.226  0.00  0.00    -0.051 Br
ENDBRANCH   1  12
BRANCH   1  18
ATOM     18  C13 <0> d          -2.657  -2.991   1.776  0.00  0.00     0.217 C 
ATOM     19  C14 <0> d          -2.685  -4.113   2.817  0.00  0.00     0.042 C 
BRANCH  18  20
ATOM     20  N3  <0> d          -2.726  -1.691   2.456  0.00  0.00    -0.073 N 
ATOM     21  H23 <0> d          -2.872  -0.962   1.774  0.00  0.00     0.274 HD
ATOM     22  H24 <0> d          -3.491  -1.695   3.114  0.00  0.00     0.274 HD
ATOM     23  H25 <0> d          -1.861  -1.523   2.948  0.00  0.00     0.274 HD
ENDBRANCH  18  20
ENDBRANCH   1  18
TORSDOF 8
