REMARK  3 active torsions:
REMARK  status: ('A' for Active; 'I' for Inactive)
REMARK    1  A    between atoms: N1_4  and  C7_9 
REMARK    2  A    between atoms: C10_14  and  C11_15 
REMARK    3  A    between atoms: C16_20  and  O3_21 
ROOT
ATOM      1  C7  <0> d          -0.676   0.723   2.408  0.00  0.00     0.173 A 
ATOM      2  N2  <0> d          -0.529  -0.592   2.461  0.00  0.00    -0.184 NA
ATOM      3  C8  <0> d          -1.036  -1.320   3.431  0.00  0.00     0.286 A 
ATOM      4  O2  <0> d          -0.893  -2.532   3.469  0.00  0.00    -0.265 OA
ATOM      5  C9  <0> d          -1.789  -0.589   4.477  0.00  0.00     0.079 A 
ATOM      6  C10 <0> d          -2.416  -1.058   5.585  0.00  0.00     0.039 C 
ATOM      7  S1  <0> d          -1.631   1.087   3.873  0.00  0.00    -0.047 SA
ENDROOT
BRANCH   6   8
ATOM      8  C11 <0> d          -2.967  -0.120   6.570  0.00  0.00    -0.002 A 
ATOM      9  C16 <0> d          -3.932  -0.551   7.495  0.00  0.00     0.075 A 
ATOM     10  C15 <0> d          -4.441   0.344   8.422  0.00  0.00     0.037 A 
ATOM     11  C14 <0> d          -4.009   1.656   8.430  0.00  0.00     0.003 A 
ATOM     12  C13 <0> d          -3.061   2.088   7.516  0.00  0.00     0.001 A 
ATOM     13  C12 <0> d          -2.539   1.213   6.589  0.00  0.00     0.014 A 
BRANCH   9  14
ATOM     14  O3  <0> d          -4.359  -1.839   7.484  0.00  0.00    -0.360 OA
ATOM     15  H18 <0> d          -5.115  -2.174   8.210  0.00  0.00     0.217 HD
ENDBRANCH   9  14
ENDBRANCH   6   8
BRANCH   1  16
ATOM     16  N1  <0> d          -0.205   1.594   1.462  0.00  0.00    -0.355 N 
ATOM     17  C3  <0> d          -0.467   3.038   1.565  0.00  0.00     0.156 C 
ATOM     18  C2  <0> d          -1.029   3.525   0.224  0.00  0.00     0.136 C 
ATOM     19  C1  <0> d          -1.129   5.051   0.235  0.00  0.00     0.041 C 
ATOM     20  O1  <0> d          -0.156   3.111  -0.830  0.00  0.00    -0.378 OA
ATOM     21  C5  <0> d          -0.034   1.693  -0.967  0.00  0.00     0.136 C 
ATOM     22  C4  <0> d           0.578   1.113   0.313  0.00  0.00     0.156 C 
ATOM     23  C6  <0> d           0.869   1.369  -2.158  0.00  0.00     0.041 C 
ENDBRANCH   1  16
TORSDOF 3
