REMARK  4 active torsions:
REMARK  status: ('A' for Active; 'I' for Inactive)
REMARK    1  A    between atoms: C3_4  and  N4_12 
REMARK    2  A    between atoms: N4_12  and  C8_13 
REMARK    3  A    between atoms: C8_13  and  C9_14 
REMARK    4  A    between atoms: C9_14  and  C10_15 
ROOT
ATOM      1  N4  <0> d           0.025  -2.614  -2.440  0.00  0.00    -0.372 N 
ATOM      2  H8  <0> d           0.038  -3.583  -2.472  0.00  0.00     0.161 HD
ENDROOT
BRANCH   1   3
ATOM      3  C3  <0> d           0.023  -1.961  -1.220  0.00  0.00     0.159 A 
ATOM      4  N1  <0> d           0.005  -0.633  -1.159  0.00  0.00    -0.214 NA
ATOM      5  C2  <0> d           0.002  -0.004   0.002  0.00  0.00     0.127 A 
ATOM      6  C1  <0> d          -0.018   1.503   0.010  0.00  0.00     0.093 C 
ATOM      7  N2  <0> d           0.022  -0.644   1.153  0.00  0.00    -0.207 NA
ATOM      8  C5  <0> d           0.035  -1.971   1.190  0.00  0.00     0.206 A 
ATOM      9  C4  <0> d           0.038  -2.685  -0.017  0.00  0.00     0.158 A 
ATOM     10  O1  <0> d           0.052  -2.893   2.171  0.00  0.00    -0.275 OA
ATOM     11  N3  <0> d           0.058  -4.002   0.308  0.00  0.00    -0.221 NA
ATOM     12  C6  <0> d           0.066  -4.111   1.603  0.00  0.00     0.145 A 
ATOM     13  C7  <0> d           0.087  -5.415   2.359  0.00  0.00     0.100 C 
ENDBRANCH   1   3
BRANCH   1  14
ATOM     14  C8  <0> d           0.008  -1.841  -3.685  0.00  0.00     0.127 C 
BRANCH  14  15
ATOM     15  C9  <0> d           0.015  -2.797  -4.879  0.00  0.00     0.079 C 
BRANCH  15  16
ATOM     16  C10 <0> d          -0.002  -2.002  -6.159  0.00  0.00     0.037 A 
ATOM     17  N6  <0> d          -1.098  -1.676  -6.882  0.00  0.00    -0.281 N 
ATOM     18  N5  <0> d          -0.677  -0.933  -7.995  0.00  0.00    -0.179 NA
ATOM     19  H1  <0> d          -2.013  -1.914  -6.668  0.00  0.00     0.189 HD
ATOM     20  C12 <0> d           0.619  -0.823  -7.943  0.00  0.00     0.063 A 
ATOM     21  C11 <0> d           1.070  -1.492  -6.793  0.00  0.00    -0.008 A 
ATOM     22  C13 <0> d           1.537  -0.115  -8.909  0.00  0.00     0.062 C 
ATOM     23  C16 <0> d           2.523  -1.585  -6.396  0.00  0.00     0.043 C 
ATOM     24  C15 <0> d           3.377  -1.224  -7.619  0.00  0.00     0.005 C 
ATOM     25  C14 <0> d           2.889   0.097  -8.217  0.00  0.00     0.006 C 
ENDBRANCH  15  16
ENDBRANCH  14  15
ENDBRANCH   1  14
TORSDOF 4
