REMARK  4 active torsions:
REMARK  status: ('A' for Active; 'I' for Inactive)
REMARK    1  A    between atoms: C2_2  and  C5_5 
REMARK    2  A    between atoms: C8_8  and  S1_11 
REMARK    3  A    between atoms: S1_11  and  C11_14 
REMARK    4  A    between atoms: C12_15  and  N2_27 
ROOT
ATOM      1  C11 <0> d          -3.636   2.093   0.048  0.00  0.00     0.134 A 
ATOM      2  C12 <0> d          -2.599   1.238   0.033  0.00  0.00     0.068 A 
ATOM      3  C13 <0> d          -1.243   1.769   0.018  0.00  0.00     0.029 A 
ATOM      4  C14 <0> d          -0.013   1.076   0.008  0.00  0.00     0.026 A 
ATOM      5  C15 <0> d           1.173   1.787   0.001  0.00  0.00    -0.033 A 
ATOM      6  C16 <0> d           1.150   3.169   0.008  0.00  0.00     0.042 A 
ATOM      7  N1  <0> d          -0.010   3.813   0.025  0.00  0.00    -0.245 NA
ATOM      8  C17 <0> d          -1.158   3.180   0.032  0.00  0.00     0.111 A 
ATOM      9  S2  <0> d          -2.857   3.696   0.052  0.00  0.00    -0.055 SA
ATOM     10  C18 <0> d           2.406   4.000  -0.008  0.00  0.00     0.060 C 
ATOM     11  C19 <0> d           3.613   3.158   0.402  0.00  0.00     0.006 C 
ATOM     12  C20 <0> d           3.624   1.883  -0.450  0.00  0.00     0.005 C 
ATOM     13  C21 <0> d           2.458   1.000  -0.011  0.00  0.00     0.040 C 
ENDROOT
BRANCH   1  14
ATOM     14  S1  <0> d          -5.358   1.718   0.063  0.00  0.00     0.215 S 
ATOM     15  O1  <0> d          -6.025   2.852  -0.474  0.00  0.00    -0.217 OA
ATOM     16  O2  <0> d          -5.495   0.418  -0.495  0.00  0.00    -0.217 OA
BRANCH  14  17
ATOM     17  C8  <0> d          -5.850   1.596   1.750  0.00  0.00     0.064 A 
ATOM     18  C7  <0> d          -6.298   2.717   2.422  0.00  0.00     0.024 A 
ATOM     19  C6  <0> d          -6.684   2.622   3.746  0.00  0.00     0.009 A 
ATOM     20  C5  <0> d          -6.623   1.404   4.398  0.00  0.00    -0.051 A 
ATOM     21  C10 <0> d          -6.176   0.282   3.725  0.00  0.00     0.009 A 
ATOM     22  C9  <0> d          -5.794   0.377   2.400  0.00  0.00     0.024 A 
BRANCH  20  23
ATOM     23  C2  <0> d          -7.043   1.300   5.841  0.00  0.00    -0.024 C 
ATOM     24  C1  <0> d          -8.509   1.719   5.977  0.00  0.00     0.019 C 
ATOM     25  C3  <0> d          -6.880  -0.145   6.317  0.00  0.00     0.019 C 
ATOM     26  C4  <0> d          -6.169   2.220   6.695  0.00  0.00     0.019 C 
ENDBRANCH  20  23
ENDBRANCH  14  17
ENDBRANCH   1  14
BRANCH   2  27
ATOM     27  N2  <0> d          -2.821  -0.151   0.025  0.00  0.00    -0.397 N 
ATOM     28  H23 <0> d          -3.727  -0.498   0.031  0.00  0.00     0.156 HD
ATOM     29  H24 <0> d          -2.068  -0.763   0.014  0.00  0.00     0.156 HD
ENDBRANCH   2  27
TORSDOF 4
