REMARK  7 active torsions:
REMARK  status: ('A' for Active; 'I' for Inactive)
REMARK    1  A    between atoms: C2_2  and  C3_3 
REMARK    2  A    between atoms: C3_3  and  C5_5 
REMARK    3  A    between atoms: C3_3  and  N3_9 
REMARK    4  A    between atoms: C5_5  and  N2_8 
REMARK    5  A    between atoms: N1_6  and  O1_7 
REMARK       I    between atoms: N3_9  and  C6_10 
REMARK    6  A    between atoms: C6_10  and  C7_12 
REMARK    7  A    between atoms: C12_17  and  O3_18 
ROOT
ATOM      1  N3  <0> d           2.077   0.091   1.294  0.00  0.00    -0.341 N 
ATOM      2  C6  <0> d           2.949  -0.115   0.287  0.00  0.00     0.255 C 
ATOM      3  O2  <0> d           2.628  -0.800  -0.665  0.00  0.00    -0.268 OA
ATOM      4  H12 <0> d           2.333   0.638   2.053  0.00  0.00     0.164 HD
ENDROOT
BRANCH   1   5
ATOM      5  C3  <0> d           0.742  -0.511   1.242  0.00  0.00     0.091 C 
ATOM      6  C4  <0> d           0.872  -2.034   1.171  0.00  0.00     0.047 C 
BRANCH   5   7
ATOM      7  C2  <0> d           0.002  -0.004   0.002  0.00  0.00     0.034 C 
ATOM      8  C1  <0> d          -0.019   1.526   0.010  0.00  0.00     0.008 C 
ENDBRANCH   5   7
BRANCH   5   9
ATOM      9  C5  <0> d          -0.030  -0.130   2.478  0.00  0.00     0.153 C 
ATOM     10  N1  <0> d          -1.183   0.441   2.369  0.00  0.00    -0.120 NA
BRANCH  10  11
ATOM     11  O1  <0> d          -1.909   0.800   3.531  0.00  0.00    -0.265 OA
ATOM     12  H9  <0> d          -2.760   1.221   3.350  0.00  0.00     0.247 HD
ENDBRANCH  10  11
BRANCH   9  13
ATOM     13  N2  <0> d           0.495  -0.389   3.725  0.00  0.00    -0.384 N 
ATOM     14  H10 <0> d           1.361  -0.818   3.807  0.00  0.00     0.157 HD
ATOM     15  H11 <0> d          -0.002  -0.144   4.521  0.00  0.00     0.157 HD
ENDBRANCH   9  13
ENDBRANCH   5   9
ENDBRANCH   1   5
BRANCH   2  16
ATOM     16  C7  <0> d           4.292   0.491   0.340  0.00  0.00     0.065 A 
ATOM     17  C12 <0> d           5.202   0.279  -0.705  0.00  0.00     0.082 A 
ATOM     18  C11 <0> d           6.461   0.858  -0.648  0.00  0.00     0.056 A 
ATOM     19  C10 <0> d           6.819   1.631   0.440  0.00  0.00     0.013 A 
ATOM     20  C9  <0> d           5.923   1.838   1.478  0.00  0.00     0.020 A 
ATOM     21 Br1  <0> d           8.540   2.410   0.514  0.00  0.00    -0.051 Br
ATOM     22  C8  <0> d           4.667   1.275   1.434  0.00  0.00     0.021 A 
BRANCH  17  23
ATOM     23  O3  <0> d           4.851  -0.484  -1.770  0.00  0.00    -0.360 OA
ATOM     24  H16 <0> d           4.442   0.013  -2.492  0.00  0.00     0.217 HD
ENDBRANCH  17  23
ENDBRANCH   2  16
TORSDOF 7
