REMARK  4 active torsions:
REMARK  status: ('A' for Active; 'I' for Inactive)
REMARK    1  A    between atoms: C2_2  and  C5_5 
REMARK    2  A    between atoms: C8_8  and  C11_11 
REMARK    3  A    between atoms: C11_11  and  C12_12 
REMARK    4  A    between atoms: C11_11  and  N2_17 
ROOT
ATOM      1  C11 <0> d           2.707  -1.868  -4.752  0.00  0.00     0.282 C 
ENDROOT
BRANCH   1   2
ATOM      2  C8  <0> d           2.148  -1.558  -3.387  0.00  0.00    -0.023 A 
ATOM      3  C7  <0> d           0.916  -2.062  -3.014  0.00  0.00     0.010 A 
ATOM      4  C6  <0> d           0.404  -1.779  -1.762  0.00  0.00     0.008 A 
ATOM      5  C5  <0> d           1.123  -0.991  -0.883  0.00  0.00    -0.051 A 
ATOM      6  C10 <0> d           2.353  -0.483  -1.258  0.00  0.00     0.008 A 
ATOM      7  C9  <0> d           2.867  -0.770  -2.509  0.00  0.00     0.010 A 
BRANCH   5   8
ATOM      8  C2  <0> d           0.565  -0.682   0.482  0.00  0.00    -0.024 C 
ATOM      9  C1  <0> d           0.401   0.832   0.635  0.00  0.00     0.019 C 
ATOM     10  C3  <0> d           1.523  -1.202   1.555  0.00  0.00     0.019 C 
ATOM     11  C4  <0> d          -0.797  -1.361   0.642  0.00  0.00     0.019 C 
ENDBRANCH   5   8
ENDBRANCH   1   2
BRANCH   1  12
ATOM     12  C12 <0> d           3.748  -2.983  -4.636  0.00  0.00     0.142 A 
ATOM     13  N1  <0> d           3.161  -4.161  -3.983  0.00  0.00    -0.389 N 
ATOM     14  C15 <0> d           3.823  -4.385  -2.895  0.00  0.00     0.083 A 
ATOM     15  H29 <0> d           2.408  -4.677  -4.311  0.00  0.00     0.159 HD
ATOM     16  C14 <0> d           4.894  -3.404  -2.717  0.00  0.00     0.015 A 
ATOM     17  C13 <0> d           4.884  -2.547  -3.737  0.00  0.00     0.002 A 
ENDBRANCH   1  12
BRANCH   1  18
ATOM     18  N2  <0> d           3.340  -0.664  -5.307  0.00  0.00     0.103 N 
ATOM     19  C19 <0> d           3.965  -0.949  -6.606  0.00  0.00     0.300 C 
ATOM     20  C18 <0> d           4.662   0.312  -7.121  0.00  0.00     0.262 C 
ATOM     21  N3  <0> d           3.678   1.394  -7.259  0.00  0.00    -0.072 N 
ATOM     22  C17 <0> d           3.079   1.684  -5.950  0.00  0.00     0.262 C 
ATOM     23  H23 <0> d           2.955   1.110  -7.904  0.00  0.00     0.277 HD
ATOM     24  H28 <0> d           4.136   2.222  -7.611  0.00  0.00     0.277 HD
ATOM     25  C16 <0> d           2.369   0.434  -5.425  0.00  0.00     0.300 C 
ENDBRANCH   1  18
TORSDOF 4
