REMARK  3 active torsions:
REMARK  status: ('A' for Active; 'I' for Inactive)
REMARK    1  A    between atoms: C2_2  and  N1_5 
REMARK    2  A    between atoms: N2_8  and  S1_11 
REMARK    3  A    between atoms: S1_11  and  C9_14 
ROOT
ATOM      1  N1  <0> d           0.690  -0.478  -1.207  0.00  0.00    -0.060 N 
ATOM      2  C5  <0> d          -0.028   0.001  -2.395  0.00  0.00     0.256 C 
ATOM      3  C6  <0> d           0.621  -0.587  -3.653  0.00  0.00     0.163 C 
ATOM      4  N2  <0> d           2.054  -0.257  -3.636  0.00  0.00    -0.307 N 
ATOM      5  C7  <0> d           2.819  -0.554  -2.415  0.00  0.00     0.163 C 
ATOM      6  C8  <0> d           2.067   0.031  -1.215  0.00  0.00     0.256 C 
ATOM      7  H29 <0> d           0.705  -1.487  -1.210  0.00  0.00     0.281 HD
ENDROOT
BRANCH   4   8
ATOM      8  S1  <0> d           2.786   0.428  -4.953  0.00  0.00     0.232 S 
ATOM      9  O1  <0> d           4.151   0.046  -4.850  0.00  0.00    -0.205 OA
ATOM     10  O2  <0> d           2.000   0.014  -6.062  0.00  0.00    -0.205 OA
BRANCH   8  11
ATOM     11  C9  <0> d           2.618   2.217  -4.702  0.00  0.00     0.132 C 
ATOM     12  C13 <0> d           3.154   2.959  -5.929  0.00  0.00     0.049 C 
ATOM     13  C12 <0> d           2.936   4.463  -5.745  0.00  0.00     0.233 C 
ATOM     14  N3  <0> d           1.503   4.738  -5.592  0.00  0.00    -0.075 N 
ATOM     15  C11 <0> d           0.997   4.088  -4.377  0.00  0.00     0.233 C 
ATOM     16  H23 <0> d           1.005   4.382  -6.394  0.00  0.00     0.277 HD
ATOM     17  H28 <0> d           1.358   5.734  -5.524  0.00  0.00     0.277 HD
ATOM     18  C10 <0> d           1.140   2.570  -4.509  0.00  0.00     0.049 C 
ENDBRANCH   8  11
ENDBRANCH   4   8
BRANCH   1  19
ATOM     19  C2  <0> d           0.002  -0.004   0.002  0.00  0.00     0.117 C 
ATOM     20  C1  <0> d          -0.019   1.526   0.010  0.00  0.00     0.045 C 
ATOM     21  C3  <0> d           0.742  -0.511   1.242  0.00  0.00     0.045 C 
ATOM     22  C4  <0> d          -1.433  -0.534   0.013  0.00  0.00     0.045 C 
ENDBRANCH   1  19
TORSDOF 3
