REMARK  9 active torsions:
REMARK  status: ('A' for Active; 'I' for Inactive)
REMARK    1  A    between atoms: C5_5  and  C8_8 
REMARK    2  A    between atoms: C8_8  and  C9_10 
REMARK    3  A    between atoms: C9_10  and  O2_11 
REMARK    4  A    between atoms: O2_11  and  C10_12 
REMARK    5  A    between atoms: C10_12  and  C11_14 
REMARK    6  A    between atoms: C11_14  and  C12_15 
REMARK    7  A    between atoms: C11_14  and  N2_25 
REMARK    8  A    between atoms: C12_15  and  C13_16 
REMARK       I    between atoms: N2_25  and  C21_26 
REMARK    9  A    between atoms: C21_26  and  C22_28 
ROOT
ATOM      1  C11 <0> d           0.141  -8.853   1.935  0.00  0.00     0.188 C 
ENDROOT
BRANCH   1   2
ATOM      2  C10 <0> d          -0.234  -7.412   2.165  0.00  0.00     0.282 C 
ATOM      3  O3  <0> d          -0.244  -6.962   3.287  0.00  0.00    -0.263 OA
BRANCH   2   4
ATOM      4  O2  <0> d          -0.557  -6.628   1.125  0.00  0.00    -0.312 OA
BRANCH   4   5
ATOM      5  C9  <0> d          -0.902  -5.272   1.416  0.00  0.00     0.262 C 
BRANCH   5   6
ATOM      6  C8  <0> d          -1.232  -4.551   0.135  0.00  0.00     0.183 C 
ATOM      7  O1  <0> d          -1.178  -5.140  -0.924  0.00  0.00    -0.290 OA
BRANCH   6   8
ATOM      8  C5  <0> d          -1.621  -3.132   0.168  0.00  0.00     0.012 A 
ATOM      9  C4  <0> d          -1.929  -2.459  -1.019  0.00  0.00     0.016 A 
ATOM     10  C3  <0> d          -2.292  -1.130  -0.979  0.00  0.00     0.007 A 
ATOM     11  C2  <0> d          -2.355  -0.462   0.231  0.00  0.00    -0.062 A 
ATOM     12  C1  <0> d          -2.754   0.991   0.265  0.00  0.00     0.048 C 
ATOM     13  C7  <0> d          -2.047  -1.119   1.409  0.00  0.00     0.007 A 
ATOM     14  C6  <0> d          -1.686  -2.449   1.387  0.00  0.00     0.016 A 
ENDBRANCH   6   8
ENDBRANCH   5   6
ENDBRANCH   4   5
ENDBRANCH   2   4
ENDBRANCH   1   2
BRANCH   1  15
ATOM     15  C12 <0> d           1.369  -8.921   1.025  0.00  0.00     0.072 C 
BRANCH  15  16
ATOM     16  C13 <0> d           2.534  -8.246   1.702  0.00  0.00    -0.048 A 
ATOM     17  C20 <0> d           2.870  -6.771   1.676  0.00  0.00     0.155 A 
ATOM     18  N1  <0> d           4.087  -6.622   2.483  0.00  0.00    -0.385 N 
ATOM     19  C19 <0> d           4.444  -7.804   2.924  0.00  0.00     0.038 A 
ATOM     20  H24 <0> d           4.551  -5.789   2.658  0.00  0.00     0.160 HD
ATOM     21  C14 <0> d           3.493  -8.836   2.452  0.00  0.00    -0.006 A 
ATOM     22  C18 <0> d           5.534  -8.222   3.735  0.00  0.00     0.030 A 
ATOM     23  C15 <0> d           3.729 -10.230   2.846  0.00  0.00     0.014 A 
ATOM     24  C16 <0> d           4.799 -10.520   3.622  0.00  0.00     0.001 A 
ATOM     25  C17 <0> d           5.685  -9.525   4.056  0.00  0.00     0.002 A 
ENDBRANCH  15  16
ENDBRANCH   1  15
BRANCH   1  26
ATOM     26  N2  <0> d           0.448  -9.489   3.219  0.00  0.00    -0.343 N 
ATOM     27  C21 <0> d           0.275 -10.817   3.371  0.00  0.00     0.252 C 
ATOM     28  O4  <0> d          -0.135 -11.487   2.444  0.00  0.00    -0.268 OA
ATOM     29  H19 <0> d           0.775  -8.954   3.959  0.00  0.00     0.163 HD
BRANCH  27  30
ATOM     30  C22 <0> d           0.585 -11.458   4.666  0.00  0.00     0.032 A 
ATOM     31  C27 <0> d           0.407 -12.834   4.827  0.00  0.00     0.018 A 
ATOM     32  C26 <0> d           0.703 -13.427   6.036  0.00  0.00     0.020 A 
ATOM     33  C25 <0> d           1.165 -12.660   7.093  0.00  0.00     0.011 A 
ATOM     34  C24 <0> d           1.338 -11.295   6.941  0.00  0.00     0.020 A 
ATOM     35 Br1  <0> d           1.562 -13.481   8.749  0.00  0.00    -0.051 Br
ATOM     36  C23 <0> d           1.051 -10.691   5.735  0.00  0.00     0.018 A 
ENDBRANCH  27  30
ENDBRANCH   1  26
TORSDOF 9
