REMARK  7 active torsions:
REMARK  status: ('A' for Active; 'I' for Inactive)
REMARK    1  A    between atoms: C2_2  and  C3_3 
REMARK    2  A    between atoms: C3_3  and  C4_4 
REMARK    3  A    between atoms: C3_3  and  N2_20 
REMARK    4  A    between atoms: N1_10  and  C13_16 
REMARK    5  A    between atoms: C13_16  and  C14_17 
REMARK    6  A    between atoms: C14_17  and  C15_18 
REMARK    7  A    between atoms: C15_18  and  O3_19 
ROOT
ATOM      1  C4  <0> d           1.177   1.781   0.000  0.00  0.00    -0.026 A 
ATOM      2  C5  <0> d          -0.013   1.076   0.008  0.00  0.00     0.012 A 
ATOM      3  C6  <0> d          -1.221   1.748   0.017  0.00  0.00     0.040 A 
ATOM      4  C7  <0> d          -1.240   3.132   0.030  0.00  0.00     0.096 A 
ATOM      5  C8  <0> d          -0.041   3.843   0.022  0.00  0.00     0.071 A 
ATOM      6  C9  <0> d           1.166   3.164   0.008  0.00  0.00     0.041 A 
ATOM      7  N1  <0> d          -0.074   5.244   0.029  0.00  0.00    -0.313 N 
ATOM      8  C10 <0> d          -1.226   5.870   0.358  0.00  0.00     0.253 C 
ATOM      9  O1  <0> d          -1.287   7.081   0.342  0.00  0.00    -0.270 OA
ATOM     10  C11 <0> d          -2.434   5.056   0.746  0.00  0.00     0.217 C 
ATOM     11  O2  <0> d          -2.419   3.809   0.046  0.00  0.00    -0.335 OA
ATOM     12  C12 <0> d          -2.410   4.795   2.253  0.00  0.00     0.050 C 
ENDROOT
BRANCH   1  13
ATOM     13  C3  <0> d           2.489   1.040  -0.015  0.00  0.00     0.216 C 
BRANCH  13  14
ATOM     14  C2  <0> d           2.823   0.564   1.400  0.00  0.00     0.033 C 
ATOM     15  C1  <0> d           4.212  -0.078   1.407  0.00  0.00     0.007 C 
ENDBRANCH  13  14
BRANCH  13  16
ATOM     16  N2  <0> d           2.386  -0.120  -0.910  0.00  0.00    -0.071 N 
ATOM     17  H21 <0> d           2.145   0.222  -1.928  0.00  0.00     0.275 HD
ATOM     18  H22 <0> d           1.590  -0.790  -0.552  0.00  0.00     0.275 HD
ATOM     19  H23 <0> d           3.343  -0.661  -0.922  0.00  0.00     0.275 HD
ENDBRANCH  13  16
ENDBRANCH   1  13
BRANCH   7  20
ATOM     20  C13 <0> d           1.121   6.019  -0.314  0.00  0.00     0.134 C 
BRANCH  20  21
ATOM     21  C14 <0> d           1.140   6.286  -1.821  0.00  0.00     0.046 C 
BRANCH  21  22
ATOM     22  C15 <0> d           2.388   7.094  -2.179  0.00  0.00     0.165 C 
BRANCH  22  23
ATOM     23  O3  <0> d           2.406   7.344  -3.587  0.00  0.00    -0.401 OA
ATOM     24  H20 <0> d           3.233   7.915  -4.033  0.00  0.00     0.209 HD
ENDBRANCH  22  23
ENDBRANCH  21  22
ENDBRANCH  20  21
ENDBRANCH   7  20
TORSDOF 7
