REMARK  6 active torsions:
REMARK  status: ('A' for Active; 'I' for Inactive)
REMARK    1  A    between atoms: C7_7  and  N1_8 
REMARK       I    between atoms: N1_8  and  C8_9 
REMARK    2  A    between atoms: C8_9  and  C9_11 
REMARK    3  A    between atoms: C10_12  and  C24_30 
REMARK    4  A    between atoms: C11_13  and  C16_20 
REMARK    5  A    between atoms: C12_14  and  O3_19 
REMARK       I    between atoms: C16_20  and  N2_22 
REMARK    6  A    between atoms: N2_22  and  C17_23 
ROOT
ATOM      1  C9  <0> d          -4.104   5.994   0.735  0.00  0.00     0.158 C 
ATOM      2  C10 <0> d          -3.433   4.622   0.610  0.00  0.00     0.074 C 
ATOM      3  C11 <0> d          -2.913   4.184   1.980  0.00  0.00     0.123 C 
ATOM      4  C12 <0> d          -4.085   4.005   2.947  0.00  0.00     0.073 C 
ATOM      5  C13 <0> d          -4.780   5.354   3.160  0.00  0.00     0.117 C 
ATOM      6  C14 <0> d          -5.166   5.914   1.809  0.00  0.00     0.143 C 
ATOM      7  O2  <0> d          -6.294   6.288   1.594  0.00  0.00    -0.297 OA
ATOM      8  C15 <0> d          -5.082   3.004   2.361  0.00  0.00     0.047 C 
ENDROOT
BRANCH   1   9
ATOM      9  C8  <0> d          -3.075   7.027   1.117  0.00  0.00     0.234 C 
ATOM     10  N1  <0> d          -2.407   7.699   0.158  0.00  0.00    -0.326 N 
ATOM     11  H11 <0> d          -2.677   7.561  -0.899  0.00  0.00     0.169 HD
ATOM     12  O1  <0> d          -2.848   7.254   2.286  0.00  0.00    -0.272 OA
BRANCH  10  13
ATOM     13  C7  <0> d          -1.370   8.570   0.508  0.00  0.00     0.040 A 
ATOM     14  C2  <0> d          -0.829   9.425  -0.443  0.00  0.00    -0.035 A 
ATOM     15  C1  <0> d          -1.358   9.416  -1.854  0.00  0.00     0.050 C 
ATOM     16  C3  <0> d           0.195  10.285  -0.094  0.00  0.00     0.009 A 
ATOM     17  C4  <0> d           0.681  10.294   1.200  0.00  0.00     0.001 A 
ATOM     18  C5  <0> d           0.145   9.443   2.149  0.00  0.00     0.002 A 
ATOM     19  C6  <0> d          -0.883   8.586   1.809  0.00  0.00     0.030 A 
ENDBRANCH  10  13
ENDBRANCH   1   9
BRANCH   2  20
ATOM     20  C24 <0> d          -2.283   4.710  -0.359  0.00  0.00     0.040 A 
ATOM     21  N3  <0> d          -1.544   5.802  -0.396  0.00  0.00    -0.265 NA
ATOM     22  C28 <0> d          -0.531   5.926  -1.231  0.00  0.00     0.117 A 
ATOM     23  C27 <0> d          -0.200   4.902  -2.097  0.00  0.00     0.019 A 
ATOM     24  C26 <0> d          -0.950   3.736  -2.084  0.00  0.00     0.003 A 
ATOM     25  C25 <0> d          -2.011   3.644  -1.196  0.00  0.00     0.027 A 
ENDBRANCH   2  20
BRANCH   3  26
ATOM     26  C16 <0> d          -1.975   5.233   2.519  0.00  0.00     0.230 C 
ATOM     27  O4  <0> d          -1.156   5.747   1.787  0.00  0.00    -0.273 OA
ATOM     28  N2  <0> d          -2.046   5.599   3.814  0.00  0.00    -0.326 N 
ATOM     29  H18 <0> d          -2.772   5.116   4.484  0.00  0.00     0.169 HD
BRANCH  28  30
ATOM     30  C17 <0> d          -1.196   6.596   4.306  0.00  0.00     0.040 A 
ATOM     31  C22 <0> d          -1.639   7.460   5.299  0.00  0.00    -0.035 A 
ATOM     32  C21 <0> d          -0.795   8.439   5.787  0.00  0.00     0.009 A 
ATOM     33  C23 <0> d          -3.036   7.327   5.846  0.00  0.00     0.050 C 
ATOM     34  C20 <0> d           0.486   8.565   5.281  0.00  0.00     0.001 A 
ATOM     35  C19 <0> d           0.928   7.709   4.289  0.00  0.00     0.002 A 
ATOM     36  C18 <0> d           0.091   6.725   3.800  0.00  0.00     0.030 A 
ENDBRANCH  28  30
ENDBRANCH   3  26
BRANCH   4  37
ATOM     37  O3  <0> d          -3.599   3.515   4.199  0.00  0.00    -0.389 OA
ATOM     38  H17 <0> d          -4.301   3.325   5.024  0.00  0.00     0.210 HD
ENDBRANCH   4  37
TORSDOF 6
