REMARK  4 active torsions:
REMARK  status: ('A' for Active; 'I' for Inactive)
REMARK    1  A    between atoms: C6_6  and  N1_8 
REMARK    2  A    between atoms: C8_9  and  S1_29 
REMARK    3  A    between atoms: C9_11  and  O2_28 
REMARK    4  A    between atoms: C10_12  and  C12_15 
ROOT
ATOM      1  N1  <0> d           0.132  -2.752   2.491  0.00  0.00    -0.278 N 
ATOM      2  C8  <0> d           0.172  -2.050   3.769  0.00  0.00     0.393 C 
ATOM      3  N2  <0> d          -0.334  -2.910   4.846  0.00  0.00     0.146 N 
ATOM      4  C9  <0> d           0.365  -4.205   4.841  0.00  0.00     0.373 C 
ATOM      5  C10 <0> d          -0.059  -4.979   3.589  0.00  0.00     0.172 C 
ATOM      6  C11 <0> d           0.041  -4.082   2.386  0.00  0.00     0.237 C 
ATOM      7  O1  <0> d           0.042  -4.583   1.282  0.00  0.00    -0.272 OA
ATOM      8  H13 <0> d          -0.248  -2.455   5.742  0.00  0.00     0.323 HD
ENDROOT
BRANCH   5   9
ATOM      9  C12 <0> d           0.859  -6.190   3.404  0.00  0.00     0.264 C 
ATOM     10  N4  <0> d           2.263  -5.751   3.397  0.00  0.00     0.091 N 
ATOM     11  C22 <0> d           3.204  -6.828   3.074  0.00  0.00     0.274 C 
ATOM     12  H22 <0> d           2.393  -4.961   2.782  0.00  0.00     0.316 HD
ATOM     13  C21 <0> d           3.179  -7.902   4.177  0.00  0.00     0.067 C 
ATOM     14  C14 <0> d           1.726  -8.247   4.396  0.00  0.00    -0.041 A 
ATOM     15  C13 <0> d           0.664  -7.167   4.566  0.00  0.00     0.146 A 
ATOM     16  C15 <0> d           1.084  -9.407   4.396  0.00  0.00    -0.005 A 
ATOM     17  N3  <0> d          -0.628  -7.849   4.517  0.00  0.00    -0.379 N 
ATOM     18  C20 <0> d          -0.387  -9.144   4.449  0.00  0.00     0.039 A 
ATOM     19  H25 <0> d          -1.497  -7.419   4.529  0.00  0.00     0.160 HD
ATOM     20  C19 <0> d          -1.291 -10.245   4.438  0.00  0.00     0.030 A 
ATOM     21  C18 <0> d          -0.758 -11.492   4.391  0.00  0.00     0.002 A 
ATOM     22  C17 <0> d           0.613 -11.764   4.353  0.00  0.00     0.001 A 
ATOM     23  C16 <0> d           1.568 -10.797   4.352  0.00  0.00     0.014 A 
ENDBRANCH   5   9
BRANCH   4  24
ATOM     24  O2  <0> d           0.011  -4.946   6.011  0.00  0.00    -0.367 OA
ATOM     25  H23 <0> d           0.239  -4.503   6.840  0.00  0.00     0.212 HD
ENDBRANCH   4  24
BRANCH   1  26
ATOM     26  C6  <0> d           0.188  -1.995   1.315  0.00  0.00     0.040 A 
ATOM     27  C5  <0> d           1.350  -1.313   0.981  0.00  0.00     0.030 A 
ATOM     28  C4  <0> d           1.401  -0.567  -0.180  0.00  0.00     0.003 A 
ATOM     29  C3  <0> d           0.297  -0.498  -1.009  0.00  0.00     0.007 A 
ATOM     30  C2  <0> d          -0.862  -1.176  -0.679  0.00  0.00    -0.060 A 
ATOM     31  C1  <0> d          -2.064  -1.099  -1.585  0.00  0.00     0.048 C 
ATOM     32  C7  <0> d          -0.922  -1.920   0.483  0.00  0.00     0.036 A 
ENDBRANCH   1  26
BRANCH   2  33
ATOM     33  S1  <0> d          -0.854  -0.558   3.664  0.00  0.00    -0.126 SA
ATOM     34  H24 <0> d          -0.743  -0.000   4.883  0.00  0.00     0.105 HD
ENDBRANCH   2  33
TORSDOF 4
