REMARK  3 active torsions:
REMARK  status: ('A' for Active; 'I' for Inactive)
REMARK    1  A    between atoms: C5_7  and  N3_11 
REMARK       I    between atoms: N3_11  and  C9_12 
REMARK       I    between atoms: C9_12  and  N4_14 
REMARK    2  A    between atoms: C12_17  and  C15_20 
REMARK    3  A    between atoms: C15_20  and  N5_21 
ROOT
ATOM      1  N3  <0> d           1.362  -4.131  -1.040  0.00  0.00    -0.334 N 
ATOM      2  C9  <0> d           0.932  -5.028  -0.131  0.00  0.00     0.318 C 
ATOM      3  O1  <0> d          -0.174  -4.913   0.361  0.00  0.00    -0.247 OA
ATOM      4  N4  <0> d           1.728  -6.053   0.233  0.00  0.00    -0.334 N 
ATOM      5  C10 <0> d           3.108  -6.143  -0.264  0.00  0.00     0.128 C 
ATOM      6  C11 <0> d           3.312  -7.517  -0.908  0.00  0.00     0.026 C 
ATOM      7  C12 <0> d           2.934  -8.608   0.097  0.00  0.00     0.014 C 
ATOM      8  C13 <0> d           1.458  -8.466   0.475  0.00  0.00     0.026 C 
ATOM      9  C14 <0> d           1.234  -7.099   1.139  0.00  0.00     0.128 C 
ATOM     10  H12 <0> d           2.269  -4.181  -1.379  0.00  0.00     0.165 HD
ENDROOT
BRANCH   1  11
ATOM     11  C5  <0> d           0.458  -3.082  -1.517  0.00  0.00     0.123 C 
ATOM     12  C3  <0> d           0.491  -1.912  -0.566  0.00  0.00     0.008 A 
ATOM     13  C2  <0> d           0.551  -0.613  -0.957  0.00  0.00     0.040 A 
ATOM     14  C4  <0> d           0.469  -1.941   0.827  0.00  0.00     0.150 A 
ATOM     15  N1  <0> d           0.569   0.149   0.148  0.00  0.00    -0.278 N 
ATOM     16  C8  <0> d           0.588  -0.164  -2.397  0.00  0.00     0.059 C 
ATOM     17  C1  <0> d           0.632   1.613   0.186  0.00  0.00     0.179 C 
ATOM     18  N2  <0> d           0.521  -0.705   1.260  0.00  0.00    -0.184 NA
ATOM     19  C7  <0> d           0.134  -1.333  -3.279  0.00  0.00     0.008 C 
ATOM     20  C6  <0> d           0.914  -2.595  -2.898  0.00  0.00     0.030 C 
ENDBRANCH   1  11
BRANCH   7  21
ATOM     21  C15 <0> d           3.169  -9.983  -0.531  0.00  0.00     0.239 C 
BRANCH  21  22
ATOM     22  N5  <0> d           2.886 -11.029   0.461  0.00  0.00    -0.071 N 
ATOM     23  C21 <0> d           2.945 -12.273  -0.171  0.00  0.00     0.235 C 
ATOM     24  C20 <0> d           2.565 -13.425   0.783  0.00  0.00     0.028 C 
ATOM     25  C19 <0> d           3.740 -13.732   1.676  0.00  0.00     0.002 C 
ATOM     26  C18 <0> d           3.682 -12.960   3.010  0.00  0.00     0.002 C 
ATOM     27  C17 <0> d           3.220 -11.505   2.809  0.00  0.00     0.028 C 
ATOM     28  C16 <0> d           3.841 -10.894   1.578  0.00  0.00     0.235 C 
ATOM     29  H36 <0> d           1.952 -10.892   0.817  0.00  0.00     0.279 HD
ENDBRANCH  21  22
ENDBRANCH   7  21
TORSDOF 3
