REMARK  4 active torsions:
REMARK  status: ('A' for Active; 'I' for Inactive)
REMARK    1  A    between atoms: N1_2  and  S1_4 
REMARK    2  A    between atoms: S1_4  and  C3_7 
REMARK    3  A    between atoms: C5_9  and  N2_14 
REMARK       I    between atoms: N2_14  and  C9_15 
REMARK    4  A    between atoms: C9_15  and  C10_17 
ROOT
ATOM      1  N2  <0> d           3.575   2.448   0.294  0.00  0.00    -0.325 N 
ATOM      2  C9  <0> d           4.690   2.104  -0.381  0.00  0.00     0.254 C 
ATOM      3  O3  <0> d           4.667   1.171  -1.156  0.00  0.00    -0.270 OA
ATOM      4  H11 <0> d           3.573   3.239   0.855  0.00  0.00     0.169 HD
ENDROOT
BRANCH   1   5
ATOM      5  C5  <0> d           2.421   1.663   0.185  0.00  0.00     0.036 A 
ATOM      6  C4  <0> d           1.169   2.260   0.219  0.00  0.00     0.056 A 
ATOM      7  C3  <0> d           0.031   1.483   0.112  0.00  0.00     0.103 A 
ATOM      8  C8  <0> d           0.140   0.111  -0.029  0.00  0.00     0.057 A 
ATOM      9  C7  <0> d           1.388  -0.487  -0.063  0.00  0.00     0.028 A 
ATOM     10 Cl1  <0> d          -1.291  -0.863  -0.164  0.00  0.00    -0.083 Cl
ATOM     11  C6  <0> d           2.528   0.285   0.043  0.00  0.00     0.031 A 
BRANCH   7  12
ATOM     12  S1  <0> d          -1.559   2.241   0.148  0.00  0.00     0.261 S 
ATOM     13  O1  <0> d          -1.340   3.638   0.287  0.00  0.00    -0.200 OA
ATOM     14  O2  <0> d          -2.296   1.689  -0.935  0.00  0.00    -0.200 OA
BRANCH  12  15
ATOM     15  N1  <0> d          -2.309   1.738   1.536  0.00  0.00    -0.315 N 
ATOM     16  C1  <0> d          -2.028   2.413   2.806  0.00  0.00     0.162 C 
ATOM     17  C2  <0> d          -3.255   0.620   1.494  0.00  0.00     0.162 C 
ENDBRANCH  12  15
ENDBRANCH   7  12
ENDBRANCH   1   5
BRANCH   2  18
ATOM     18  C10 <0> d           5.966   2.880  -0.174  0.00  0.00     0.245 C 
ATOM     19  O5  <0> d           6.970   2.407  -1.078  0.00  0.00    -0.331 OA
ATOM     20  C17 <0> d           8.252   2.789  -0.823  0.00  0.00     0.103 A 
ATOM     21  C12 <0> d           8.611   3.286   0.425  0.00  0.00     0.102 A 
ATOM     22  C16 <0> d           9.207   2.678  -1.822  0.00  0.00     0.040 A 
ATOM     23  O4  <0> d           7.688   3.407   1.418  0.00  0.00    -0.345 OA
ATOM     24  C13 <0> d           9.923   3.664   0.665  0.00  0.00     0.039 A 
ATOM     25  C11 <0> d           6.471   2.669   1.260  0.00  0.00     0.218 C 
ATOM     26  C14 <0> d          10.871   3.550  -0.335  0.00  0.00     0.003 A 
ATOM     27  C15 <0> d          10.513   3.058  -1.577  0.00  0.00     0.003 A 
ENDBRANCH   2  18
TORSDOF 4
