REMARK  3 active torsions:
REMARK  status: ('A' for Active; 'I' for Inactive)
REMARK    1  A    between atoms: C2_2  and  C9_12 
REMARK    2  A    between atoms: C3_4  and  C4_6 
REMARK       I    between atoms: C9_12  and  N3_14 
REMARK    3  A    between atoms: N3_14  and  C10_15 
ROOT
ATOM      1  C1  <0> d           4.792   0.806   1.235  0.00  0.00     0.181 A 
ATOM      2  C2  <0> d           3.720   1.390   0.632  0.00  0.00     0.149 A 
ATOM      3  N1  <0> d           4.173   2.513   0.012  0.00  0.00    -0.221 NA
ATOM      4  C3  <0> d           5.449   2.619   0.231  0.00  0.00     0.150 A 
ATOM      5  O1  <0> d           5.857   1.582   0.977  0.00  0.00    -0.305 OA
ENDROOT
BRANCH   2   6
ATOM      6  C9  <0> d           2.332   0.894   0.642  0.00  0.00     0.273 C 
ATOM      7  O2  <0> d           2.058  -0.133   1.233  0.00  0.00    -0.266 OA
ATOM      8  N3  <0> d           1.367   1.579  -0.003  0.00  0.00    -0.343 N 
ATOM      9  H13 <0> d           1.615   2.508  -0.537  0.00  0.00     0.163 HD
BRANCH   8  10
ATOM     10  C10 <0> d          -0.013   1.086   0.008  0.00  0.00     0.166 C 
ATOM     11  C13 <0> d          -0.693   1.560   1.273  0.00  0.00     0.208 C 
ATOM     12  S1  <0> d          -2.317   1.930   0.802  0.00  0.00    -0.090 SA
ATOM     13  O3  <0> d          -0.205   1.659   2.379  0.00  0.00    -0.283 OA
ATOM     14  C12 <0> d          -2.246   1.584  -0.995  0.00  0.00     0.085 C 
ATOM     15  C11 <0> d          -0.724   1.578  -1.251  0.00  0.00     0.044 C 
ENDBRANCH   8  10
ENDBRANCH   2   6
BRANCH   4  16
ATOM     16  C4  <0> d           6.333   3.729  -0.278  0.00  0.00     0.066 C 
ATOM     17  C8  <0> d           6.978   4.454   0.907  0.00  0.00     0.040 C 
ATOM     18  C7  <0> d           7.920   5.539   0.382  0.00  0.00     0.233 C 
ATOM     19  N2  <0> d           8.954   4.925  -0.461  0.00  0.00    -0.075 N 
ATOM     20  C6  <0> d           8.362   4.263  -1.630  0.00  0.00     0.233 C 
ATOM     21  H8  <0> d           9.504   4.186   0.140  0.00  0.00     0.277 HD
ATOM     22  H18 <0> d           9.646   5.712  -0.796  0.00  0.00     0.277 HD
ATOM     23  C5  <0> d           7.431   3.140  -1.167  0.00  0.00     0.040 C 
ENDBRANCH   4  16
TORSDOF 3
