REMARK  5 active torsions:
REMARK  status: ('A' for Active; 'I' for Inactive)
REMARK    1  A    between atoms: C4_4  and  C5_7 
REMARK    2  A    between atoms: C5_7  and  N2_8 
REMARK    3  A    between atoms: N2_8  and  C6_9 
REMARK    4  A    between atoms: C6_9  and  C8_11 
REMARK    5  A    between atoms: C6_9  and  C14_18 
ROOT
ATOM      1  C6  <0> d          -2.441  -5.096  -1.385  0.00  0.00     0.236 C 
ATOM      2  C7  <0> d          -1.744  -6.162  -0.537  0.00  0.00     0.064 C 
ENDROOT
BRANCH   1   3
ATOM      3  N2  <0> d          -1.671  -3.847  -1.331  0.00  0.00    -0.047 N 
ATOM      4  H7  <0> d          -2.175  -3.119  -1.816  0.00  0.00     0.279 HD
ATOM      5  H15 <0> d          -0.774  -3.985  -1.772  0.00  0.00     0.279 HD
BRANCH   3   6
ATOM      6  C5  <0> d          -1.472  -3.454   0.070  0.00  0.00     0.295 C 
BRANCH   6   7
ATOM      7  C4  <0> d          -0.623  -2.211   0.128  0.00  0.00     0.090 A 
ATOM      8  C3  <0> d          -1.098  -0.889   0.212  0.00  0.00     0.065 A 
ATOM      9  C2  <0> d          -0.035  -0.063   0.243  0.00  0.00     0.077 A 
ATOM     10  C1  <0> d          -0.083   1.440   0.330  0.00  0.00     0.079 C 
ATOM     11  O1  <0> d           1.076  -0.814   0.176  0.00  0.00    -0.218 OA
ATOM     12  N1  <0> d           0.679  -2.172   0.110  0.00  0.00    -0.131 NA
ENDBRANCH   6   7
ENDBRANCH   3   6
ENDBRANCH   1   3
BRANCH   1  13
ATOM     13  C8  <0> d          -2.530  -5.570  -2.813  0.00  0.00    -0.011 A 
ATOM     14  C13 <0> d          -3.211  -6.734  -3.114  0.00  0.00     0.029 A 
ATOM     15  C12 <0> d          -3.297  -7.167  -4.425  0.00  0.00     0.011 A 
ATOM     16  C11 <0> d          -2.692  -6.439  -5.434  0.00  0.00     0.019 A 
ATOM     17 Br1  <0> d          -4.237  -8.755  -4.838  0.00  0.00    -0.051 Br
ATOM     18  C10 <0> d          -2.006  -5.277  -5.131  0.00  0.00     0.002 A 
ATOM     19  C9  <0> d          -1.925  -4.843  -3.822  0.00  0.00     0.010 A 
ENDBRANCH   1  13
BRANCH   1  20
ATOM     20  C14 <0> d          -3.829  -4.855  -0.849  0.00  0.00     0.215 C 
ATOM     21  O2  <0> d          -4.193  -3.721  -0.589  0.00  0.00    -0.646 OA
ATOM     22  O3  <0> d          -4.587  -5.794  -0.675  0.00  0.00    -0.646 OA
ENDBRANCH   1  20
TORSDOF 5
