REMARK  6 active torsions:
REMARK  status: ('A' for Active; 'I' for Inactive)
REMARK    1  A    between atoms: C4_4  and  C8_11 
REMARK       I    between atoms: C8_11  and  N2_13 
REMARK    2  A    between atoms: N2_13  and  C9_14 
REMARK    3  A    between atoms: C9_14  and  C10_15 
REMARK    4  A    between atoms: C13_18  and  C16_21 
REMARK    5  A    between atoms: C17_22  and  C22_30 
REMARK    6  A    between atoms: C19_25  and  N5_27 
REMARK       I    between atoms: C22_30  and  N6_32 
ROOT
ATOM      1  C10 <0> d           4.039   5.913  -1.147  0.00  0.00    -0.040 A 
ATOM      2  C11 <0> d           2.789   6.058  -1.720  0.00  0.00     0.010 A 
ATOM      3  C12 <0> d           1.789   5.149  -1.440  0.00  0.00     0.014 A 
ATOM      4  C13 <0> d           2.041   4.083  -0.577  0.00  0.00    -0.006 A 
ATOM      5  C14 <0> d           3.302   3.946   0.003  0.00  0.00     0.014 A 
ATOM      6  C15 <0> d           4.295   4.858  -0.289  0.00  0.00     0.010 A 
ENDROOT
BRANCH   1   7
ATOM      7  C9  <0> d           5.127   6.909  -1.457  0.00  0.00     0.161 C 
BRANCH   7   8
ATOM      8  N2  <0> d           5.077   8.005  -0.486  0.00  0.00    -0.352 N 
ATOM      9  C8  <0> d           5.962   9.018  -0.567  0.00  0.00     0.257 C 
ATOM     10  O2  <0> d           6.744   9.069  -1.497  0.00  0.00    -0.267 OA
ATOM     11  H9  <0> d           4.318   8.000   0.310  0.00  0.00     0.163 HD
BRANCH   9  12
ATOM     12  C4  <0> d           5.981  10.063   0.468  0.00  0.00     0.100 A 
ATOM     13  C3  <0> d           6.968  11.046   0.465  0.00  0.00     0.031 A 
ATOM     14  C2  <0> d           6.952  12.023   1.461  0.00  0.00    -0.039 A 
ATOM     15  C1  <0> d           8.006  13.099   1.475  0.00  0.00     0.050 C 
ATOM     16  C6  <0> d           5.991  12.002   2.419  0.00  0.00     0.014 A 
ATOM     17  N1  <0> d           5.032  11.047   2.431  0.00  0.00    -0.326 N 
ATOM     18  C7  <0> d           5.993  13.062   3.490  0.00  0.00     0.068 C 
ATOM     19  C5  <0> d           4.998  10.084   1.491  0.00  0.00     0.261 A 
ATOM     20  H1  <0> d           4.271  11.066   3.226  0.00  0.00     0.169 HD
ATOM     21  O1  <0> d           4.127   9.232   1.519  0.00  0.00    -0.267 OA
ENDBRANCH   9  12
ENDBRANCH   7   8
ENDBRANCH   1   7
BRANCH   4  22
ATOM     22  C16 <0> d           0.972   3.104  -0.272  0.00  0.00     0.103 A 
ATOM     23  N4  <0> d          -0.264   3.513  -0.007  0.00  0.00    -0.061 NA
ATOM     24  C19 <0> d          -1.222   2.640   0.266  0.00  0.00     0.724 A 
ATOM     25  N3  <0> d          -1.000   1.332   0.284  0.00  0.00    -0.074 NA
ATOM     26  C18 <0> d           0.200   0.840   0.038  0.00  0.00     0.155 A 
ATOM     27  C17 <0> d           1.248   1.720  -0.257  0.00  0.00     0.080 A 
BRANCH  24  28
ATOM     28  N5  <0> d          -2.493   3.106   0.535  0.00  0.00    -0.223 N 
ATOM     29  C20 <0> d          -2.765   4.545   0.516  0.00  0.00     0.168 C 
ATOM     30  C21 <0> d          -3.570   2.161   0.841  0.00  0.00     0.168 C 
ENDBRANCH  24  28
BRANCH  27  31
ATOM     31  C22 <0> d           2.602   1.214  -0.543  0.00  0.00     0.256 C 
ATOM     32  O3  <0> d           3.180   1.563  -1.555  0.00  0.00    -0.267 OA
ATOM     33  N6  <0> d           3.201   0.365   0.316  0.00  0.00    -0.357 N 
ATOM     34  C23 <0> d           4.585  -0.056   0.085  0.00  0.00     0.152 C 
ATOM     35  C24 <0> d           2.467  -0.136   1.480  0.00  0.00     0.152 C 
ENDBRANCH  27  31
ENDBRANCH   4  22
TORSDOF 6
