REMARK  2 active torsions:
REMARK  status: ('A' for Active; 'I' for Inactive)
REMARK    1  A    between atoms: C4_4  and  C7_7 
REMARK    2  A    between atoms: C7_7  and  C8_8 
ROOT
ATOM      1  C8  <0> d           3.790  -1.566  -1.273  0.00  0.00    -0.037 A 
ATOM      2  C9  <0> d           2.844  -2.554  -1.488  0.00  0.00     0.011 A 
ATOM      3  C10 <0> d           2.909  -3.346  -2.616  0.00  0.00     0.032 A 
ATOM      4  C11 <0> d           3.927  -3.153  -3.544  0.00  0.00     0.062 A 
ATOM      5  C12 <0> d           4.880  -2.157  -3.328  0.00  0.00     0.062 A 
ATOM      6  C13 <0> d           4.801  -1.361  -2.189  0.00  0.00     0.040 A 
ATOM      7  N1  <0> d           5.907  -1.948  -4.244  0.00  0.00    -0.317 N 
ATOM      8  H2  <0> d           6.565  -1.254  -4.084  0.00  0.00     0.169 HD
ATOM      9  C14 <0> d           5.989  -2.711  -5.353  0.00  0.00     0.314 A 
ATOM     10  O1  <0> d           6.884  -2.534  -6.155  0.00  0.00    -0.262 OA
ATOM     11  C15 <0> d           4.970  -3.775  -5.584  0.00  0.00     0.314 A 
ATOM     12  O2  <0> d           5.026  -4.473  -6.577  0.00  0.00    -0.262 OA
ATOM     13  N2  <0> d           3.986  -3.955  -4.680  0.00  0.00    -0.317 N 
ATOM     14  H3  <0> d           3.319  -4.645  -4.821  0.00  0.00     0.169 HD
ENDROOT
BRANCH   1  15
ATOM     15  C7  <0> d           3.711  -0.707  -0.038  0.00  0.00     0.123 C 
ATOM     16 Br1  <0> d           3.620  -1.856   1.555  0.00  0.00    -0.081 Br
BRANCH  15  17
ATOM     17  C4  <0> d           2.478   0.157  -0.104  0.00  0.00    -0.039 A 
ATOM     18  C3  <0> d           1.225  -0.421  -0.038  0.00  0.00     0.009 A 
ATOM     19  C2  <0> d           0.094   0.372  -0.098  0.00  0.00     0.001 A 
ATOM     20  C1  <0> d           0.217   1.743  -0.225  0.00  0.00     0.000 A 
ATOM     21  C6  <0> d           1.471   2.321  -0.290  0.00  0.00     0.001 A 
ATOM     22  C5  <0> d           2.602   1.528  -0.231  0.00  0.00     0.009 A 
ENDBRANCH  15  17
ENDBRANCH   1  15
TORSDOF 2
