REMARK  6 active torsions:
REMARK  status: ('A' for Active; 'I' for Inactive)
REMARK    1  A    between atoms: N1_2  and  C3_4 
REMARK    2  A    between atoms: C5_6  and  C8_10 
REMARK    3  A    between atoms: C8_10  and  N3_11 
REMARK       I    between atoms: N3_11  and  C9_12 
REMARK       I    between atoms: C9_12  and  N4_14 
REMARK    4  A    between atoms: N4_14  and  C10_15 
REMARK    5  A    between atoms: C10_15  and  C11_16 
REMARK    6  A    between atoms: C16_21  and  O2_26 
ROOT
ATOM      1  N3  <0> d          -1.351  -4.764  -2.463  0.00  0.00    -0.339 N 
ATOM      2  C9  <0> d          -1.585  -6.091  -2.499  0.00  0.00     0.316 C 
ATOM      3  O1  <0> d          -0.653  -6.872  -2.529  0.00  0.00    -0.247 OA
ATOM      4  N4  <0> d          -2.851  -6.552  -2.503  0.00  0.00    -0.339 N 
ATOM      5  H12 <0> d          -2.094  -4.141  -2.439  0.00  0.00     0.164 HD
ATOM      6  H13 <0> d          -3.594  -5.930  -2.479  0.00  0.00     0.164 HD
ENDROOT
BRANCH   1   7
ATOM      7  C8  <0> d           0.025  -4.262  -2.458  0.00  0.00     0.163 C 
BRANCH   7   8
ATOM      8  C5  <0> d           0.011  -2.756  -2.415  0.00  0.00    -0.035 A 
ATOM      9  C4  <0> d           0.013  -2.084  -1.206  0.00  0.00     0.057 A 
ATOM     10  C3  <0> d           0.000  -0.693  -1.206  0.00  0.00     0.102 A 
ATOM     11  N2  <0> d          -0.020  -0.019  -2.345  0.00  0.00    -0.352 N 
ATOM     12  C7  <0> d          -0.017  -0.633  -3.513  0.00  0.00     0.090 A 
ATOM     13  H25 <0> d          -0.033   0.951  -2.321  0.00  0.00     0.166 HD
ATOM     14  C6  <0> d          -0.004  -2.012  -3.587  0.00  0.00     0.026 A 
BRANCH  10  15
ATOM     15  N1  <0> d           0.002  -0.004   0.002  0.00  0.00    -0.376 N 
ATOM     16  C1  <0> d          -0.018   1.461   0.010  0.00  0.00     0.150 C 
ATOM     17  C2  <0> d           0.024  -0.743   1.267  0.00  0.00     0.150 C 
ENDBRANCH  10  15
ENDBRANCH   7   8
ENDBRANCH   1   7
BRANCH   4  18
ATOM     18  C10 <0> d          -3.105  -7.995  -2.543  0.00  0.00     0.162 C 
BRANCH  18  19
ATOM     19  C11 <0> d          -4.591  -8.243  -2.539  0.00  0.00    -0.040 A 
ATOM     20  C20 <0> d          -5.261  -8.320  -3.721  0.00  0.00     0.021 A 
ATOM     21  C19 <0> d          -6.646  -8.556  -3.722  0.00  0.00    -0.025 A 
ATOM     22  C14 <0> d          -7.326  -8.702  -2.487  0.00  0.00    -0.023 A 
ATOM     23  C18 <0> d          -7.370  -8.647  -4.924  0.00  0.00     0.015 A 
ATOM     24  C13 <0> d          -6.601  -8.612  -1.286  0.00  0.00     0.013 A 
ATOM     25  C15 <0> d          -8.712  -8.933  -2.485  0.00  0.00     0.049 A 
ATOM     26  C12 <0> d          -5.260  -8.386  -1.325  0.00  0.00     0.010 A 
ATOM     27  C16 <0> d          -9.384  -9.014  -3.672  0.00  0.00     0.069 A 
ATOM     28  C17 <0> d          -8.710  -8.871  -4.889  0.00  0.00     0.037 A 
BRANCH  27  29
ATOM     29  O2  <0> d         -10.724  -9.238  -3.669  0.00  0.00    -0.356 OA
ATOM     30  C21 <0> d         -11.372  -9.313  -4.941  0.00  0.00     0.210 C 
ENDBRANCH  27  29
ENDBRANCH  18  19
ENDBRANCH   4  18
TORSDOF 6
