REMARK  2 active torsions:
REMARK  status: ('A' for Active; 'I' for Inactive)
REMARK    1  A    between atoms: N1_5  and  C5_7 
REMARK    2  A    between atoms: C12_18  and  C13_19 
ROOT
ATOM      1  C1  <0> d          -0.018   1.503   0.010  0.00  0.00     0.073 C 
ATOM      2  C2  <0> d           0.002  -0.004   0.002  0.00  0.00     0.063 A 
ATOM      3  C3  <0> d           0.008  -0.819  -1.151  0.00  0.00     0.033 A 
ATOM      4  C4  <0> d           0.026  -2.107  -0.746  0.00  0.00     0.143 A 
ATOM      5  N1  <0> d           0.034  -2.096   0.633  0.00  0.00    -0.198 N 
ATOM      6  N2  <0> d           0.023  -0.767   1.057  0.00  0.00    -0.169 NA
ATOM      7  N4  <0> d           0.032  -3.289  -1.446  0.00  0.00    -0.310 N 
ATOM      8  C10 <0> d           0.074  -3.610  -2.704  0.00  0.00     0.232 C 
ATOM      9  O1  <0> d           0.170  -4.799  -2.924  0.00  0.00    -0.272 OA
ATOM     10  C11 <0> d           0.023  -2.756  -3.910  0.00  0.00     0.178 C 
ATOM     11  S1  <0> d           0.927  -1.214  -3.717  0.00  0.00    -0.145 SA
ATOM     12  C12 <0> d          -0.004  -0.240  -2.531  0.00  0.00     0.126 C 
ATOM     13  H9  <0> d          -0.002  -4.065  -0.865  0.00  0.00     0.170 HD
ENDROOT
BRANCH   5  14
ATOM     14  C5  <0> d           0.055  -3.221   1.462  0.00  0.00     0.152 A 
ATOM     15  N3  <0> d          -0.417  -4.373   1.015  0.00  0.00    -0.241 NA
ATOM     16  C9  <0> d          -0.411  -5.460   1.762  0.00  0.00     0.119 A 
ATOM     17  C8  <0> d           0.082  -5.430   3.052  0.00  0.00     0.019 A 
ATOM     18  C7  <0> d           0.581  -4.239   3.561  0.00  0.00     0.005 A 
ATOM     19  C6  <0> d           0.566  -3.117   2.750  0.00  0.00     0.052 A 
ENDBRANCH   5  14
BRANCH  12  20
ATOM     20  C13 <0> d           0.583   1.147  -2.478  0.00  0.00     0.001 A 
ATOM     21  S2  <0> d           2.211   1.661  -1.955  0.00  0.00    -0.105 SA
ATOM     22  C16 <0> d           2.020   3.415  -2.223  0.00  0.00     0.050 A 
ATOM     23  C15 <0> d           0.746   3.492  -2.679  0.00  0.00     0.008 A 
ATOM     24  C14 <0> d           0.009   2.330  -2.810  0.00  0.00     0.016 A 
ENDBRANCH  12  20
TORSDOF 2
