REMARK  4 active torsions:
REMARK  status: ('A' for Active; 'I' for Inactive)
REMARK    1  A    between atoms: C7_9  and  C11_14 
REMARK    2  A    between atoms: C11_14  and  C12_16 
REMARK    3  A    between atoms: C12_16  and  C13_17 
REMARK    4  A    between atoms: C13_17  and  N2_18 
ROOT
ATOM      1  C1  <0> d          -0.019   1.526   0.010  0.00  0.00     0.047 C 
ATOM      2  C2  <0> d           0.002  -0.004   0.002  0.00  0.00     0.069 C 
ATOM      3  C3  <0> d           0.695  -0.492  -1.268  0.00  0.00     0.141 C 
ATOM      4  C4  <0> d           1.071  -1.944  -1.127  0.00  0.00     0.227 C 
ATOM      5  O1  <0> d           0.440  -2.797  -1.714  0.00  0.00    -0.273 OA
ATOM      6  N1  <0> d           2.116  -2.291  -0.344  0.00  0.00    -0.320 N 
ATOM      7  C5  <0> d           2.787  -1.300   0.386  0.00  0.00     0.071 A 
ATOM      8  C6  <0> d           4.165  -1.218   0.356  0.00  0.00     0.047 A 
ATOM      9  C7  <0> d           4.818  -0.224   1.095  0.00  0.00     0.012 A 
ATOM     10  C8  <0> d           4.070   0.680   1.859  0.00  0.00     0.018 A 
ATOM     11  C9  <0> d           2.696   0.593   1.882  0.00  0.00     0.040 A 
ATOM     12  C10 <0> d           2.047  -0.391   1.147  0.00  0.00     0.096 A 
ATOM     13  O2  <0> d           0.692  -0.471   1.158  0.00  0.00    -0.338 OA
ATOM     14  C14 <0> d           2.544  -3.690  -0.257  0.00  0.00     0.159 C 
ATOM     15  C15 <0> d          -1.435  -0.529   0.025  0.00  0.00     0.047 C 
ENDROOT
BRANCH   9  16
ATOM     16  C11 <0> d           6.283  -0.130   1.068  0.00  0.00     0.161 C 
ATOM     17  O3  <0> d           6.929  -0.913   0.405  0.00  0.00    -0.292 OA
BRANCH  16  18
ATOM     18  C12 <0> d           6.984   0.941   1.864  0.00  0.00     0.111 C 
BRANCH  18  19
ATOM     19  C13 <0> d           8.496   0.819   1.663  0.00  0.00     0.237 C 
BRANCH  19  20
ATOM     20  N2  <0> d           9.179   1.863   2.439  0.00  0.00    -0.079 N 
ATOM     21  H13 <0> d           8.870   2.771   2.125  0.00  0.00     0.274 HD
ATOM     22  H14 <0> d           8.959   1.752   3.417  0.00  0.00     0.274 HD
ATOM     23  H21 <0> d          10.176   1.782   2.306  0.00  0.00     0.274 HD
ENDBRANCH  19  20
ENDBRANCH  18  19
ENDBRANCH  16  18
ENDBRANCH   9  16
TORSDOF 4
