REMARK  2 active torsions:
REMARK  status: ('A' for Active; 'I' for Inactive)
REMARK    1  A    between atoms: C5_5  and  C8_8 
REMARK    2  A    between atoms: C10_10  and  C13_17 
ROOT
ATOM      1  C8  <0> d           0.059  -4.275  -0.021  0.00  0.00     0.164 C 
ATOM      2  C9  <0> d          -1.178  -4.809   0.711  0.00  0.00     0.063 C 
ATOM      3  C10 <0> d          -1.029  -6.317   0.947  0.00  0.00     0.135 C 
ATOM      4  N1  <0> d           0.141  -6.544   1.817  0.00  0.00    -0.214 N 
ATOM      5  C11 <0> d           1.280  -5.807   1.519  0.00  0.00     0.721 A 
ATOM      6  N2  <0> d           1.260  -4.754   0.664  0.00  0.00    -0.089 N 
ATOM      7  N3  <0> d           2.565  -4.266   0.600  0.00  0.00    -0.149 NA
ATOM      8  C12 <0> d           3.289  -5.019   1.390  0.00  0.00     0.275 A 
ATOM      9  N4  <0> d           2.504  -5.952   1.950  0.00  0.00    -0.055 NA
ATOM     10  H12 <0> d           0.116  -7.172   2.556  0.00  0.00     0.178 HD
ENDROOT
BRANCH   1  11
ATOM     11  C5  <0> d           0.040  -2.768  -0.013  0.00  0.00    -0.033 A 
ATOM     12  C4  <0> d           0.025  -2.071  -1.206  0.00  0.00     0.010 A 
ATOM     13  C3  <0> d           0.006  -0.689  -1.199  0.00  0.00     0.007 A 
ATOM     14  C2  <0> d           0.002  -0.004   0.002  0.00  0.00    -0.062 A 
ATOM     15  C1  <0> d          -0.018   1.503   0.010  0.00  0.00     0.048 C 
ATOM     16  C7  <0> d           0.023  -0.702   1.195  0.00  0.00     0.007 A 
ATOM     17  C6  <0> d           0.037  -2.084   1.188  0.00  0.00     0.010 A 
ENDBRANCH   1  11
BRANCH   3  18
ATOM     18  C13 <0> d          -0.828  -7.018  -0.371  0.00  0.00    -0.035 A 
ATOM     19  C18 <0> d          -1.890  -7.654  -0.985  0.00  0.00     0.009 A 
ATOM     20  C17 <0> d          -1.707  -8.294  -2.197  0.00  0.00     0.001 A 
ATOM     21  C16 <0> d          -0.458  -8.305  -2.790  0.00  0.00     0.000 A 
ATOM     22  C15 <0> d           0.606  -7.673  -2.174  0.00  0.00     0.001 A 
ATOM     23  C14 <0> d           0.421  -7.030  -0.964  0.00  0.00     0.009 A 
ENDBRANCH   3  18
TORSDOF 2
