REMARK  7 active torsions:
REMARK  status: ('A' for Active; 'I' for Inactive)
REMARK    1  A    between atoms: C2_2  and  C3_3 
REMARK    2  A    between atoms: C2_2  and  N4_21 
REMARK    3  A    between atoms: C3_3  and  C4_4 
REMARK    4  A    between atoms: C3_3  and  N1_10 
REMARK    5  A    between atoms: N2_13  and  C12_16 
REMARK    6  A    between atoms: C12_16  and  C13_17 
REMARK    7  A    between atoms: C13_17  and  N3_18 
ROOT
ATOM      1  C3  <0> d           0.742  -0.511   1.242  0.00  0.00     0.292 C 
ENDROOT
BRANCH   1   2
ATOM      2  C2  <0> d           0.146  -0.075  -0.099  0.00  0.00     0.217 C 
ATOM      3  C1  <0> d           0.093   1.452  -0.161  0.00  0.00     0.042 C 
BRANCH   2   4
ATOM      4  N4  <0> d          -1.212  -0.619  -0.230  0.00  0.00    -0.073 N 
ATOM      5  H26 <0> d          -1.788  -0.271   0.522  0.00  0.00     0.274 HD
ATOM      6  H27 <0> d          -1.605  -0.331  -1.114  0.00  0.00     0.274 HD
ATOM      7  H29 <0> d          -1.177  -1.626  -0.189  0.00  0.00     0.274 HD
ENDBRANCH   2   4
ENDBRANCH   1   2
BRANCH   1   8
ATOM      8  C4  <0> d           0.794  -2.016   1.303  0.00  0.00     0.019 A 
ATOM      9  S1  <0> d           1.839  -3.142   0.393  0.00  0.00    -0.085 SA
ATOM     10  C7  <0> d           1.229  -4.669   1.089  0.00  0.00     0.051 A 
ATOM     11  C6  <0> d           0.279  -4.225   1.950  0.00  0.00     0.028 A 
ATOM     12 Br1  <0> d           1.764  -6.444   0.717  0.00  0.00    -0.043 Br
ATOM     13  C5  <0> d           0.057  -2.865   2.059  0.00  0.00     0.019 A 
ENDBRANCH   1   8
BRANCH   1  14
ATOM     14  N1  <0> d           2.101   0.032   1.373  0.00  0.00     0.103 N 
ATOM     15  C11 <0> d           2.741  -0.444   2.607  0.00  0.00     0.303 C 
ATOM     16  C10 <0> d           4.120   0.205   2.747  0.00  0.00     0.302 C 
ATOM     17  N2  <0> d           4.936  -0.128   1.571  0.00  0.00     0.093 N 
ATOM     18  C9  <0> d           4.296   0.348   0.337  0.00  0.00     0.302 C 
ATOM     19  C8  <0> d           2.917  -0.301   0.198  0.00  0.00     0.303 C 
BRANCH  17  20
ATOM     20  C12 <0> d           6.295   0.415   1.703  0.00  0.00     0.300 C 
BRANCH  20  21
ATOM     21  C13 <0> d           7.016  -0.289   2.854  0.00  0.00     0.264 C 
BRANCH  21  22
ATOM     22  N3  <0> d           8.375   0.254   2.986  0.00  0.00    -0.077 N 
ATOM     23  C14 <0> d           8.301   1.668   3.380  0.00  0.00     0.269 C 
ATOM     24  C15 <0> d           9.107  -0.502   4.011  0.00  0.00     0.269 C 
ATOM     25  H28 <0> d           8.855   0.176   2.102  0.00  0.00     0.279 HD
ENDBRANCH  21  22
ENDBRANCH  20  21
ENDBRANCH  17  20
ENDBRANCH   1  14
TORSDOF 7
