REMARK  7 active torsions:
REMARK  status: ('A' for Active; 'I' for Inactive)
REMARK    1  A    between atoms: C2_2  and  C3_3 
REMARK    2  A    between atoms: C2_2  and  N2_16 
REMARK    3  A    between atoms: C3_3  and  N1_4 
REMARK       I    between atoms: N1_4  and  C4_5 
REMARK    4  A    between atoms: C4_5  and  C5_7 
REMARK    5  A    between atoms: C8_10  and  C9_12 
REMARK    6  A    between atoms: C10_13  and  C11_14 
REMARK    7  A    between atoms: C11_14  and  O2_15 
ROOT
ATOM      1  N1  <0> d           0.500  -1.951   1.505  0.00  0.00    -0.354 N 
ATOM      2  C4  <0> d           0.921  -2.564   2.629  0.00  0.00     0.258 C 
ATOM      3  O1  <0> d           1.460  -1.919   3.509  0.00  0.00    -0.267 OA
ATOM      4  H7  <0> d           0.070  -2.465   0.804  0.00  0.00     0.162 HD
ENDROOT
BRANCH   1   5
ATOM      5  C3  <0> d           0.690  -0.507   1.343  0.00  0.00     0.155 C 
BRANCH   5   6
ATOM      6  C2  <0> d           0.012  -0.045   0.052  0.00  0.00     0.202 C 
ATOM      7  C1  <0> d           0.111   1.478  -0.059  0.00  0.00     0.042 C 
BRANCH   6   8
ATOM      8  N2  <0> d          -1.402  -0.444   0.072  0.00  0.00    -0.066 N 
ATOM      9  C16 <0> d          -2.099   0.283   1.140  0.00  0.00     0.235 C 
ATOM     10  C15 <0> d          -3.553  -0.188   1.218  0.00  0.00     0.028 C 
ATOM     11  C14 <0> d          -4.244   0.084  -0.121  0.00  0.00     0.003 C 
ATOM     12  C13 <0> d          -3.466  -0.618  -1.238  0.00  0.00     0.028 C 
ATOM     13  C12 <0> d          -2.015  -0.131  -1.225  0.00  0.00     0.235 C 
ATOM     14  H23 <0> d          -1.468  -1.436   0.242  0.00  0.00     0.280 HD
ENDBRANCH   6   8
ENDBRANCH   5   6
ENDBRANCH   1   5
BRANCH   2  15
ATOM     15  C5  <0> d           0.731  -4.007   2.791  0.00  0.00     0.073 A 
ATOM     16  S1  <0> d          -0.021  -5.173   1.666  0.00  0.00    -0.076 SA
ATOM     17  C8  <0> d           0.180  -6.646   2.654  0.00  0.00     0.059 A 
ATOM     18  C7  <0> d           0.805  -6.154   3.791  0.00  0.00     0.029 A 
ATOM     19  C6  <0> d           1.083  -4.819   3.860  0.00  0.00     0.026 A 
BRANCH  17  20
ATOM     20  C9  <0> d          -0.210  -7.991   2.352  0.00  0.00    -0.057 C 
ATOM     21  C10 <0> d          -0.529  -9.093   2.105  0.00  0.00    -0.075 C 
BRANCH  21  22
ATOM     22  C11 <0> d          -0.930 -10.476   1.795  0.00  0.00     0.258 C 
BRANCH  22  23
ATOM     23  O2  <0> d          -1.543 -10.516   0.505  0.00  0.00    -0.389 OA
ATOM     24  H12 <0> d          -1.833 -11.398   0.235  0.00  0.00     0.210 HD
ENDBRANCH  22  23
ENDBRANCH  21  22
ENDBRANCH  17  20
ENDBRANCH   2  15
TORSDOF 7
