REMARK  5 active torsions:
REMARK  status: ('A' for Active; 'I' for Inactive)
REMARK    1  A    between atoms: O1_2  and  C2_3 
REMARK    2  A    between atoms: C5_6  and  N1_9 
REMARK    3  A    between atoms: C9_11  and  C12_15 
REMARK       I    between atoms: C12_15  and  N2_17 
REMARK    4  A    between atoms: N2_17  and  C13_18 
REMARK    5  A    between atoms: N4_22  and  C16_23 
ROOT
ATOM      1  C12 <0> d           2.551   0.830   1.697  0.00  0.00     0.229 C 
ATOM      2  O3  <0> d           2.119  -0.006   2.463  0.00  0.00    -0.273 OA
ATOM      3  N2  <0> d           3.348   1.815   2.155  0.00  0.00    -0.311 N 
ATOM      4  H13 <0> d           3.628   2.529   1.560  0.00  0.00     0.170 HD
ENDROOT
BRANCH   3   5
ATOM      5  C13 <0> d           3.770   1.810   3.484  0.00  0.00     0.141 A 
ATOM      6  N4  <0> d           4.107   2.896   4.222  0.00  0.00    -0.217 N 
ATOM      7  N3  <0> d           4.470   2.450   5.494  0.00  0.00    -0.169 NA
ATOM      8  C15 <0> d           4.356   1.130   5.527  0.00  0.00     0.080 A 
ATOM      9  C14 <0> d           3.915   0.701   4.286  0.00  0.00     0.029 A 
ATOM     10  C22 <0> d           4.590   0.052   6.584  0.00  0.00     0.202 C 
ATOM     11  C23 <0> d           3.722  -0.804   4.107  0.00  0.00     0.185 C 
ATOM     12  S1  <0> d           4.628  -1.477   5.560  0.00  0.00     0.154 S 
ATOM     13  O4  <0> d           5.970  -1.761   5.188  0.00  0.00    -0.227 OA
ATOM     14  O5  <0> d           3.840  -2.481   6.183  0.00  0.00    -0.227 OA
BRANCH   6  15
ATOM     15  C16 <0> d           4.094   4.229   3.786  0.00  0.00     0.060 A 
ATOM     16  C21 <0> d           3.630   5.231   4.627  0.00  0.00     0.034 A 
ATOM     17  C20 <0> d           3.618   6.543   4.195  0.00  0.00     0.044 A 
ATOM     18  C19 <0> d           4.070   6.859   2.925  0.00  0.00     0.116 A 
ATOM     19  C18 <0> d           4.534   5.860   2.085  0.00  0.00     0.044 A 
ATOM     20  F1  <0> d           4.058   8.143   2.504  0.00  0.00    -0.206 F 
ATOM     21  C17 <0> d           4.551   4.548   2.514  0.00  0.00     0.034 A 
ENDBRANCH   6  15
ENDBRANCH   3   5
BRANCH   1  22
ATOM     22  C9  <0> d           2.195   0.767   0.234  0.00  0.00     0.105 C 
ATOM     23  C8  <0> d           1.276  -0.440  -0.060  0.00  0.00     0.146 C 
ATOM     24  N1  <0> d          -0.093   0.078   0.042  0.00  0.00    -0.317 N 
ATOM     25  C11 <0> d          -0.114   1.420  -0.022  0.00  0.00     0.225 C 
ATOM     26  C10 <0> d           1.293   1.956  -0.168  0.00  0.00     0.119 C 
ATOM     27  O2  <0> d          -1.116   2.103   0.026  0.00  0.00    -0.273 OA
BRANCH  24  28
ATOM     28  C5  <0> d          -1.233  -0.725   0.187  0.00  0.00     0.037 A 
ATOM     29  C4  <0> d          -1.121  -2.107   0.127  0.00  0.00     0.032 A 
ATOM     30  C3  <0> d          -2.244  -2.897   0.270  0.00  0.00     0.039 A 
ATOM     31  C2  <0> d          -3.484  -2.310   0.473  0.00  0.00     0.068 A 
ATOM     32  C7  <0> d          -3.597  -0.929   0.533  0.00  0.00     0.039 A 
ATOM     33  C6  <0> d          -2.474  -0.138   0.396  0.00  0.00     0.032 A 
BRANCH  31  34
ATOM     34  O1  <0> d          -4.590  -3.089   0.615  0.00  0.00    -0.356 OA
ATOM     35  C1  <0> d          -5.834  -2.417   0.821  0.00  0.00     0.210 C 
ENDBRANCH  31  34
ENDBRANCH  24  28
ENDBRANCH   1  22
TORSDOF 5
