REMARK  5 active torsions:
REMARK  status: ('A' for Active; 'I' for Inactive)
REMARK    1  A    between atoms: C5_5  and  S1_9 
REMARK    2  A    between atoms: S1_9  and  N1_12 
REMARK    3  A    between atoms: N1_12  and  C9_13 
REMARK    4  A    between atoms: C9_13  and  C10_14 
REMARK    5  A    between atoms: C13_17  and  N3_20 
ROOT
ATOM      1  C10 <0> d           3.768  -5.528   1.029  0.00  0.00    -0.024 A 
ATOM      2  C11 <0> d           3.810  -6.796   1.594  0.00  0.00     0.014 A 
ATOM      3  C12 <0> d           4.981  -7.524   1.494  0.00  0.00     0.049 A 
ATOM      4  C13 <0> d           6.072  -6.965   0.835  0.00  0.00     0.103 A 
ATOM      5  N2  <0> d           5.992  -5.752   0.310  0.00  0.00    -0.352 N 
ATOM      6  C14 <0> d           4.885  -5.037   0.385  0.00  0.00     0.098 A 
ATOM      7  H28 <0> d           6.764  -5.381  -0.145  0.00  0.00     0.166 HD
ENDROOT
BRANCH   1   8
ATOM      8  C9  <0> d           2.512  -4.698   1.114  0.00  0.00     0.172 C 
BRANCH   8   9
ATOM      9  N1  <0> d           1.662  -4.979  -0.046  0.00  0.00    -0.311 N 
ATOM     10  H12 <0> d           2.029  -5.441  -0.816  0.00  0.00     0.172 HD
BRANCH   9  11
ATOM     11  S1  <0> d           0.075  -4.508  -0.042  0.00  0.00     0.259 S 
ATOM     12  O1  <0> d          -0.477  -4.947   1.192  0.00  0.00    -0.201 OA
ATOM     13  O2  <0> d          -0.466  -4.893  -1.298  0.00  0.00    -0.201 OA
BRANCH  11  14
ATOM     14  C5  <0> d           0.054  -2.746  -0.004  0.00  0.00     0.080 A 
ATOM     15  C4  <0> d           0.051  -2.030  -1.187  0.00  0.00     0.026 A 
ATOM     16  C3  <0> d           0.034  -0.648  -1.157  0.00  0.00     0.009 A 
ATOM     17  C2  <0> d           0.020   0.018   0.054  0.00  0.00    -0.056 A 
ATOM     18  C1  <0> d           0.002   1.524   0.087  0.00  0.00     0.049 C 
ATOM     19  C7  <0> d           0.028  -0.699   1.236  0.00  0.00    -0.055 A 
ATOM     20  C6  <0> d           0.041  -2.081   1.207  0.00  0.00     0.032 A 
ATOM     21  C8  <0> d           0.019   0.027   2.557  0.00  0.00     0.049 C 
ENDBRANCH  11  14
ENDBRANCH   9  11
ENDBRANCH   8   9
ENDBRANCH   1   8
BRANCH   4  22
ATOM     22  N3  <0> d           7.255  -7.685   0.728  0.00  0.00    -0.362 N 
ATOM     23  C18 <0> d           7.421  -8.977   1.413  0.00  0.00     0.156 C 
ATOM     24  C17 <0> d           8.732  -8.948   2.198  0.00  0.00     0.136 C 
ATOM     25  O3  <0> d           9.795  -8.549   1.329  0.00  0.00    -0.378 OA
ATOM     26  C19 <0> d           9.026 -10.341   2.759  0.00  0.00     0.041 C 
ATOM     27  C16 <0> d           9.649  -7.232   0.792  0.00  0.00     0.136 C 
ATOM     28  C15 <0> d           8.383  -7.176  -0.070  0.00  0.00     0.156 C 
ATOM     29  C20 <0> d           9.534  -6.223   1.936  0.00  0.00     0.041 C 
ENDBRANCH   4  22
TORSDOF 5
