REMARK  9 active torsions:
REMARK  status: ('A' for Active; 'I' for Inactive)
REMARK    1  A    between atoms: C3_3  and  O1_8 
REMARK    2  A    between atoms: O1_8  and  C7_9 
REMARK    3  A    between atoms: C7_9  and  C8_10 
REMARK    4  A    between atoms: C8_10  and  C9_11 
REMARK    5  A    between atoms: C8_10  and  O2_21 
REMARK    6  A    between atoms: C9_11  and  N1_12 
REMARK    7  A    between atoms: N1_12  and  C10_13 
REMARK    8  A    between atoms: C10_13  and  C11_14 
REMARK    9  A    between atoms: C11_14  and  C12_15 
ROOT
ATOM      1  C8  <0> d           5.958   2.291  -0.043  0.00  0.00     0.168 C 
ENDROOT
BRANCH   1   2
ATOM      2  C7  <0> d           4.757   1.343  -0.037  0.00  0.00     0.209 C 
BRANCH   2   3
ATOM      3  O1  <0> d           3.548   2.105  -0.021  0.00  0.00    -0.349 OA
BRANCH   3   4
ATOM      4  C3  <0> d           2.381   1.410  -0.013  0.00  0.00     0.070 A 
ATOM      5  C2  <0> d           1.170   2.087   0.002  0.00  0.00     0.037 A 
ATOM      6  C1  <0> d          -0.017   1.378   0.010  0.00  0.00     0.004 A 
ATOM      7  C6  <0> d           0.002  -0.004   0.002  0.00  0.00     0.019 A 
ATOM      8  C5  <0> d           1.208  -0.682  -0.013  0.00  0.00     0.013 A 
ATOM      9  C4  <0> d           2.398   0.023  -0.021  0.00  0.00     0.055 A 
ATOM     10 Br1  <0> d           1.230  -2.573  -0.024  0.00  0.00    -0.051 Br
ENDBRANCH   3   4
ENDBRANCH   2   3
ENDBRANCH   1   2
BRANCH   1  11
ATOM     11  C9  <0> d           7.250   1.478   0.066  0.00  0.00     0.265 C 
BRANCH  11  12
ATOM     12  N1  <0> d           8.395   2.392   0.179  0.00  0.00    -0.072 N 
ATOM     13  H10 <0> d           8.436   2.982  -0.638  0.00  0.00     0.277 HD
ATOM     14  H25 <0> d           8.287   2.964   1.003  0.00  0.00     0.277 HD
BRANCH  12  15
ATOM     15  C10 <0> d           9.635   1.611   0.284  0.00  0.00     0.236 C 
BRANCH  15  16
ATOM     16  C11 <0> d          10.827   2.563   0.403  0.00  0.00     0.061 C 
BRANCH  16  17
ATOM     17  C12 <0> d          12.100   1.762   0.510  0.00  0.00    -0.082 C 
ATOM     18  C17 <0> d          12.513   1.277   1.869  0.00  0.00     0.034 C 
ATOM     19  C16 <0> d          13.548   0.156   1.733  0.00  0.00     0.005 C 
ATOM     20  C15 <0> d          14.648   0.629   0.774  0.00  0.00     0.004 C 
ATOM     21  C14 <0> d          14.047   0.753  -0.627  0.00  0.00     0.027 C 
ATOM     22  C13 <0> d          12.771   1.541  -0.575  0.00  0.00    -0.024 C 
ENDBRANCH  16  17
ENDBRANCH  15  16
ENDBRANCH  12  15
ENDBRANCH  11  12
ENDBRANCH   1  11
BRANCH   1  23
ATOM     23  O2  <0> d           5.967   3.039  -1.261  0.00  0.00    -0.392 OA
ATOM     24  H24 <0> d           6.029   2.494  -2.057  0.00  0.00     0.210 HD
ENDBRANCH   1  23
TORSDOF 9
