REMARK  5 active torsions:
REMARK  status: ('A' for Active; 'I' for Inactive)
REMARK    1  A    between atoms: C2_2  and  N1_3 
REMARK    2  A    between atoms: C4_5  and  C7_9 
REMARK    3  A    between atoms: C7_9  and  N3_10 
REMARK       I    between atoms: N3_10  and  C8_11 
REMARK       I    between atoms: C8_11  and  N4_13 
REMARK    4  A    between atoms: N4_13  and  C9_14 
REMARK    5  A    between atoms: C9_14  and  C10_15 
ROOT
ATOM      1  N3  <0> d           1.041  -0.371  -5.540  0.00  0.00    -0.339 N 
ATOM      2  C8  <0> d           0.911  -0.489  -6.877  0.00  0.00     0.316 C 
ATOM      3  O1  <0> d           0.667  -1.574  -7.370  0.00  0.00    -0.247 OA
ATOM      4  N4  <0> d           1.051   0.594  -7.666  0.00  0.00    -0.339 N 
ATOM      5  H11 <0> d           1.236   0.493  -5.147  0.00  0.00     0.164 HD
ATOM      6  H12 <0> d           1.245   1.459  -7.272  0.00  0.00     0.164 HD
ENDROOT
BRANCH   1   7
ATOM      7  C7  <0> d           0.889  -1.549  -4.683  0.00  0.00     0.167 C 
BRANCH   7   8
ATOM      8  C4  <0> d           1.081  -1.150  -3.242  0.00  0.00     0.009 A 
ATOM      9  C3  <0> d           0.110  -0.737  -2.395  0.00  0.00     0.036 A 
ATOM     10  N1  <0> d           0.688  -0.476  -1.203  0.00  0.00    -0.274 N 
ATOM     11  C18 <0> d          -1.354  -0.595  -2.722  0.00  0.00     0.070 C 
ATOM     12  N2  <0> d           2.060  -0.732  -1.324  0.00  0.00    -0.177 NA
ATOM     13  C5  <0> d           2.293  -1.141  -2.545  0.00  0.00     0.061 A 
ATOM     14  C6  <0> d           3.638  -1.529  -3.105  0.00  0.00     0.073 C 
BRANCH  10  15
ATOM     15  C2  <0> d           0.002  -0.004   0.002  0.00  0.00     0.146 C 
ATOM     16  C1  <0> d          -0.019   1.526   0.010  0.00  0.00     0.028 C 
ENDBRANCH  10  15
ENDBRANCH   7   8
ENDBRANCH   1   7
BRANCH   4  17
ATOM     17  C9  <0> d           0.909   0.466  -9.118  0.00  0.00     0.164 C 
BRANCH  17  18
ATOM     18  C10 <0> d           1.111   1.813  -9.764  0.00  0.00    -0.022 A 
ATOM     19  C13 <0> d           2.453   2.331  -9.980  0.00  0.00    -0.011 A 
ATOM     20  C12 <0> d           2.502   3.600 -10.597  0.00  0.00     0.015 A 
ATOM     21  C14 <0> d           3.695   1.734  -9.661  0.00  0.00     0.013 A 
ATOM     22  S1  <0> d           0.793   4.016 -10.831  0.00  0.00    -0.101 SA
ATOM     23  C17 <0> d           3.693   4.233 -10.877  0.00  0.00     0.019 A 
ATOM     24  C11 <0> d           0.054   2.548 -10.139  0.00  0.00     0.060 A 
ATOM     25  C16 <0> d           4.884   3.621 -10.541  0.00  0.00     0.001 A 
ATOM     26  C15 <0> d           4.864   2.370  -9.939  0.00  0.00     0.001 A 
ENDBRANCH  17  18
ENDBRANCH   4  17
TORSDOF 5
