REMARK  5 active torsions:
REMARK  status: ('A' for Active; 'I' for Inactive)
REMARK    1  A    between atoms: C5_5  and  O1_12 
REMARK    2  A    between atoms: C6_6  and  C8_8 
REMARK    3  A    between atoms: C8_8  and  N1_10 
REMARK    4  A    between atoms: O1_12  and  C11_13 
REMARK    5  A    between atoms: C11_13  and  C13_15 
REMARK       I    between atoms: C13_15  and  N2_17 
REMARK       I    between atoms: N2_17  and  C14_18 
REMARK       I    between atoms: C14_18  and  N3_20 
ROOT
ATOM      1  C1  <0> d          -0.020   1.503   0.011  0.00  0.00     0.048 C 
ATOM      2  C2  <0> d           0.001  -0.004   0.002  0.00  0.00    -0.061 A 
ATOM      3  C3  <0> d          -0.213  -0.691  -1.179  0.00  0.00     0.009 A 
ATOM      4  C4  <0> d          -0.195  -2.072  -1.189  0.00  0.00     0.038 A 
ATOM      5  C5  <0> d           0.039  -2.770  -0.013  0.00  0.00     0.078 A 
ATOM      6  C6  <0> d           0.254  -2.079   1.170  0.00  0.00     0.006 A 
ATOM      7  C7  <0> d           0.240  -0.698   1.174  0.00  0.00     0.018 A 
ENDROOT
BRANCH   5   8
ATOM      8  O1  <0> d           0.057  -4.129  -0.021  0.00  0.00    -0.336 OA
BRANCH   8   9
ATOM      9  C11 <0> d          -0.052  -4.772  -1.292  0.00  0.00     0.217 C 
ATOM     10  C12 <0> d          -1.529  -4.909  -1.669  0.00  0.00     0.050 C 
BRANCH   9  11
ATOM     11  C13 <0> d           0.576  -6.140  -1.219  0.00  0.00     0.254 C 
ATOM     12  O2  <0> d           0.987  -6.562  -0.159  0.00  0.00    -0.270 OA
ATOM     13  N2  <0> d           0.681  -6.894  -2.331  0.00  0.00    -0.277 N 
ATOM     14  C14 <0> d           1.242  -8.117  -2.265  0.00  0.00     0.322 C 
ATOM     15  H19 <0> d           0.352  -6.556  -3.179  0.00  0.00     0.173 HD
ATOM     16  O3  <0> d           1.655  -8.541  -1.203  0.00  0.00    -0.247 OA
ATOM     17  N3  <0> d           1.347  -8.871  -3.377  0.00  0.00    -0.347 N 
ATOM     18  C15 <0> d           1.958 -10.201  -3.306  0.00  0.00     0.151 C 
ATOM     19  H20 <0> d           1.018  -8.534  -4.225  0.00  0.00     0.163 HD
ENDBRANCH   9  11
ENDBRANCH   8   9
ENDBRANCH   5   8
BRANCH   6  20
ATOM     20  C8  <0> d           0.509  -2.834   2.449  0.00  0.00     0.217 C 
ATOM     21  C9  <0> d          -0.821  -3.327   3.024  0.00  0.00     0.045 C 
BRANCH  20  22
ATOM     22  N1  <0> d           1.163  -1.947   3.420  0.00  0.00    -0.071 N 
ATOM     23  C10 <0> d           1.519  -2.714   4.621  0.00  0.00     0.267 C 
ATOM     24  H12 <0> d           1.999  -1.558   3.010  0.00  0.00     0.277 HD
ATOM     25  H24 <0> d           0.533  -1.201   3.672  0.00  0.00     0.277 HD
ENDBRANCH  20  22
ENDBRANCH   6  20
TORSDOF 5
