REMARK  3 active torsions:
REMARK  status: ('A' for Active; 'I' for Inactive)
REMARK    1  A    between atoms: C5_6  and  N1_10 
REMARK    2  A    between atoms: N1_10  and  C9_11 
REMARK    3  A    between atoms: C9_11  and  C10_12 
ROOT
ATOM      1  N1  <0> d          -2.187  -0.486  -0.943  0.00  0.00    -0.063 N 
ATOM      2  H10 <0> d          -2.524   0.460  -0.838  0.00  0.00     0.278 HD
ATOM      3  H16 <0> d          -1.690  -0.570  -1.816  0.00  0.00     0.278 HD
ENDROOT
BRANCH   1   4
ATOM      4  C5  <0> d          -1.284  -0.810   0.169  0.00  0.00     0.221 C 
ATOM      5  C4  <0> d          -0.189   0.222   0.251  0.00  0.00     0.004 A 
ATOM      6  C1  <0> d          -0.301   1.620   0.147  0.00  0.00     0.036 A 
ATOM      7  C3  <0> d           1.116  -0.060   0.444  0.00  0.00     0.061 A 
ATOM      8  C2  <0> d           0.945   2.118   0.281  0.00  0.00     0.142 A 
ATOM      9  O1  <0> d           1.796   1.092   0.459  0.00  0.00    -0.326 OA
ATOM     10  C8  <0> d           1.659  -1.458   0.610  0.00  0.00     0.066 C 
ATOM     11  C7  <0> d           0.492  -2.396   0.939  0.00  0.00     0.009 C 
ATOM     12  C6  <0> d          -0.639  -2.181  -0.071  0.00  0.00     0.038 C 
ENDBRANCH   1   4
BRANCH   1  13
ATOM     13  C9  <0> d          -3.325  -1.414  -0.935  0.00  0.00     0.274 C 
BRANCH  13  14
ATOM     14  C10 <0> d          -4.316  -1.004  -1.994  0.00  0.00     0.002 A 
ATOM     15  C13 <0> d          -4.223  -1.502  -3.284  0.00  0.00     0.128 A 
ATOM     16  N3  <0> d          -5.114  -1.123  -4.186  0.00  0.00    -0.254 NA
ATOM     17  C12 <0> d          -6.073  -0.275  -3.874  0.00  0.00     0.232 A 
ATOM     18  N2  <0> d          -6.189   0.223  -2.659  0.00  0.00    -0.254 NA
ATOM     19  C11 <0> d          -5.338  -0.114  -1.704  0.00  0.00     0.128 A 
ENDBRANCH  13  14
ENDBRANCH   1  13
TORSDOF 3
