REMARK  4 active torsions:
REMARK  status: ('A' for Active; 'I' for Inactive)
REMARK    1  A    between atoms: C11_11  and  C12_13 
REMARK    2  A    between atoms: C12_13  and  C13_14 
REMARK    3  A    between atoms: C13_14  and  C14_15 
REMARK    4  A    between atoms: N2_20  and  C17_23 
ROOT
ATOM      1  C1  <0> d          -0.018   1.503   0.010  0.00  0.00     0.048 C 
ATOM      2  C2  <0> d           0.002  -0.004   0.002  0.00  0.00    -0.061 A 
ATOM      3  C3  <0> d           0.006  -0.691  -1.199  0.00  0.00     0.009 A 
ATOM      4  C4  <0> d           0.025  -2.070  -1.212  0.00  0.00     0.031 A 
ATOM      5  C5  <0> d           0.042  -2.782  -0.015  0.00  0.00     0.044 A 
ATOM      6  C6  <0> d           0.035  -2.081   1.187  0.00  0.00     0.018 A 
ATOM      7  C7  <0> d           0.023  -0.704   1.195  0.00  0.00     0.019 A 
ATOM      8  C8  <0> d           0.049  -3.122   2.270  0.00  0.00     0.279 A 
ATOM      9  C9  <0> d           1.267  -2.968   3.188  0.00  0.00     0.147 A 
ATOM     10  C10 <0> d           0.745  -3.357   4.599  0.00  0.00     0.128 A 
ATOM     11  C11 <0> d          -0.743  -3.709   4.388  0.00  0.00     0.237 C 
ATOM     12  N1  <0> d          -1.134  -3.008   3.143  0.00  0.00     0.113 N 
ATOM     13  C15 <0> d           1.525  -4.610   4.926  0.00  0.00     0.234 A 
ATOM     14  O3  <0> d           1.424  -5.251   5.950  0.00  0.00    -0.272 OA
ATOM     15  N2  <0> d           2.342  -4.903   3.908  0.00  0.00    -0.283 N 
ATOM     16  C16 <0> d           2.286  -4.038   2.870  0.00  0.00     0.235 A 
ATOM     17  O4  <0> d           2.938  -4.104   1.850  0.00  0.00    -0.272 OA
ATOM     18  C23 <0> d           0.069  -4.440   1.545  0.00  0.00     0.267 A 
ATOM     19  O5  <0> d           0.087  -5.543   2.048  0.00  0.00    -0.270 OA
ATOM     20  N3  <0> d           0.064  -4.157   0.228  0.00  0.00    -0.324 N 
ATOM     21  H10 <0> d          -1.349  -2.042   3.337  0.00  0.00     0.318 HD
ATOM     22  H26 <0> d           0.074  -4.830  -0.470  0.00  0.00     0.169 HD
ENDROOT
BRANCH  11  23
ATOM     23  C12 <0> d          -1.579  -3.229   5.576  0.00  0.00     0.047 C 
BRANCH  23  24
ATOM     24  C13 <0> d          -3.025  -3.697   5.405  0.00  0.00     0.115 C 
BRANCH  24  25
ATOM     25  C14 <0> d          -3.848  -3.223   6.575  0.00  0.00     0.172 C 
ATOM     26  O1  <0> d          -3.326  -2.572   7.464  0.00  0.00    -0.648 OA
ATOM     27  O2  <0> d          -5.036  -3.492   6.633  0.00  0.00    -0.648 OA
ENDBRANCH  24  25
ENDBRANCH  23  24
ENDBRANCH  11  23
BRANCH  15  28
ATOM     28  C17 <0> d           3.234  -6.066   3.917  0.00  0.00     0.096 C 
ATOM     29  C22 <0> d           4.201  -5.957   5.098  0.00  0.00     0.026 C 
ATOM     30  C21 <0> d           5.132  -7.171   5.108  0.00  0.00     0.002 C 
ATOM     31  C20 <0> d           4.302  -8.449   5.244  0.00  0.00     0.000 C 
ATOM     32  C19 <0> d           3.335  -8.558   4.063  0.00  0.00     0.002 C 
ATOM     33  C18 <0> d           2.404  -7.344   4.053  0.00  0.00     0.026 C 
ENDBRANCH  15  28
TORSDOF 4
