REMARK  4 active torsions:
REMARK  status: ('A' for Active; 'I' for Inactive)
REMARK    1  A    between atoms: C2_2  and  N1_3 
REMARK    2  A    between atoms: C4_5  and  C6_8 
REMARK    3  A    between atoms: C6_8  and  N3_10 
REMARK    4  A    between atoms: N3_10  and  C8_11 
ROOT
ATOM      1  N3  <0> d          -4.982  -3.211  -0.245  0.00  0.00     0.098 N 
ATOM      2  H13 <0> d          -4.455  -3.382   0.598  0.00  0.00     0.317 HD
ENDROOT
BRANCH   1   3
ATOM      3  C6  <0> d          -4.174  -2.485  -1.233  0.00  0.00     0.253 C 
ATOM      4  C7  <0> d          -5.091  -1.636  -2.117  0.00  0.00     0.048 C 
BRANCH   3   5
ATOM      5  C4  <0> d          -3.194  -1.589  -0.520  0.00  0.00     0.011 A 
ATOM      6  C3  <0> d          -1.907  -1.373  -0.878  0.00  0.00     0.123 A 
ATOM      7  N1  <0> d          -1.372  -0.511   0.012  0.00  0.00    -0.281 N 
ATOM      8  N2  <0> d          -2.361  -0.192   0.952  0.00  0.00    -0.185 NA
ATOM      9  C5  <0> d          -3.455  -0.834   0.628  0.00  0.00     0.149 A 
BRANCH   7  10
ATOM     10  C2  <0> d           0.002  -0.004   0.002  0.00  0.00     0.146 C 
ATOM     11  C1  <0> d          -0.019   1.526   0.010  0.00  0.00     0.028 C 
ENDBRANCH   7  10
ENDBRANCH   3   5
ENDBRANCH   1   3
BRANCH   1  12
ATOM     12  C8  <0> d          -5.498  -4.467  -0.807  0.00  0.00     0.247 C 
ATOM     13  C12 <0> d          -6.769  -4.877  -0.061  0.00  0.00     0.269 C 
ATOM     14  N4  <0> d          -7.284  -6.133  -0.619  0.00  0.00    -0.073 N 
ATOM     15  C11 <0> d          -6.308  -7.209  -0.411  0.00  0.00     0.234 C 
ATOM     16  C13 <0> d          -8.545  -6.483   0.049  0.00  0.00     0.269 C 
ATOM     17  H25 <0> d          -7.450  -6.018  -1.607  0.00  0.00     0.279 HD
ATOM     18  C10 <0> d          -5.019  -6.888  -1.171  0.00  0.00     0.030 C 
ATOM     19  C9  <0> d          -4.443  -5.567  -0.654  0.00  0.00     0.039 C 
ENDBRANCH   1  12
TORSDOF 4
