REMARK  7 active torsions:
REMARK  status: ('A' for Active; 'I' for Inactive)
REMARK    1  A    between atoms: N1_2  and  C2_3 
REMARK    2  A    between atoms: N1_2  and  S1_7 
REMARK    3  A    between atoms: C2_3  and  C3_4 
REMARK    4  A    between atoms: C3_4  and  C4_5 
REMARK    5  A    between atoms: C4_5  and  N2_6 
REMARK    6  A    between atoms: S1_7  and  N3_10 
REMARK    7  A    between atoms: N3_10  and  C5_11 
ROOT
ATOM      1  S1  <0> d          -0.000  -0.824  -1.437  0.00  0.00     0.342 S 
ATOM      2  O1  <0> d          -0.531  -2.115  -1.167  0.00  0.00    -0.180 OA
ATOM      3  O2  <0> d          -0.572   0.049  -2.401  0.00  0.00    -0.180 OA
ENDROOT
BRANCH   1   4
ATOM      4  N1  <0> d           0.002  -0.004   0.002  0.00  0.00    -0.297 N 
ATOM      5  C1  <0> d          -0.018   1.461   0.010  0.00  0.00     0.164 C 
BRANCH   4   6
ATOM      6  C2  <0> d           0.024  -0.743   1.267  0.00  0.00     0.138 C 
BRANCH   6   7
ATOM      7  C3  <0> d          -1.406  -0.912   1.784  0.00  0.00     0.048 C 
BRANCH   7   8
ATOM      8  C4  <0> d          -1.383  -1.684   3.105  0.00  0.00     0.231 C 
BRANCH   8   9
ATOM      9  N2  <0> d          -2.756  -1.845   3.601  0.00  0.00    -0.079 N 
ATOM     10  H10 <0> d          -3.169  -0.937   3.750  0.00  0.00     0.274 HD
ATOM     11  H11 <0> d          -3.301  -2.356   2.923  0.00  0.00     0.274 HD
ATOM     12  H15 <0> d          -2.741  -2.354   4.472  0.00  0.00     0.274 HD
ENDBRANCH   8   9
ENDBRANCH   7   8
ENDBRANCH   6   7
ENDBRANCH   4   6
ENDBRANCH   1   4
BRANCH   1  13
ATOM     13  N3  <0> d           1.581  -1.045  -1.877  0.00  0.00    -0.143 NA
BRANCH  13  14
ATOM     14  C5  <0> d           1.888  -1.716  -3.064  0.00  0.00     0.113 A 
ATOM     15  C10 <0> d           3.215  -1.903  -3.436  0.00  0.00     0.184 A 
ATOM     16  C9  <0> d           3.515  -2.573  -4.610  0.00  0.00     0.157 A 
ATOM     17  F1  <0> d           4.210  -1.436  -2.649  0.00  0.00    -0.200 F 
ATOM     18  C8  <0> d           2.495  -3.045  -5.418  0.00  0.00     0.046 A 
ATOM     19  F2  <0> d           4.804  -2.760  -4.970  0.00  0.00    -0.203 F 
ATOM     20  C7  <0> d           1.175  -2.856  -5.052  0.00  0.00     0.006 A 
ATOM     21  C6  <0> d           0.869  -2.193  -3.878  0.00  0.00     0.036 A 
ENDBRANCH  13  14
ENDBRANCH   1  13
TORSDOF 7
