REMARK  4 active torsions:
REMARK  status: ('A' for Active; 'I' for Inactive)
REMARK    1  A    between atoms: C2_2  and  N1_4 
REMARK    2  A    between atoms: N1_4  and  S1_5 
REMARK    3  A    between atoms: S1_5  and  C4_8 
REMARK    4  A    between atoms: C7_11  and  N2_14 
ROOT
ATOM      1  C4  <0> d          -1.137  -2.294   2.137  0.00  0.00     0.079 A 
ATOM      2  C5  <0> d          -2.404  -2.105   1.616  0.00  0.00     0.027 A 
ATOM      3  C6  <0> d          -3.189  -3.194   1.292  0.00  0.00     0.031 A 
ATOM      4  C7  <0> d          -2.705  -4.480   1.490  0.00  0.00     0.037 A 
ATOM      5  C8  <0> d          -1.433  -4.667   2.013  0.00  0.00     0.031 A 
ATOM      6  C9  <0> d          -0.651  -3.574   2.331  0.00  0.00     0.027 A 
ENDROOT
BRANCH   4   7
ATOM      7  N2  <0> d          -3.499  -5.585   1.163  0.00  0.00    -0.312 N 
ATOM      8  C15 <0> d          -4.807  -5.546   0.756  0.00  0.00     0.225 C 
ATOM      9  C14 <0> d          -5.247  -6.959   0.345  0.00  0.00     0.111 C 
ATOM     10  O5  <0> d          -5.504  -4.555   0.723  0.00  0.00    -0.273 OA
ATOM     11  C13 <0> d          -3.899  -7.607   0.035  0.00  0.00     0.032 C 
ATOM     12  C10 <0> d          -3.089  -6.957   1.202  0.00  0.00     0.112 C 
ATOM     13  C12 <0> d          -3.754  -9.120   0.185  0.00  0.00     0.147 C 
ATOM     14  C11 <0> d          -1.656  -7.437   1.038  0.00  0.00     0.166 C 
ATOM     15  S2  <0> d          -2.003  -9.241   0.773  0.00  0.00     0.146 S 
ATOM     16  O3  <0> d          -1.189  -9.719  -0.289  0.00  0.00    -0.228 OA
ATOM     17  O4  <0> d          -1.979  -9.907   2.028  0.00  0.00    -0.228 OA
ENDBRANCH   4   7
BRANCH   1  18
ATOM     18  S1  <0> d          -0.139  -0.902   2.549  0.00  0.00     0.259 S 
ATOM     19  O1  <0> d           0.796  -1.347   3.523  0.00  0.00    -0.201 OA
ATOM     20  O2  <0> d          -1.028   0.180   2.786  0.00  0.00    -0.201 OA
BRANCH  18  21
ATOM     21  N1  <0> d           0.735  -0.510   1.198  0.00  0.00    -0.311 N 
ATOM     22  H10 <0> d           1.702  -0.594   1.205  0.00  0.00     0.172 HD
BRANCH  21  23
ATOM     23  C2  <0> d           0.049  -0.035  -0.006  0.00  0.00     0.085 C 
ATOM     24  C1  <0> d           0.036   1.494  -0.016  0.00  0.00     0.032 C 
ATOM     25  C3  <0> d           0.784  -0.548  -1.246  0.00  0.00     0.032 C 
ENDBRANCH  21  23
ENDBRANCH  18  21
ENDBRANCH   1  18
TORSDOF 4
