REMARK  5 active torsions:
REMARK  status: ('A' for Active; 'I' for Inactive)
REMARK    1  A    between atoms: C2_2  and  O1_3 
REMARK    2  A    between atoms: O1_3  and  C3_4 
REMARK    3  A    between atoms: N1_8  and  C8_10 
REMARK    4  A    between atoms: C8_10  and  C9_11 
REMARK    5  A    between atoms: C12_15  and  N3_17 
ROOT
ATOM      1  C3  <0> d           0.746  -1.888  -1.280  0.00  0.00     0.147 C 
ATOM      2  C4  <0> d          -0.483  -2.410  -2.030  0.00  0.00     0.035 C 
ATOM      3  C5  <0> d          -0.355  -3.926  -2.206  0.00  0.00     0.030 C 
ATOM      4  C6  <0> d           0.950  -4.240  -2.942  0.00  0.00     0.235 C 
ATOM      5  N1  <0> d           2.088  -3.739  -2.162  0.00  0.00    -0.065 N 
ATOM      6  C7  <0> d           2.010  -2.277  -2.049  0.00  0.00     0.267 C 
ATOM      7  H22 <0> d           2.068  -4.148  -1.240  0.00  0.00     0.280 HD
ENDROOT
BRANCH   5   8
ATOM      8  C8  <0> d           3.341  -4.110  -2.833  0.00  0.00     0.273 C 
BRANCH   8   9
ATOM      9  C9  <0> d           3.485  -5.611  -2.832  0.00  0.00    -0.028 A 
ATOM     10  C13 <0> d           2.979  -6.370  -3.871  0.00  0.00     0.058 A 
ATOM     11  C12 <0> d           3.136  -7.752  -3.837  0.00  0.00     0.121 A 
ATOM     12  N2  <0> d           3.752  -8.336  -2.821  0.00  0.00    -0.244 NA
ATOM     13  C11 <0> d           4.239  -7.637  -1.813  0.00  0.00     0.119 A 
ATOM     14  C10 <0> d           4.124  -6.261  -1.785  0.00  0.00     0.028 A 
BRANCH  11  15
ATOM     15  N3  <0> d           2.638  -8.528  -4.878  0.00  0.00    -0.384 N 
ATOM     16  H20 <0> d           2.741  -9.492  -4.857  0.00  0.00     0.157 HD
ATOM     17  H21 <0> d           2.186  -8.105  -5.625  0.00  0.00     0.157 HD
ENDBRANCH  11  15
ENDBRANCH   8   9
ENDBRANCH   5   8
BRANCH   1  18
ATOM     18  O1  <0> d           0.671  -0.465  -1.174  0.00  0.00    -0.385 OA
BRANCH  18  19
ATOM     19  C2  <0> d           0.002  -0.004   0.002  0.00  0.00     0.163 C 
ATOM     20  C1  <0> d          -0.019   1.526   0.010  0.00  0.00     0.033 C 
ENDBRANCH  18  19
ENDBRANCH   1  18
TORSDOF 5
