REMARK  6 active torsions:
REMARK  status: ('A' for Active; 'I' for Inactive)
REMARK    1  A    between atoms: C5_6  and  C6_7 
REMARK    2  A    between atoms: C7_10  and  C8_12 
REMARK    3  A    between atoms: C8_12  and  N3_13 
REMARK    4  A    between atoms: C11_16  and  C14_19 
REMARK    5  A    between atoms: C14_19  and  C15_20 
REMARK    6  A    between atoms: C14_19  and  O3_27 
ROOT
ATOM      1  N3  <0> d          -1.298  -0.980   6.581  0.00  0.00    -0.064 N 
ATOM      2  C9  <0> d          -1.944  -2.076   5.849  0.00  0.00     0.236 C 
ATOM      3  C10 <0> d          -3.403  -2.200   6.292  0.00  0.00     0.035 C 
ATOM      4  C11 <0> d          -3.451  -2.490   7.795  0.00  0.00     0.022 C 
ATOM      5  C12 <0> d          -2.711  -1.378   8.543  0.00  0.00     0.035 C 
ATOM      6  C13 <0> d          -1.277  -1.284   8.017  0.00  0.00     0.236 C 
ATOM      7  H23 <0> d          -1.813  -0.126   6.426  0.00  0.00     0.280 HD
ENDROOT
BRANCH   1   8
ATOM      8  C8  <0> d           0.079  -0.814   6.096  0.00  0.00     0.322 C 
BRANCH   8   9
ATOM      9  C7  <0> d           0.055  -0.381   4.653  0.00  0.00     0.195 A 
ATOM     10  N2  <0> d           0.028   0.848   4.218  0.00  0.00    -0.125 NA
ATOM     11  N1  <0> d           0.014   0.850   2.932  0.00  0.00    -0.119 NA
ATOM     12  C6  <0> d           0.032  -0.391   2.497  0.00  0.00     0.227 A 
ATOM     13  O2  <0> d           0.053  -1.194   3.581  0.00  0.00    -0.270 OA
BRANCH  12  14
ATOM     14  C5  <0> d           0.024  -0.823   1.091  0.00  0.00     0.135 A 
ATOM     15  C2  <0> d           0.002  -0.004   0.002  0.00  0.00    -0.022 A 
ATOM     16  C1  <0> d          -0.018   1.503   0.010  0.00  0.00     0.051 C 
ATOM     17  C3  <0> d           0.009  -0.838  -1.132  0.00  0.00     0.034 A 
ATOM     18  C4  <0> d           0.028  -2.111  -0.687  0.00  0.00     0.143 A 
ATOM     19  O1  <0> d           0.033  -2.099   0.655  0.00  0.00    -0.318 OA
ENDBRANCH  12  14
ENDBRANCH   8   9
ENDBRANCH   1   8
BRANCH   4  20
ATOM     20  C14 <0> d          -4.908  -2.537   8.261  0.00  0.00     0.155 C 
BRANCH  20  21
ATOM     21  C15 <0> d          -4.954  -2.821   9.740  0.00  0.00    -0.029 A 
ATOM     22  C20 <0> d          -5.114  -4.119  10.189  0.00  0.00     0.011 A 
ATOM     23  C19 <0> d          -5.150  -4.381  11.545  0.00  0.00     0.024 A 
ATOM     24  C18 <0> d          -5.038  -3.344  12.454  0.00  0.00     0.034 A 
ATOM     25  C17 <0> d          -4.884  -2.045  12.004  0.00  0.00     0.024 A 
ATOM     26 Cl1  <0> d          -5.090  -3.672  14.158  0.00  0.00    -0.084 Cl
ATOM     27  C16 <0> d          -4.842  -1.784  10.647  0.00  0.00     0.011 A 
ENDBRANCH  20  21
BRANCH  20  28
ATOM     28  O3  <0> d          -5.533  -1.278   7.998  0.00  0.00    -0.391 OA
ATOM     29  H22 <0> d          -5.114  -0.530   8.446  0.00  0.00     0.210 HD
ENDBRANCH  20  28
ENDBRANCH   4  20
TORSDOF 6
