REMARK  5 active torsions:
REMARK  status: ('A' for Active; 'I' for Inactive)
REMARK    1  A    between atoms: C3_3  and  N1_13 
REMARK    2  A    between atoms: C4_4  and  O2_12 
REMARK    3  A    between atoms: C15_18  and  C16_19 
REMARK    4  A    between atoms: C16_19  and  C17_20 
REMARK    5  A    between atoms: C17_20  and  O3_21 
ROOT
ATOM      1  C1  <0> d           0.228   1.784   0.060  0.00  0.00     0.048 C 
ATOM      2  C2  <0> d           0.153   0.256   0.096  0.00  0.00     0.092 C 
ATOM      3  C3  <0> d           0.687  -0.318  -1.222  0.00  0.00     0.255 C 
ATOM      4  C4  <0> d           0.496  -1.837  -1.197  0.00  0.00     0.188 C 
ATOM      5  C5  <0> d           1.005  -2.391   0.109  0.00  0.00     0.006 A 
ATOM      6  C6  <0> d           1.276  -3.746   0.198  0.00  0.00     0.012 A 
ATOM      7  C7  <0> d           1.739  -4.289   1.380  0.00  0.00     0.001 A 
ATOM      8  C8  <0> d           1.935  -3.477   2.483  0.00  0.00     0.003 A 
ATOM      9  C9  <0> d           1.668  -2.126   2.400  0.00  0.00     0.037 A 
ATOM     10  C10 <0> d           1.203  -1.576   1.210  0.00  0.00     0.078 A 
ATOM     11  O1  <0> d           0.962  -0.240   1.164  0.00  0.00    -0.338 OA
ATOM     12  C18 <0> d          -1.297  -0.184   0.301  0.00  0.00     0.048 C 
ENDROOT
BRANCH   3  13
ATOM     13  N1  <0> d           2.115   0.000  -1.359  0.00  0.00    -0.057 N 
ATOM     14  C15 <0> d           2.569  -0.365  -2.706  0.00  0.00     0.191 C 
ATOM     15  C14 <0> d           4.035   0.039  -2.881  0.00  0.00     0.033 C 
ATOM     16  C13 <0> d           4.887  -0.690  -1.839  0.00  0.00     0.004 C 
ATOM     17  C12 <0> d           4.357  -0.360  -0.440  0.00  0.00     0.028 C 
ATOM     18  C11 <0> d           2.880  -0.749  -0.355  0.00  0.00     0.236 C 
ATOM     19  H28 <0> d           2.253   0.989  -1.215  0.00  0.00     0.281 HD
BRANCH  14  20
ATOM     20  C16 <0> d           1.713   0.361  -3.747  0.00  0.00     0.059 C 
BRANCH  20  21
ATOM     21  C17 <0> d           2.104  -0.112  -5.148  0.00  0.00     0.166 C 
BRANCH  21  22
ATOM     22  O3  <0> d           1.227   0.475  -6.111  0.00  0.00    -0.401 OA
ATOM     23  H24 <0> d           1.367   0.161  -7.014  0.00  0.00     0.209 HD
ENDBRANCH  21  22
ENDBRANCH  20  21
ENDBRANCH  14  20
ENDBRANCH   3  13
BRANCH   4  24
ATOM     24  O2  <0> d          -0.893  -2.143  -1.335  0.00  0.00    -0.389 OA
ATOM     25  H11 <0> d          -1.089  -3.090  -1.327  0.00  0.00     0.210 HD
ENDBRANCH   4  24
TORSDOF 5
