REMARK  5 active torsions:
REMARK  status: ('A' for Active; 'I' for Inactive)
REMARK    1  A    between atoms: C14_14  and  N2_26 
REMARK    2  A    between atoms: N1_19  and  C19_22 
REMARK    3  A    between atoms: C19_22  and  C20_23 
REMARK    4  A    between atoms: C20_23  and  C21_24 
REMARK    5  A    between atoms: C21_24  and  O3_25 
ROOT
ATOM      1  C1  <0> d           3.162  -2.055   0.273  0.00  0.00     0.001 A 
ATOM      2  C2  <0> d           2.534  -2.516   1.415  0.00  0.00     0.001 A 
ATOM      3  C3  <0> d           1.615  -1.727   2.092  0.00  0.00     0.011 A 
ATOM      4  C4  <0> d           1.334  -0.473   1.613  0.00  0.00    -0.011 A 
ATOM      5  C5  <0> d           1.940  -0.041   0.432  0.00  0.00    -0.039 A 
ATOM      6  C6  <0> d           2.856  -0.793  -0.229  0.00  0.00     0.008 A 
ATOM      7  C7  <0> d           1.437   1.347  -0.004  0.00  0.00     0.067 C 
ATOM      8  C8  <0> d           1.843   2.218   1.174  0.00  0.00    -0.039 A 
ATOM      9  C9  <0> d           2.617   3.331   1.096  0.00  0.00     0.008 A 
ATOM     10  C10 <0> d           2.966   3.996   2.263  0.00  0.00     0.001 A 
ATOM     11  C11 <0> d           2.545   3.528   3.495  0.00  0.00     0.001 A 
ATOM     12  C12 <0> d           1.744   2.395   3.577  0.00  0.00     0.011 A 
ATOM     13  C13 <0> d           1.390   1.762   2.425  0.00  0.00    -0.011 A 
ATOM     14  C14 <0> d           0.466   0.531   2.358  0.00  0.00     0.164 C 
ATOM     15  C15 <0> d          -0.616   1.085   1.437  0.00  0.00     0.136 C 
ATOM     16  C16 <0> d          -0.013   1.086   0.008  0.00  0.00     0.107 C 
ATOM     17  C17 <0> d          -1.175   1.294  -0.835  0.00  0.00     0.232 C 
ATOM     18  O1  <0> d          -1.230   1.874  -1.899  0.00  0.00    -0.272 OA
ATOM     19  N1  <0> d          -2.198   0.683  -0.158  0.00  0.00    -0.288 N 
ATOM     20  C18 <0> d          -1.850   0.298   1.113  0.00  0.00     0.234 C 
ATOM     21  O2  <0> d          -2.418  -0.505   1.821  0.00  0.00    -0.272 OA
ENDROOT
BRANCH  19  22
ATOM     22  C19 <0> d          -3.529   0.465  -0.731  0.00  0.00     0.137 C 
BRANCH  22  23
ATOM     23  C20 <0> d          -4.420   1.671  -0.425  0.00  0.00     0.046 C 
BRANCH  23  24
ATOM     24  C21 <0> d          -5.810   1.443  -1.023  0.00  0.00     0.165 C 
BRANCH  24  25
ATOM     25  O3  <0> d          -6.642   2.569  -0.737  0.00  0.00    -0.401 OA
ATOM     26  H18 <0> d          -7.540   2.493  -1.087  0.00  0.00     0.209 HD
ENDBRANCH  24  25
ENDBRANCH  23  24
ENDBRANCH  22  23
ENDBRANCH  19  22
BRANCH  14  27
ATOM     27  N2  <0> d          -0.020   0.056   3.656  0.00  0.00    -0.134 N 
ATOM     28  O4  <0> d           0.774  -0.256   4.526  0.00  0.00    -0.535 OA
ATOM     29  O5  <0> d          -1.217  -0.028   3.865  0.00  0.00    -0.535 OA
ENDBRANCH  14  27
TORSDOF 5
