REMARK  3 active torsions:
REMARK  status: ('A' for Active; 'I' for Inactive)
REMARK    1  A    between atoms: C4_4  and  C14_16 
REMARK    2  A    between atoms: N1_6  and  C6_7 
REMARK    3  A    between atoms: C9_10  and  O1_13 
ROOT
ATOM      1  C1  <0> d          -0.266   1.423  -0.017  0.00  0.00     0.068 C 
ATOM      2  C2  <0> d          -0.171  -0.081  -0.018  0.00  0.00     0.014 A 
ATOM      3  C3  <0> d          -0.052  -0.853  -1.111  0.00  0.00     0.038 A 
ATOM      4  C4  <0> d           0.005  -2.242  -0.635  0.00  0.00    -0.011 A 
ATOM      5  C5  <0> d          -0.088  -2.174   0.746  0.00  0.00     0.023 A 
ATOM      6  N1  <0> d          -0.187  -0.876   1.095  0.00  0.00    -0.319 N 
ATOM      7  C13 <0> d          -0.074  -3.347   1.693  0.00  0.00     0.069 C 
ENDROOT
BRANCH   4   8
ATOM      8  C14 <0> d           0.129  -3.413  -1.426  0.00  0.00     0.034 C 
ATOM      9  C15 <0> d           0.588  -3.322  -2.725  0.00  0.00     0.082 C 
ATOM     10  C18 <0> d           0.523  -4.472  -3.658  0.00  0.00     0.283 C 
ATOM     11  C16 <0> d           1.179  -2.065  -3.262  0.00  0.00     0.162 C 
ATOM     12  N4  <0> d           0.478  -4.210  -4.982  0.00  0.00    -0.182 NA
ATOM     13  O2  <0> d           0.507  -5.619  -3.241  0.00  0.00    -0.265 OA
ATOM     14  C17 <0> d           0.634  -2.978  -5.396  0.00  0.00     0.201 A 
ATOM     15  N3  <0> d           0.920  -1.866  -4.635  0.00  0.00    -0.189 N 
ATOM     16  S1  <0> d           0.519  -2.292  -7.027  0.00  0.00    -0.033 SA
ATOM     17  N5  <0> d           0.938  -0.653  -5.290  0.00  0.00    -0.161 NA
ATOM     18  C19 <0> d           0.756  -0.579  -6.578  0.00  0.00     0.095 A 
ATOM     19  C20 <0> d           0.746   0.642  -7.462  0.00  0.00     0.081 C 
ATOM     20  N2  <0> d           1.871  -1.229  -2.533  0.00  0.00    -0.281 NA
ATOM     21  H16 <0> d           2.206  -0.407  -2.924  0.00  0.00     0.188 HD
ENDBRANCH   4   8
BRANCH   6  22
ATOM     22  C6  <0> d          -0.295  -0.408   2.412  0.00  0.00     0.039 A 
ATOM     23  C11 <0> d          -1.454   0.233   2.829  0.00  0.00     0.033 A 
ATOM     24  C10 <0> d          -1.562   0.690   4.127  0.00  0.00     0.039 A 
ATOM     25  C9  <0> d          -0.508   0.519   5.013  0.00  0.00     0.068 A 
ATOM     26  C8  <0> d           0.653  -0.117   4.596  0.00  0.00     0.039 A 
ATOM     27  C7  <0> d           0.759  -0.579   3.299  0.00  0.00     0.033 A 
BRANCH  25  28
ATOM     28  O1  <0> d          -0.613   0.973   6.289  0.00  0.00    -0.356 OA
ATOM     29  C12 <0> d          -1.836   1.618   6.651  0.00  0.00     0.210 C 
ENDBRANCH  25  28
ENDBRANCH   6  22
TORSDOF 3
