REMARK  4 active torsions:
REMARK  status: ('A' for Active; 'I' for Inactive)
REMARK    1  A    between atoms: N1_2  and  C3_4 
REMARK    2  A    between atoms: C4_5  and  C8_10 
REMARK       I    between atoms: C8_10  and  N3_12 
REMARK    3  A    between atoms: N3_12  and  C9_13 
REMARK    4  A    between atoms: C12_16  and  N4_20 
ROOT
ATOM      1  C9  <0> d           0.075   3.291  -3.799  0.00  0.00     0.036 A 
ATOM      2  C10 <0> d           0.214   4.084  -2.667  0.00  0.00     0.032 A 
ATOM      3  C11 <0> d           0.204   5.460  -2.782  0.00  0.00     0.034 A 
ATOM      4  C12 <0> d           0.055   6.051  -4.029  0.00  0.00     0.066 A 
ATOM      5  C13 <0> d          -0.084   5.259  -5.162  0.00  0.00     0.063 A 
ATOM      6  C14 <0> d          -0.069   3.882  -5.047  0.00  0.00     0.055 A 
ATOM      7 Cl1  <0> d          -0.271   5.998  -6.722  0.00  0.00    -0.082 Cl
ENDROOT
BRANCH   1   8
ATOM      8  N3  <0> d           0.086   1.895  -3.682  0.00  0.00    -0.323 N 
ATOM      9  C8  <0> d          -0.465   1.305  -2.603  0.00  0.00     0.260 C 
ATOM     10  O1  <0> d          -0.898   1.985  -1.693  0.00  0.00    -0.267 OA
ATOM     11  H10 <0> d           0.490   1.353  -4.378  0.00  0.00     0.169 HD
BRANCH   9  12
ATOM     12  C4  <0> d          -0.544  -0.165  -2.526  0.00  0.00     0.078 A 
ATOM     13  C3  <0> d          -1.209  -0.792  -1.459  0.00  0.00     0.140 A 
ATOM     14  N2  <0> d          -1.272  -2.112  -1.392  0.00  0.00    -0.242 NA
ATOM     15  C7  <0> d          -0.731  -2.881  -2.317  0.00  0.00     0.119 A 
ATOM     16  C6  <0> d          -0.059  -2.337  -3.398  0.00  0.00     0.020 A 
ATOM     17  C5  <0> d           0.043  -0.962  -3.516  0.00  0.00     0.022 A 
BRANCH  13  18
ATOM     18  N1  <0> d          -1.796  -0.025  -0.469  0.00  0.00    -0.374 N 
ATOM     19  C1  <0> d          -3.218   0.318  -0.555  0.00  0.00     0.150 C 
ATOM     20  C2  <0> d          -0.996   0.445   0.665  0.00  0.00     0.150 C 
ENDBRANCH  13  18
ENDBRANCH   9  12
ENDBRANCH   1   8
BRANCH   4  21
ATOM     21  N4  <0> d           0.043   7.446  -4.145  0.00  0.00    -0.274 N 
ATOM     22  S1  <0> d          -1.302   8.446  -4.185  0.00  0.00     0.233 S 
ATOM     23  C17 <0> d          -0.509  10.080  -4.478  0.00  0.00     0.165 C 
ATOM     24  O2  <0> d          -2.047   8.035  -5.323  0.00  0.00    -0.205 OA
ATOM     25  O3  <0> d          -1.858   8.385  -2.879  0.00  0.00    -0.205 OA
ATOM     26  C16 <0> d           0.855   9.605  -5.062  0.00  0.00     0.038 C 
ATOM     27  C15 <0> d           1.212   8.337  -4.264  0.00  0.00     0.143 C 
ENDBRANCH   4  21
TORSDOF 4
