REMARK  5 active torsions:
REMARK  status: ('A' for Active; 'I' for Inactive)
REMARK    1  A    between atoms: C4_4  and  O7_32 
REMARK    2  A    between atoms: C10_10  and  C14_16 
REMARK    3  A    between atoms: C14_16  and  C15_18 
REMARK    4  A    between atoms: C15_18  and  O4_19 
REMARK    5  A    between atoms: C17_21  and  O6_30 
ROOT
ATOM      1  C1  <0> d           0.471   2.038  -0.600  0.00  0.00     0.019 C 
ATOM      2  C2  <0> d           0.109   0.547  -0.440  0.00  0.00     0.004 C 
ATOM      3  C3  <0> d          -1.380   0.433  -0.575  0.00  0.00     0.048 C 
ATOM      4  C4  <0> d          -2.172   0.263   0.694  0.00  0.00     0.160 C 
ATOM      5  C5  <0> d          -1.563  -0.711   1.672  0.00  0.00     0.147 C 
ATOM      6  C6  <0> d          -0.132  -0.393   1.982  0.00  0.00     0.037 C 
ATOM      7  C7  <0> d           0.722   0.066   0.873  0.00  0.00     0.007 C 
ATOM      8  C8  <0> d           1.968  -0.788   0.546  0.00  0.00     0.041 C 
ATOM      9  C9  <0> d           2.315  -0.295  -0.849  0.00  0.00     0.168 C 
ATOM     10  C10 <0> d           0.872  -0.227  -1.489  0.00  0.00     0.160 C 
ATOM     11  O1  <0> d           1.183   0.184  -2.787  0.00  0.00    -0.334 OA
ATOM     12  C11 <0> d           2.499  -0.376  -3.058  0.00  0.00     0.159 C 
ATOM     13  O2  <0> d           2.934  -1.073  -1.849  0.00  0.00    -0.347 OA
ATOM     14  C12 <0> d           3.485   0.747  -3.394  0.00  0.00     0.078 C 
ATOM     15  C13 <0> d           2.430  -1.355  -4.233  0.00  0.00     0.078 C 
ATOM     16  C16 <0> d           0.509  -1.398   2.925  0.00  0.00     0.044 C 
ATOM     17  C17 <0> d           0.491  -2.809   2.363  0.00  0.00     0.149 C 
ATOM     18  C18 <0> d          -0.743  -3.105   1.555  0.00  0.00    -0.032 C 
ATOM     19  C19 <0> d          -0.798  -4.326   0.991  0.00  0.00     0.061 C 
ATOM     20  C20 <0> d          -1.946  -4.678   0.132  0.00  0.00     0.172 C 
ATOM     21  O5  <0> d          -2.233  -5.844  -0.115  0.00  0.00    -0.289 OA
ATOM     22  C21 <0> d          -2.723  -3.559  -0.447  0.00  0.00     0.052 C 
ATOM     23  C22 <0> d          -2.661  -2.358   0.140  0.00  0.00    -0.006 C 
ATOM     24  C23 <0> d          -1.879  -2.154   1.403  0.00  0.00     0.039 C 
ATOM     25  C24 <0> d          -2.859  -2.541   2.527  0.00  0.00     0.028 C 
ATOM     26  F1  <0> d          -2.236  -0.443   2.881  0.00  0.00    -0.238 F 
ENDROOT
BRANCH  10  27
ATOM     27  C14 <0> d           0.362  -1.643  -1.562  0.00  0.00     0.188 C 
ATOM     28  O3  <0> d           0.802  -2.483  -0.815  0.00  0.00    -0.292 OA
BRANCH  27  29
ATOM     29  C15 <0> d          -0.698  -2.011  -2.569  0.00  0.00     0.245 C 
BRANCH  29  30
ATOM     30  O4  <0> d          -0.910  -3.424  -2.542  0.00  0.00    -0.393 OA
ATOM     31  H21 <0> d          -1.581  -3.733  -3.167  0.00  0.00     0.209 HD
ENDBRANCH  29  30
ENDBRANCH  27  29
ENDBRANCH  10  27
BRANCH   4  32
ATOM     32  O7  <0> d          -2.269   1.545   1.336  0.00  0.00    -0.392 OA
ATOM     33  H31 <0> d          -2.707   2.220   0.800  0.00  0.00     0.210 HD
ENDBRANCH   4  32
BRANCH  17  34
ATOM     34  O6  <0> d           0.553  -3.748   3.451  0.00  0.00    -0.391 OA
ATOM     35  H30 <0> d           0.546  -4.674   3.172  0.00  0.00     0.210 HD
ENDBRANCH  17  34
TORSDOF 5
