REMARK  6 active torsions:
REMARK  status: ('A' for Active; 'I' for Inactive)
REMARK    1  A    between atoms: C4_4  and  C7_7 
REMARK    2  A    between atoms: C10_13  and  N4_15 
REMARK    3  A    between atoms: N4_15  and  C11_16 
REMARK    4  A    between atoms: C11_16  and  C12_17 
REMARK    5  A    between atoms: C15_20  and  S2_23 
REMARK    6  A    between atoms: S2_23  and  N5_26 
ROOT
ATOM      1  N4  <0> d           8.357  -4.223  -0.108  0.00  0.00    -0.363 N 
ATOM      2  H7  <0> d           8.111  -5.161  -0.115  0.00  0.00     0.162 HD
ENDROOT
BRANCH   1   3
ATOM      3  C10 <0> d           7.372  -3.249  -0.090  0.00  0.00     0.190 A 
ATOM      4  S1  <0> d           7.550  -1.472  -0.074  0.00  0.00    -0.011 SA
ATOM      5  C9  <0> d           5.820  -1.062  -0.057  0.00  0.00     0.197 A 
ATOM      6  N1  <0> d           5.224  -2.293  -0.065  0.00  0.00    -0.216 N 
ATOM      7  N2  <0> d           4.922  -0.121  -0.047  0.00  0.00    -0.221 NA
ATOM      8  C8  <0> d           3.862  -2.035  -0.052  0.00  0.00     0.153 A 
ATOM      9  N3  <0> d           6.074  -3.395  -0.082  0.00  0.00    -0.140 NA
ATOM     10  C7  <0> d           3.698  -0.688  -0.037  0.00  0.00     0.087 A 
BRANCH  10  11
ATOM     11  C4  <0> d           2.402   0.033  -0.021  0.00  0.00    -0.006 A 
ATOM     12  C3  <0> d           2.377   1.426  -0.013  0.00  0.00     0.014 A 
ATOM     13  C2  <0> d           1.169   2.092   0.002  0.00  0.00     0.001 A 
ATOM     14  C1  <0> d          -0.017   1.379   0.010  0.00  0.00     0.000 A 
ATOM     15  C6  <0> d           0.002  -0.004   0.002  0.00  0.00     0.001 A 
ATOM     16  C5  <0> d           1.205  -0.680  -0.013  0.00  0.00     0.014 A 
ENDBRANCH  10  11
ENDBRANCH   1   3
BRANCH   1  17
ATOM     17  C11 <0> d           9.770  -3.835  -0.115  0.00  0.00     0.160 C 
BRANCH  17  18
ATOM     18  C12 <0> d          10.630  -5.073  -0.134  0.00  0.00    -0.040 A 
ATOM     19  C17 <0> d          11.015  -5.628  -1.340  0.00  0.00     0.010 A 
ATOM     20  C16 <0> d          11.807  -6.760  -1.358  0.00  0.00     0.026 A 
ATOM     21  C15 <0> d          12.208  -7.343  -0.170  0.00  0.00     0.079 A 
ATOM     22  C14 <0> d          11.818  -6.790   1.036  0.00  0.00     0.026 A 
ATOM     23  C13 <0> d          11.029  -5.655   1.054  0.00  0.00     0.010 A 
BRANCH  21  24
ATOM     24  S2  <0> d          13.214  -8.789  -0.192  0.00  0.00     0.256 S 
ATOM     25  O1  <0> d          13.893  -8.792  -1.441  0.00  0.00    -0.201 OA
ATOM     26  O2  <0> d          13.904  -8.822   1.049  0.00  0.00    -0.201 OA
BRANCH  24  27
ATOM     27  N5  <0> d          12.196 -10.094  -0.204  0.00  0.00    -0.324 N 
ATOM     28  H14 <0> d          11.235  -9.960  -0.198  0.00  0.00     0.169 HD
ATOM     29  H15 <0> d          12.560 -10.993  -0.217  0.00  0.00     0.169 HD
ENDBRANCH  24  27
ENDBRANCH  21  24
ENDBRANCH  17  18
ENDBRANCH   1  17
TORSDOF 6
