REMARK  4 active torsions:
REMARK  status: ('A' for Active; 'I' for Inactive)
REMARK    1  A    between atoms: C2_2  and  C3_3 
REMARK    2  A    between atoms: C2_2  and  N3_9 
REMARK    3  A    between atoms: C3_3  and  N1_4 
REMARK    4  A    between atoms: N3_9  and  C7_10 
ROOT
ATOM      1  C7  <0> d           2.247  -0.419   0.810  0.00  0.00     0.347 A 
ATOM      2  C8  <0> d           2.685  -1.657   0.062  0.00  0.00     0.015 A 
ATOM      3  C9  <0> d           2.315  -2.199  -1.148  0.00  0.00     0.054 A 
ATOM      4  C10 <0> d           2.903  -3.375  -1.587  0.00  0.00     0.118 A 
ATOM      5  C11 <0> d           3.861  -3.999  -0.806  0.00  0.00     0.063 A 
ATOM      6  C12 <0> d           4.232  -3.456   0.407  0.00  0.00     0.041 A 
ATOM      7  C13 <0> d           3.644  -2.273   0.855  0.00  0.00     0.061 A 
ATOM      8  N4  <0> d           3.847  -1.539   2.026  0.00  0.00    -0.323 N 
ATOM      9  C14 <0> d           3.072  -0.439   2.079  0.00  0.00     0.260 A 
ATOM     10  O1  <0> d           3.039   0.380   2.973  0.00  0.00    -0.270 OA
ATOM     11 Br1  <0> d           5.542  -4.317   1.465  0.00  0.00    -0.049 Br
ATOM     12  F1  <0> d           2.542  -3.911  -2.774  0.00  0.00    -0.206 F 
ATOM     13  H14 <0> d           4.475  -1.792   2.720  0.00  0.00     0.169 HD
ENDROOT
BRANCH   1  14
ATOM     14  N3  <0> d           0.814  -0.489   1.126  0.00  0.00     0.107 N 
ATOM     15  H11 <0> d           0.620  -0.065   2.021  0.00  0.00     0.318 HD
BRANCH  14  16
ATOM     16  C2  <0> d           0.009   0.130   0.064  0.00  0.00     0.236 C 
ATOM     17  C1  <0> d          -0.037   1.645   0.277  0.00  0.00     0.044 C 
BRANCH  16  18
ATOM     18  C3  <0> d          -1.412  -0.434   0.107  0.00  0.00     0.164 C 
BRANCH  18  19
ATOM     19  N1  <0> d          -1.380  -1.863  -0.215  0.00  0.00    -0.350 N 
ATOM     20  C6  <0> d          -1.238  -2.879   0.664  0.00  0.00     0.182 A 
ATOM     21  N2  <0> d          -1.258  -4.006   0.006  0.00  0.00    -0.361 N 
ATOM     22  C5  <0> d          -1.404  -3.753  -1.302  0.00  0.00     0.106 A 
ATOM     23  H15 <0> d          -1.177  -4.888   0.402  0.00  0.00     0.166 HD
ATOM     24  C4  <0> d          -1.482  -2.418  -1.462  0.00  0.00     0.108 A 
ENDBRANCH  18  19
ENDBRANCH  16  18
ENDBRANCH  14  16
ENDBRANCH   1  14
TORSDOF 4
