REMARK  4 active torsions:
REMARK  status: ('A' for Active; 'I' for Inactive)
REMARK    1  A    between atoms: C5_7  and  C6_8 
REMARK       I    between atoms: C6_8  and  N2_10 
REMARK    2  A    between atoms: N2_10  and  C7_11 
REMARK    3  A    between atoms: C7_11  and  C8_12 
REMARK    4  A    between atoms: C13_17  and  O2_18 
ROOT
ATOM      1  C6  <0> d           0.032  -0.391   2.496  0.00  0.00     0.269 C 
ATOM      2  O1  <0> d           0.019   0.795   2.765  0.00  0.00    -0.266 OA
ATOM      3  N2  <0> d           0.055  -1.306   3.486  0.00  0.00    -0.351 N 
ATOM      4  H5  <0> d           0.065  -2.252   3.271  0.00  0.00     0.163 HD
ENDROOT
BRANCH   1   5
ATOM      5  C5  <0> d           0.024  -0.827   1.094  0.00  0.00     0.108 A 
ATOM      6  C2  <0> d           0.002  -0.004   0.002  0.00  0.00    -0.014 A 
ATOM      7  C1  <0> d          -0.018   1.503   0.010  0.00  0.00     0.052 C 
ATOM      8  C3  <0> d           0.008  -0.834  -1.125  0.00  0.00     0.041 A 
ATOM      9  C18 <0> d           0.002  -0.505  -2.559  0.00  0.00     0.162 C 
ATOM     10  C4  <0> d           0.026  -2.155  -0.678  0.00  0.00     0.024 A 
ATOM     11  C17 <0> d           0.287  -1.674  -3.491  0.00  0.00     0.084 C 
ATOM     12  O3  <0> d          -0.215   0.616  -2.969  0.00  0.00    -0.292 OA
ATOM     13  C16 <0> d          -0.488  -2.895  -2.987  0.00  0.00     0.014 C 
ATOM     14  C15 <0> d           0.031  -3.337  -1.615  0.00  0.00     0.058 C 
ATOM     15  N1  <0> d           0.034  -2.137   0.655  0.00  0.00    -0.354 N 
ATOM     16  H1  <0> d           0.048  -2.920   1.227  0.00  0.00     0.166 HD
ENDBRANCH   1   5
BRANCH   3  17
ATOM     17  C7  <0> d           0.063  -0.872   4.885  0.00  0.00     0.164 C 
BRANCH  17  18
ATOM     18  C8  <0> d           0.088  -2.080   5.786  0.00  0.00    -0.006 A 
ATOM     19  C13 <0> d           1.282  -2.745   6.021  0.00  0.00     0.076 A 
ATOM     20  C12 <0> d           1.304  -3.853   6.855  0.00  0.00     0.039 A 
ATOM     21  C11 <0> d           0.135  -4.299   7.441  0.00  0.00     0.022 A 
ATOM     22  C10 <0> d          -1.057  -3.637   7.199  0.00  0.00     0.011 A 
ATOM     23  C9  <0> d          -1.079  -2.529   6.373  0.00  0.00     0.030 A 
ATOM     24 Br1  <0> d          -2.656  -4.249   8.002  0.00  0.00    -0.051 Br
BRANCH  19  25
ATOM     25  O2  <0> d           2.431  -2.308   5.441  0.00  0.00    -0.355 OA
ATOM     26  C14 <0> d           3.623  -3.041   5.728  0.00  0.00     0.210 C 
ENDBRANCH  19  25
ENDBRANCH  17  18
ENDBRANCH   3  17
TORSDOF 4
