REMARK  6 active torsions:
REMARK  status: ('A' for Active; 'I' for Inactive)
REMARK    1  A    between atoms: C9_10  and  C17_21 
REMARK    2  A    between atoms: N2_12  and  C11_13 
REMARK    3  A    between atoms: C11_13  and  C12_14 
REMARK    4  A    between atoms: C12_14  and  C13_15 
REMARK    5  A    between atoms: C13_15  and  N3_16 
REMARK       I    between atoms: C17_21  and  N5_23 
REMARK    6  A    between atoms: N5_23  and  C18_24 
ROOT
ATOM      1  C1  <0> d          -2.849   4.665   0.189  0.00  0.00     0.049 C 
ATOM      2  C2  <0> d          -1.358   4.881   0.163  0.00  0.00    -0.046 A 
ATOM      3  C3  <0> d          -0.839   6.183   0.152  0.00  0.00     0.012 A 
ATOM      4  C4  <0> d           0.511   6.370   0.122  0.00  0.00     0.052 A 
ATOM      5  C5  <0> d           1.366   5.253   0.109  0.00  0.00     0.139 A 
ATOM      6  N1  <0> d           2.684   5.448   0.079  0.00  0.00    -0.212 NA
ATOM      7  C6  <0> d           3.539   4.433   0.065  0.00  0.00     0.149 A 
ATOM      8  C7  <0> d           3.042   3.111   0.082  0.00  0.00     0.080 A 
ATOM      9  C8  <0> d           3.917   2.015   0.069  0.00  0.00     0.042 A 
ATOM     10  C9  <0> d           5.287   2.238   0.038  0.00  0.00     0.076 A 
ATOM     11  C10 <0> d           5.786   3.622   0.020  0.00  0.00     0.118 A 
ATOM     12  N2  <0> d           4.891   4.670   0.035  0.00  0.00    -0.316 N 
ATOM     13  C23 <0> d           1.637   2.911   0.114  0.00  0.00     0.267 A 
ATOM     14  O2  <0> d           1.168   1.787   0.129  0.00  0.00    -0.267 OA
ATOM     15  N6  <0> d           0.830   3.995   0.126  0.00  0.00    -0.272 N 
ATOM     16  C24 <0> d          -0.521   3.819   0.155  0.00  0.00     0.108 A 
ATOM     17  H7  <0> d           7.778   3.187  -0.095  0.00  0.00     0.157 HD
ATOM     18  N7  <0> d           7.081   3.926  -0.003  0.00  0.00    -0.384 N 
ATOM     19  H28 <0> d           7.380   4.906   0.072  0.00  0.00     0.157 HD
ENDROOT
BRANCH  10  20
ATOM     20  C17 <0> d           6.224   1.109   0.023  0.00  0.00     0.255 C 
ATOM     21  O1  <0> d           7.417   1.310  -0.110  0.00  0.00    -0.268 OA
ATOM     22  N5  <0> d           5.764  -0.151   0.156  0.00  0.00    -0.352 N 
ATOM     23  H17 <0> d           4.813  -0.311   0.261  0.00  0.00     0.163 HD
BRANCH  22  24
ATOM     24  C18 <0> d           6.700  -1.278   0.141  0.00  0.00     0.084 C 
ATOM     25  C22 <0> d           6.097  -2.474   0.898  0.00  0.00     0.025 C 
ATOM     26  C21 <0> d           5.988  -3.630  -0.117  0.00  0.00     0.002 C 
ATOM     27  C20 <0> d           7.047  -3.290  -1.195  0.00  0.00     0.002 C 
ATOM     28  C19 <0> d           6.936  -1.749  -1.309  0.00  0.00     0.025 C 
ENDBRANCH  22  24
ENDBRANCH  10  20
BRANCH  12  29
ATOM     29  C11 <0> d           5.387   6.048   0.018  0.00  0.00     0.134 C 
BRANCH  29  30
ATOM     30  C12 <0> d           5.591   6.535   1.455  0.00  0.00     0.040 C 
BRANCH  30  31
ATOM     31  C13 <0> d           6.109   7.974   1.437  0.00  0.00     0.131 C 
BRANCH  31  32
ATOM     32  N3  <0> d           6.304   8.440   2.812  0.00  0.00    -0.350 N 
ATOM     33  C16 <0> d           7.434   8.327   3.544  0.00  0.00     0.209 A 
ATOM     34  N4  <0> d           7.226   8.856   4.719  0.00  0.00    -0.255 NA
ATOM     35  C15 <0> d           5.969   9.321   4.778  0.00  0.00     0.135 A 
ATOM     36  C14 <0> d           5.378   9.076   3.593  0.00  0.00     0.111 A 
ENDBRANCH  31  32
ENDBRANCH  30  31
ENDBRANCH  29  30
ENDBRANCH  12  29
TORSDOF 6
