REMARK  6 active torsions:
REMARK  status: ('A' for Active; 'I' for Inactive)
REMARK    1  A    between atoms: C7_7  and  C8_8 
REMARK       I    between atoms: C8_8  and  N1_10 
REMARK    2  A    between atoms: C10_12  and  C17_20 
REMARK       I    between atoms: C17_20  and  N3_22 
REMARK    3  A    between atoms: N3_22  and  C18_23 
REMARK    4  A    between atoms: C18_23  and  C19_24 
REMARK    5  A    between atoms: C19_24  and  C20_25 
REMARK    6  A    between atoms: C19_24  and  N4_31 
ROOT
ATOM      1  C8  <0> d           0.203   0.579   2.757  0.00  0.00     0.254 C 
ATOM      2  O1  <0> d           0.032   1.781   2.809  0.00  0.00    -0.267 OA
ATOM      3  N1  <0> d           0.373  -0.127   3.893  0.00  0.00    -0.346 N 
ATOM      4  C9  <0> d           0.701  -1.566   4.027  0.00  0.00     0.141 C 
ATOM      5  C10 <0> d           1.697  -1.631   5.207  0.00  0.00     0.106 C 
ATOM      6  C11 <0> d           1.410  -0.365   6.032  0.00  0.00    -0.007 C 
ATOM      7  C12 <0> d           0.280   0.362   5.289  0.00  0.00     0.136 C 
ATOM      8  C13 <0> d           0.961  -0.743   7.440  0.00  0.00     0.039 C 
ATOM      9  C14 <0> d           0.739   0.532   8.259  0.00  0.00     0.233 C 
ATOM     10  N2  <0> d           1.985   1.306   8.312  0.00  0.00    -0.075 N 
ATOM     11  C15 <0> d           2.360   1.744   6.963  0.00  0.00     0.233 C 
ATOM     12  C16 <0> d           2.652   0.521   6.089  0.00  0.00     0.039 C 
ATOM     13  H18 <0> d           1.853   2.114   8.902  0.00  0.00     0.277 HD
ATOM     14  H37 <0> d           2.720   0.730   8.694  0.00  0.00     0.277 HD
ENDROOT
BRANCH   5  15
ATOM     15  C17 <0> d           1.451  -2.866   6.034  0.00  0.00     0.224 C 
ATOM     16  O2  <0> d           0.322  -3.288   6.174  0.00  0.00    -0.273 OA
ATOM     17  N3  <0> d           2.485  -3.502   6.619  0.00  0.00    -0.358 N 
ATOM     18  H23 <0> d           3.388  -3.165   6.507  0.00  0.00     0.162 HD
BRANCH  17  19
ATOM     19  C18 <0> d           2.246  -4.703   7.423  0.00  0.00     0.160 C 
BRANCH  19  20
ATOM     20  C19 <0> d           3.558  -5.153   8.071  0.00  0.00     0.237 C 
BRANCH  20  21
ATOM     21  C20 <0> d           4.041  -4.085   9.018  0.00  0.00    -0.026 A 
ATOM     22  C25 <0> d           5.034  -3.208   8.623  0.00  0.00     0.009 A 
ATOM     23  C24 <0> d           5.475  -2.227   9.490  0.00  0.00     0.001 A 
ATOM     24  C23 <0> d           4.929  -2.127  10.756  0.00  0.00     0.000 A 
ATOM     25  C22 <0> d           3.939  -3.006  11.153  0.00  0.00     0.001 A 
ATOM     26  C21 <0> d           3.496  -3.986  10.284  0.00  0.00     0.009 A 
ENDBRANCH  20  21
BRANCH  20  27
ATOM     27  N4  <0> d           3.335  -6.401   8.812  0.00  0.00    -0.069 N 
ATOM     28  C26 <0> d           2.968  -7.469   7.873  0.00  0.00     0.270 C 
ATOM     29  C27 <0> d           4.565  -6.775   9.523  0.00  0.00     0.270 C 
ATOM     30  H38 <0> d           2.589  -6.268   9.479  0.00  0.00     0.279 HD
ENDBRANCH  20  27
ENDBRANCH  19  20
ENDBRANCH  17  19
ENDBRANCH   5  15
BRANCH   1  31
ATOM     31  C7  <0> d           0.225  -0.109   1.449  0.00  0.00     0.038 A 
ATOM     32  C2  <0> d          -0.828   0.063   0.548  0.00  0.00    -0.046 A 
ATOM     33  C1  <0> d          -1.990   0.953   0.907  0.00  0.00     0.049 C 
ATOM     34  C3  <0> d          -0.798  -0.577  -0.673  0.00  0.00     0.007 A 
ATOM     35  C4  <0> d           0.268  -1.394  -1.004  0.00  0.00     0.001 A 
ATOM     36  C5  <0> d           1.312  -1.574  -0.114  0.00  0.00     0.001 A 
ATOM     37  C6  <0> d           1.295  -0.939   1.111  0.00  0.00     0.017 A 
ENDBRANCH   1  31
TORSDOF 6
