REMARK  5 active torsions:
REMARK  status: ('A' for Active; 'I' for Inactive)
REMARK    1  A    between atoms: C2_2  and  O1_3 
REMARK    2  A    between atoms: O1_3  and  C3_4 
REMARK    3  A    between atoms: C3_4  and  C4_6 
REMARK    4  A    between atoms: C5_7  and  C11_17 
REMARK    5  A    between atoms: C7_9  and  S1_13 
ROOT
ATOM      1  C4  <0> d          -0.887   1.682  -3.629  0.00  0.00     0.191 C 
ATOM      2  C5  <0> d          -0.118   1.151  -4.840  0.00  0.00     0.089 C 
ATOM      3  C6  <0> d           1.184   1.897  -4.974  0.00  0.00     0.066 C 
ATOM      4  C7  <0> d           1.257   3.212  -4.627  0.00  0.00     0.089 C 
ATOM      5  N1  <0> d           0.144   3.873  -4.150  0.00  0.00    -0.320 N 
ATOM      6  C8  <0> d          -0.907   3.187  -3.665  0.00  0.00     0.237 C 
ATOM      7  O3  <0> d          -1.878   3.786  -3.255  0.00  0.00    -0.272 OA
ATOM      8  C10 <0> d           2.347   1.223  -5.467  0.00  0.00     0.098 C 
ATOM      9  N2  <0> d           3.269   0.688  -5.859  0.00  0.00    -0.192 NA
ATOM     10  H8  <0> d           0.120   4.842  -4.164  0.00  0.00     0.169 HD
ENDROOT
BRANCH   2  11
ATOM     11  C11 <0> d          -0.942   1.350  -6.085  0.00  0.00    -0.031 A 
ATOM     12  C16 <0> d          -1.311   0.261  -6.852  0.00  0.00     0.013 A 
ATOM     13  C15 <0> d          -2.072   0.444  -7.993  0.00  0.00     0.019 A 
ATOM     14  I1  <0> d          -0.725  -1.668  -6.282  0.00  0.00    -0.044 I 
ATOM     15  C14 <0> d          -2.454   1.717  -8.371  0.00  0.00     0.001 A 
ATOM     16  C13 <0> d          -2.080   2.807  -7.607  0.00  0.00     0.001 A 
ATOM     17  C12 <0> d          -1.325   2.624  -6.465  0.00  0.00     0.009 A 
ENDBRANCH   2  11
BRANCH   4  18
ATOM     18  S1  <0> d           2.784   4.075  -4.790  0.00  0.00    -0.115 SA
ATOM     19  C9  <0> d           2.283   5.713  -4.202  0.00  0.00     0.097 C 
ENDBRANCH   4  18
BRANCH   1  20
ATOM     20  C3  <0> d          -0.211   1.220  -2.363  0.00  0.00     0.273 C 
ATOM     21  O2  <0> d           0.783   0.536  -2.424  0.00  0.00    -0.264 OA
BRANCH  20  22
ATOM     22  O1  <0> d          -0.715   1.567  -1.168  0.00  0.00    -0.321 OA
BRANCH  22  23
ATOM     23  C2  <0> d          -0.013   1.086   0.008  0.00  0.00     0.174 C 
ATOM     24  C1  <0> d          -0.729   1.579   1.267  0.00  0.00     0.034 C 
ENDBRANCH  22  23
ENDBRANCH  20  22
ENDBRANCH   1  20
TORSDOF 5
