REMARK  8 active torsions:
REMARK  status: ('A' for Active; 'I' for Inactive)
REMARK    1  A    between atoms: C2_2  and  C3_3 
REMARK    2  A    between atoms: C8_8  and  N1_9 
REMARK    3  A    between atoms: C9_10  and  C16_21 
REMARK    4  A    between atoms: C11_12  and  C12_14 
REMARK       I    between atoms: C12_14  and  N3_16 
REMARK    5  A    between atoms: N3_16  and  C13_17 
REMARK    6  A    between atoms: C13_17  and  C14_18 
REMARK    7  A    between atoms: C14_18  and  C15_19 
REMARK    8  A    between atoms: C15_19  and  O2_20 
ROOT
ATOM      1  N1  <0> d          -1.357  -0.459   2.668  0.00  0.00    -0.232 N 
ATOM      2  C9  <0> d          -1.921  -0.184   3.882  0.00  0.00     0.071 A 
ATOM      3  C10 <0> d          -3.112   0.440   3.632  0.00  0.00     0.071 A 
ATOM      4  C11 <0> d          -3.210   0.512   2.225  0.00  0.00     0.147 A 
ATOM      5  N2  <0> d          -2.122  -0.040   1.725  0.00  0.00    -0.161 NA
ENDROOT
BRANCH   2   6
ATOM      6  C16 <0> d          -1.353  -0.500   5.211  0.00  0.00    -0.005 A 
ATOM      7  C21 <0> d          -2.191  -0.606   6.322  0.00  0.00     0.046 A 
ATOM      8  C20 <0> d          -1.653  -0.907   7.560  0.00  0.00     0.069 A 
ATOM      9  C19 <0> d          -0.277  -1.092   7.699  0.00  0.00     0.096 A 
ATOM     10  N4  <0> d          -2.478  -1.024   8.688  0.00  0.00    -0.323 N 
ATOM     11  C18 <0> d           0.554  -0.981   6.595  0.00  0.00     0.040 A 
ATOM     12  O4  <0> d           0.238  -1.381   8.924  0.00  0.00    -0.340 OA
ATOM     13  C17 <0> d           0.022  -0.687   5.356  0.00  0.00     0.017 A 
ATOM     14  C23 <0> d          -0.426  -0.804  10.052  0.00  0.00     0.278 C 
ATOM     15  C22 <0> d          -1.915  -0.996   9.916  0.00  0.00     0.246 C 
ATOM     16  O3  <0> d          -2.605  -1.126  10.905  0.00  0.00    -0.271 OA
ATOM     17  H22 <0> d          -3.437  -1.123   8.588  0.00  0.00     0.169 HD
ENDBRANCH   2   6
BRANCH   1  18
ATOM     18  C8  <0> d          -0.126  -1.098   2.480  0.00  0.00     0.065 A 
ATOM     19  C3  <0> d           0.884  -0.466   1.766  0.00  0.00    -0.030 A 
ATOM     20  C4  <0> d           2.100  -1.097   1.588  0.00  0.00     0.009 A 
ATOM     21  C5  <0> d           2.310  -2.358   2.114  0.00  0.00     0.001 A 
ATOM     22  C6  <0> d           1.305  -2.992   2.821  0.00  0.00     0.002 A 
ATOM     23  C7  <0> d           0.087  -2.367   3.003  0.00  0.00     0.032 A 
BRANCH  19  24
ATOM     24  C2  <0> d           0.655   0.908   1.192  0.00  0.00     0.036 C 
ATOM     25  C1  <0> d           0.845   1.957   2.289  0.00  0.00     0.010 C 
ENDBRANCH  19  24
ENDBRANCH   1  18
BRANCH   4  26
ATOM     26  C12 <0> d          -4.324   1.103   1.456  0.00  0.00     0.272 C 
ATOM     27  O1  <0> d          -5.275   1.589   2.038  0.00  0.00    -0.266 OA
ATOM     28  N3  <0> d          -4.287   1.104   0.109  0.00  0.00    -0.355 N 
ATOM     29  H11 <0> d          -3.529   0.717  -0.356  0.00  0.00     0.162 HD
BRANCH  28  30
ATOM     30  C13 <0> d          -5.392   1.690  -0.654  0.00  0.00     0.125 C 
BRANCH  30  31
ATOM     31  C14 <0> d          -5.102   1.562  -2.151  0.00  0.00     0.046 C 
BRANCH  31  32
ATOM     32  C15 <0> d          -6.256   2.174  -2.948  0.00  0.00     0.165 C 
BRANCH  32  33
ATOM     33  O2  <0> d          -5.986   2.054  -4.346  0.00  0.00    -0.401 OA
ATOM     34  H18 <0> d          -6.677   2.422  -4.913  0.00  0.00     0.209 HD
ENDBRANCH  32  33
ENDBRANCH  31  32
ENDBRANCH  30  31
ENDBRANCH  28  30
ENDBRANCH   4  26
TORSDOF 8
