REMARK  7 active torsions:
REMARK  status: ('A' for Active; 'I' for Inactive)
REMARK    1  A    between atoms: C2_2  and  N1_3 
REMARK    2  A    between atoms: N1_3  and  C3_4 
REMARK    3  A    between atoms: N1_3  and  S1_6 
REMARK    4  A    between atoms: S1_6  and  C5_9 
REMARK    5  A    between atoms: C16_20  and  C17_22 
REMARK    6  A    between atoms: C20_25  and  O4_29 
REMARK    7  A    between atoms: C22_27  and  O3_28 
ROOT
ATOM      1  C5  <0> d           0.002  -0.004   0.002  0.00  0.00     0.080 A 
ATOM      2  C6  <0> d          -0.017   1.379   0.010  0.00  0.00     0.027 A 
ATOM      3  C7  <0> d           1.167   2.088   0.002  0.00  0.00     0.031 A 
ATOM      4  C8  <0> d           2.385   1.420  -0.013  0.00  0.00     0.035 A 
ATOM      5  C9  <0> d           2.396   0.021  -0.009  0.00  0.00    -0.022 A 
ATOM      6  C10 <0> d           1.209  -0.678  -0.007  0.00  0.00     0.035 A 
ATOM      7  C11 <0> d           3.714  -0.651   0.016  0.00  0.00     0.050 C 
ATOM      8  C12 <0> d           3.936  -2.029  -0.519  0.00  0.00    -0.021 C 
ATOM      9  C13 <0> d           5.165  -2.113  -1.012  0.00  0.00    -0.029 C 
ATOM     10  C14 <0> d           5.884  -0.771  -0.857  0.00  0.00     0.035 C 
ATOM     11  C15 <0> d           4.704   0.209  -0.825  0.00  0.00     0.028 C 
ATOM     12  C16 <0> d           4.893   1.494  -0.038  0.00  0.00     0.123 C 
ATOM     13  N2  <0> d           3.572   2.162  -0.043  0.00  0.00    -0.380 N 
ATOM     14  H21 <0> d           3.529   3.130  -0.067  0.00  0.00     0.160 HD
ENDROOT
BRANCH  12  15
ATOM     15  C17 <0> d           5.314   1.183   1.375  0.00  0.00    -0.002 A 
ATOM     16  C22 <0> d           6.660   1.052   1.683  0.00  0.00     0.076 A 
ATOM     17  C21 <0> d           7.047   0.766   2.984  0.00  0.00     0.073 A 
ATOM     18  C20 <0> d           6.088   0.612   3.972  0.00  0.00     0.068 A 
ATOM     19  C19 <0> d           4.742   0.744   3.658  0.00  0.00     0.037 A 
ATOM     20  C18 <0> d           4.359   1.034   2.363  0.00  0.00     0.015 A 
BRANCH  16  21
ATOM     21  O3  <0> d           7.599   1.203   0.712  0.00  0.00    -0.360 OA
ATOM     22  H25 <0> d           7.914   2.111   0.608  0.00  0.00     0.217 HD
ENDBRANCH  16  21
BRANCH  18  23
ATOM     23  O4  <0> d           6.464   0.331   5.247  0.00  0.00    -0.361 OA
ATOM     24  H26 <0> d           6.617   1.114   5.794  0.00  0.00     0.217 HD
ENDBRANCH  18  23
ENDBRANCH  12  15
BRANCH   1  25
ATOM     25  S1  <0> d          -1.512  -0.906   0.003  0.00  0.00     0.260 S 
ATOM     26  O1  <0> d          -1.221  -2.187   0.546  0.00  0.00    -0.200 OA
ATOM     27  O2  <0> d          -2.496  -0.047   0.563  0.00  0.00    -0.200 OA
BRANCH  25  28
ATOM     28  N1  <0> d          -1.938  -1.148  -1.578  0.00  0.00    -0.307 N 
BRANCH  28  29
ATOM     29  C2  <0> d          -1.478  -2.345  -2.287  0.00  0.00     0.131 C 
ATOM     30  C1  <0> d          -2.555  -3.429  -2.211  0.00  0.00     0.027 C 
ENDBRANCH  28  29
BRANCH  28  31
ATOM     31  C3  <0> d          -2.777  -0.165  -2.269  0.00  0.00     0.131 C 
ATOM     32  C4  <0> d          -1.887   0.812  -3.040  0.00  0.00     0.027 C 
ENDBRANCH  28  31
ENDBRANCH  25  28
ENDBRANCH   1  25
TORSDOF 7
