REMARK  4 active torsions:
REMARK  status: ('A' for Active; 'I' for Inactive)
REMARK    1  A    between atoms: C2_2  and  C3_3 
REMARK    2  A    between atoms: C2_2  and  N2_9 
REMARK    3  A    between atoms: N2_9  and  S1_10 
REMARK    4  A    between atoms: S1_10  and  C8_13 
ROOT
ATOM      1  N2  <0> d           0.686  -0.508  -1.077  0.00  0.00    -0.310 N 
ATOM      2  H15 <0> d           0.135  -0.591  -1.871  0.00  0.00     0.172 HD
ENDROOT
BRANCH   1   3
ATOM      3  C2  <0> d           0.070  -0.188   0.213  0.00  0.00     0.094 C 
ATOM      4  C1  <0> d          -0.120   1.326   0.325  0.00  0.00     0.033 C 
BRANCH   3   5
ATOM      5  C3  <0> d          -1.290  -0.882   0.315  0.00  0.00     0.034 C 
ATOM      6  C7  <0> d          -1.936  -0.546   1.661  0.00  0.00     0.238 C 
ATOM      7  N1  <0> d          -3.242  -1.207   1.760  0.00  0.00    -0.075 N 
ATOM      8  C6  <0> d          -4.142  -0.692   0.721  0.00  0.00     0.232 C 
ATOM      9  H12 <0> d          -3.642  -1.027   2.669  0.00  0.00     0.277 HD
ATOM     10  H19 <0> d          -3.124  -2.202   1.638  0.00  0.00     0.277 HD
ATOM     11  C5  <0> d          -3.581  -1.035  -0.661  0.00  0.00     0.028 C 
ATOM     12  C4  <0> d          -2.199  -0.395  -0.818  0.00  0.00     0.010 C 
ENDBRANCH   3   5
ENDBRANCH   1   3
BRANCH   1  13
ATOM     13  S1  <0> d           2.324  -0.731  -1.179  0.00  0.00     0.261 S 
ATOM     14  O1  <0> d           2.676  -1.638  -0.144  0.00  0.00    -0.200 OA
ATOM     15  O2  <0> d           2.615  -0.985  -2.547  0.00  0.00    -0.200 OA
BRANCH  13  16
ATOM     16  C8  <0> d           3.084   0.808  -0.781  0.00  0.00     0.111 A 
ATOM     17  C13 <0> d           2.889   1.935  -1.624  0.00  0.00     0.119 A 
ATOM     18  C12 <0> d           3.530   3.194  -1.259  0.00  0.00     0.098 A 
ATOM     19  N3  <0> d           2.171   2.019  -2.745  0.00  0.00    -0.190 NA
ATOM     20  C11 <0> d           4.328   3.229  -0.083  0.00  0.00     0.035 A 
ATOM     21  N4  <0> d           3.272   4.182  -2.116  0.00  0.00    -0.191 NA
ATOM     22  C10 <0> d           4.476   2.115   0.671  0.00  0.00     0.004 A 
ATOM     23  C9  <0> d           3.858   0.913   0.325  0.00  0.00     0.028 A 
ATOM     24  S2  <0> d           2.327   3.539  -3.248  0.00  0.00     0.117 SA
ENDBRANCH  13  16
ENDBRANCH   1  13
TORSDOF 4
