REMARK  5 active torsions:
REMARK  status: ('A' for Active; 'I' for Inactive)
REMARK    1  A    between atoms: C2_2  and  C4_4 
REMARK    2  A    between atoms: C2_2  and  N1_6 
REMARK    3  A    between atoms: C4_4  and  O1_5 
REMARK    4  A    between atoms: N1_6  and  S1_7 
REMARK    5  A    between atoms: S1_7  and  N2_10 
ROOT
ATOM      1  N1  <0> d          -0.253   2.232   1.360  0.00  0.00    -0.291 N 
ATOM      2  H10 <0> d           0.162   2.875   2.151  0.00  0.00     0.174 HD
ENDROOT
BRANCH   1   3
ATOM      3  C2  <0> d          -1.549   1.577   1.554  0.00  0.00     0.055 C 
ATOM      4  C1  <0> d          -2.512   2.012   0.448  0.00  0.00     0.041 C 
ATOM      5  C3  <0> d          -1.365   0.059   1.503  0.00  0.00     0.041 C 
BRANCH   3   6
ATOM      6  C4  <0> d          -2.123   1.975   2.916  0.00  0.00     0.194 C 
BRANCH   6   7
ATOM      7  O1  <0> d          -3.387   1.336   3.105  0.00  0.00    -0.398 OA
ATOM      8  H9  <0> d          -3.955   1.504   4.032  0.00  0.00     0.209 HD
ENDBRANCH   6   7
ENDBRANCH   3   6
ENDBRANCH   1   3
BRANCH   1   9
ATOM      9  S1  <0> d           0.470   2.212  -0.129  0.00  0.00     0.317 S 
ATOM     10  O2  <0> d           0.054   1.012  -0.766  0.00  0.00    -0.183 OA
ATOM     11  O3  <0> d           1.840   2.528   0.080  0.00  0.00    -0.183 OA
BRANCH   9  12
ATOM     12  N2  <0> d          -0.175   3.461  -1.004  0.00  0.00    -0.303 N 
ATOM     13  C5  <0> d           0.274   4.834  -0.762  0.00  0.00     0.163 C 
ATOM     14  C6  <0> d          -1.195   3.192  -2.021  0.00  0.00     0.163 C 
ENDBRANCH   9  12
ENDBRANCH   1   9
TORSDOF 5
