REMARK  7 active torsions:
REMARK  status: ('A' for Active; 'I' for Inactive)
REMARK    1  A    between atoms: N2_10  and  C14_20 
REMARK    2  A    between atoms: N3_13  and  C11_16 
REMARK    3  A    between atoms: C11_16  and  C12_17 
REMARK    4  A    between atoms: C12_17  and  C13_18 
REMARK    5  A    between atoms: C13_18  and  O3_19 
REMARK    6  A    between atoms: C14_20  and  C15_21 
REMARK    7  A    between atoms: C15_21  and  N4_22 
ROOT
ATOM      1  C1  <0> d           2.018   0.021   1.879  0.00  0.00     0.046 C 
ATOM      2  C2  <0> d           2.353   0.107   0.388  0.00  0.00     0.059 C 
ATOM      3  C3  <0> d           2.497   1.573  -0.022  0.00  0.00     0.097 C 
ATOM      4  C4  <0> d           1.146   2.246   0.003  0.00  0.00     0.048 A 
ATOM      5  C5  <0> d          -0.018   1.501   0.010  0.00  0.00    -0.009 A 
ATOM      6  C6  <0> d          -1.245   2.149   0.031  0.00  0.00     0.032 A 
ATOM      7  C7  <0> d          -1.253   3.542   0.036  0.00  0.00     0.079 A 
ATOM      8  C8  <0> d          -0.031   4.238   0.031  0.00  0.00     0.149 A 
ATOM      9  N1  <0> d           1.108   3.570   0.015  0.00  0.00    -0.234 NA
ATOM     10  N2  <0> d          -0.060   5.621   0.043  0.00  0.00    -0.281 N 
ATOM     11  C9  <0> d          -1.229   6.284   0.057  0.00  0.00     0.333 A 
ATOM     12  O1  <0> d          -1.206   7.500   0.067  0.00  0.00    -0.246 OA
ATOM     13  N3  <0> d          -2.420   5.665   0.061  0.00  0.00    -0.265 N 
ATOM     14  C10 <0> d          -2.505   4.317   0.052  0.00  0.00     0.265 A 
ATOM     15  O2  <0> d          -3.585   3.759   0.057  0.00  0.00    -0.267 OA
ATOM     16  C20 <0> d           0.002  -0.004   0.002  0.00  0.00     0.209 C 
ATOM     17  O5  <0> d           1.294  -0.478  -0.378  0.00  0.00    -0.376 OA
ATOM     18  C21 <0> d           3.660  -0.639   0.112  0.00  0.00     0.046 C 
ENDROOT
BRANCH  10  19
ATOM     19  C14 <0> d           1.198   6.372   0.040  0.00  0.00     0.166 C 
BRANCH  19  20
ATOM     20  C15 <0> d           1.625   6.645  -1.404  0.00  0.00     0.293 C 
BRANCH  20  21
ATOM     21  N4  <0> d           2.887   7.398  -1.407  0.00  0.00     0.094 N 
ATOM     22  C19 <0> d           3.452   7.474  -2.762  0.00  0.00     0.298 C 
ATOM     23  C18 <0> d           4.792   8.213  -2.709  0.00  0.00     0.198 C 
ATOM     24  O4  <0> d           4.595   9.506  -2.131  0.00  0.00    -0.388 OA
ATOM     25  C17 <0> d           4.046   9.469  -0.811  0.00  0.00     0.198 C 
ATOM     26  C16 <0> d           2.699   8.743  -0.844  0.00  0.00     0.298 C 
ENDBRANCH  20  21
ENDBRANCH  19  20
ENDBRANCH  10  19
BRANCH  13  27
ATOM     27  C11 <0> d          -3.647   6.465   0.076  0.00  0.00     0.139 C 
BRANCH  27  28
ATOM     28  C12 <0> d          -4.064   6.732   1.524  0.00  0.00     0.046 C 
BRANCH  28  29
ATOM     29  C13 <0> d          -5.346   7.567   1.540  0.00  0.00     0.165 C 
BRANCH  29  30
ATOM     30  O3  <0> d          -5.735   7.817   2.892  0.00  0.00    -0.401 OA
ATOM     31  H13 <0> d          -6.639   8.406   3.104  0.00  0.00     0.209 HD
ENDBRANCH  29  30
ENDBRANCH  28  29
ENDBRANCH  27  28
ENDBRANCH  13  27
TORSDOF 7
