REMARK  8 active torsions:
REMARK  status: ('A' for Active; 'I' for Inactive)
REMARK    1  A    between atoms: C6_6  and  O1_7 
REMARK    2  A    between atoms: O1_7  and  C7_8 
REMARK    3  A    between atoms: C7_8  and  C8_9 
REMARK    4  A    between atoms: C8_9  and  C9_10 
REMARK    5  A    between atoms: C8_9  and  O4_20 
REMARK    6  A    between atoms: C9_10  and  N1_11 
REMARK    7  A    between atoms: N1_11  and  C10_12 
REMARK    8  A    between atoms: C10_12  and  C11_13 
ROOT
ATOM      1  C8  <0> d          -2.476  -2.731   0.012  0.00  0.00     0.168 C 
ENDROOT
BRANCH   1   2
ATOM      2  C7  <0> d          -1.071  -2.126   0.001  0.00  0.00     0.209 C 
BRANCH   2   3
ATOM      3  O1  <0> d          -1.165  -0.700   0.010  0.00  0.00    -0.349 OA
BRANCH   3   4
ATOM      4  C6  <0> d           0.002  -0.004   0.002  0.00  0.00     0.069 A 
ATOM      5  C1  <0> d          -0.017   1.383   0.010  0.00  0.00     0.040 A 
ATOM      6  C2  <0> d           1.171   2.089   0.002  0.00  0.00     0.045 A 
ATOM      7  C3  <0> d           2.379   1.413  -0.013  0.00  0.00     0.116 A 
ATOM      8  C4  <0> d           2.399   0.029  -0.021  0.00  0.00     0.045 A 
ATOM      9  F1  <0> d           3.539   2.105  -0.020  0.00  0.00    -0.206 F 
ATOM     10  C5  <0> d           1.213  -0.680  -0.014  0.00  0.00     0.040 A 
ENDBRANCH   3   4
ENDBRANCH   2   3
ENDBRANCH   1   2
BRANCH   1  11
ATOM     11  C9  <0> d          -2.378  -4.252  -0.123  0.00  0.00     0.265 C 
BRANCH  11  12
ATOM     12  N1  <0> d          -3.727  -4.822  -0.233  0.00  0.00    -0.072 N 
ATOM     13  H11 <0> d          -4.258  -4.591   0.593  0.00  0.00     0.277 HD
ATOM     14  H21 <0> d          -4.188  -4.441  -1.046  0.00  0.00     0.277 HD
BRANCH  12  15
ATOM     15  C10 <0> d          -3.633  -6.282  -0.362  0.00  0.00     0.238 C 
BRANCH  15  16
ATOM     16  C11 <0> d          -5.038  -6.876  -0.477  0.00  0.00     0.026 C 
ATOM     17  C14 <0> d          -4.947  -8.421  -0.464  0.00  0.00     0.146 C 
ATOM     18  S1  <0> d          -6.361  -8.920  -1.526  0.00  0.00     0.144 S 
ATOM     19  C13 <0> d          -6.965  -7.254  -2.032  0.00  0.00     0.141 C 
ATOM     20  O2  <0> d          -5.862  -9.598  -2.671  0.00  0.00    -0.228 OA
ATOM     21  O3  <0> d          -7.350  -9.545  -0.719  0.00  0.00    -0.228 OA
ATOM     22  C12 <0> d          -5.687  -6.402  -1.788  0.00  0.00     0.022 C 
ENDBRANCH  15  16
ENDBRANCH  12  15
ENDBRANCH  11  12
ENDBRANCH   1  11
BRANCH   1  23
ATOM     23  O4  <0> d          -3.126  -2.403   1.241  0.00  0.00    -0.392 OA
ATOM     24  H20 <0> d          -2.669  -2.730   2.028  0.00  0.00     0.210 HD
ENDBRANCH   1  23
TORSDOF 8
