REMARK  3 active torsions:
REMARK  status: ('A' for Active; 'I' for Inactive)
REMARK    1  A    between atoms: C4_4  and  C7_7 
REMARK    2  A    between atoms: C14_15  and  C21_27 
REMARK    3  A    between atoms: C15_16  and  C16_17 
ROOT
ATOM      1  C7  <0> d           0.221  -0.279  -0.417  0.00  0.00     0.090 C 
ATOM      2  C8  <0> d          -0.410   1.060  -0.141  0.00  0.00    -0.011 A 
ATOM      3  C9  <0> d          -1.780   1.202  -0.268  0.00  0.00     0.011 A 
ATOM      4  C10 <0> d          -2.378   2.424  -0.025  0.00  0.00     0.001 A 
ATOM      5  C11 <0> d          -1.608   3.507   0.358  0.00  0.00     0.003 A 
ATOM      6  C12 <0> d          -0.241   3.369   0.491  0.00  0.00     0.038 A 
ATOM      7  C13 <0> d           0.364   2.143   0.242  0.00  0.00     0.083 A 
ATOM      8  O1  <0> d           1.708   2.029   0.379  0.00  0.00    -0.309 OA
ATOM      9  C14 <0> d           2.267   0.818   0.532  0.00  0.00     0.093 C 
ATOM     10  C15 <0> d           1.604  -0.333   0.169  0.00  0.00    -0.009 C 
ENDROOT
BRANCH  10  11
ATOM     11  C16 <0> d           2.224  -1.565   0.346  0.00  0.00     0.034 C 
ATOM     12  C17 <0> d           1.709  -2.480   1.267  0.00  0.00     0.101 A 
ATOM     13  C20 <0> d           2.263  -3.837   1.392  0.00  0.00     0.265 A 
ATOM     14  C18 <0> d           0.593  -2.126   2.157  0.00  0.00     0.265 A 
ATOM     15  N2  <0> d           1.716  -4.668   2.303  0.00  0.00    -0.275 N 
ATOM     16  O4  <0> d           3.190  -4.200   0.692  0.00  0.00    -0.267 OA
ATOM     17  C19 <0> d           0.695  -4.281   3.080  0.00  0.00     0.329 A 
ATOM     18  H13 <0> d           2.070  -5.567   2.397  0.00  0.00     0.173 HD
ATOM     19  N1  <0> d           0.142  -3.061   3.019  0.00  0.00    -0.275 N 
ATOM     20  O3  <0> d           0.246  -5.078   3.881  0.00  0.00    -0.246 OA
ATOM     21  H12 <0> d          -0.595  -2.845   3.611  0.00  0.00     0.173 HD
ATOM     22  O2  <0> d           0.087  -1.020   2.115  0.00  0.00    -0.267 OA
ENDBRANCH  10  11
BRANCH   1  23
ATOM     23  C4  <0> d           0.304  -0.494  -1.906  0.00  0.00    -0.045 A 
ATOM     24  C3  <0> d          -0.413  -1.517  -2.498  0.00  0.00     0.008 A 
ATOM     25  C2  <0> d          -0.337  -1.715  -3.864  0.00  0.00     0.001 A 
ATOM     26  C1  <0> d           0.456  -0.889  -4.638  0.00  0.00     0.000 A 
ATOM     27  C6  <0> d           1.173   0.135  -4.047  0.00  0.00     0.001 A 
ATOM     28  C5  <0> d           1.093   0.335  -2.681  0.00  0.00     0.008 A 
ENDBRANCH   1  23
BRANCH   9  29
ATOM     29  C21 <0> d           3.622   0.719   1.102  0.00  0.00    -0.002 A 
ATOM     30  C26 <0> d           4.655   1.516   0.600  0.00  0.00     0.014 A 
ATOM     31  C25 <0> d           5.921   1.417   1.139  0.00  0.00     0.001 A 
ATOM     32  C24 <0> d           6.169   0.532   2.174  0.00  0.00     0.000 A 
ATOM     33  C23 <0> d           5.151  -0.260   2.676  0.00  0.00     0.001 A 
ATOM     34  C22 <0> d           3.879  -0.170   2.151  0.00  0.00     0.014 A 
ENDBRANCH   9  29
TORSDOF 3
