REMARK  4 active torsions:
REMARK  status: ('A' for Active; 'I' for Inactive)
REMARK    1  A    between atoms: N1_6  and  C7_8 
REMARK    2  A    between atoms: C10_11  and  N3_18 
REMARK    3  A    between atoms: C12_13  and  S1_14 
REMARK    4  A    between atoms: S1_14  and  N2_17 
ROOT
ATOM      1  C7  <0> d          -2.917   1.429  -2.330  0.00  0.00     0.034 A 
ATOM      2  C8  <0> d          -3.142   2.763  -2.646  0.00  0.00     0.028 A 
ATOM      3  C9  <0> d          -3.694   3.099  -3.866  0.00  0.00     0.038 A 
ATOM      4  C10 <0> d          -4.023   2.108  -4.774  0.00  0.00     0.104 A 
ATOM      5  C11 <0> d          -3.800   0.780  -4.463  0.00  0.00     0.063 A 
ATOM      6  C12 <0> d          -3.243   0.437  -3.247  0.00  0.00     0.102 A 
ENDROOT
BRANCH   1   7
ATOM      7  N1  <0> d          -2.359   1.086  -1.097  0.00  0.00    -0.281 NA
ATOM      8  C5  <0> d          -1.034   1.699  -0.930  0.00  0.00     0.100 C 
ATOM      9  C4  <0> d          -0.393   1.187   0.362  0.00  0.00    -0.005 C 
ATOM     10  C3  <0> d          -1.294   1.542   1.549  0.00  0.00     0.011 C 
ATOM     11  C13 <0> d           0.977   1.841   0.547  0.00  0.00     0.011 C 
ATOM     12  C2  <0> d          -2.681   0.932   1.327  0.00  0.00    -0.005 C 
ATOM     13  C1  <0> d          -3.605   1.332   2.479  0.00  0.00     0.011 C 
ATOM     14  C6  <0> d          -3.256   1.451   0.007  0.00  0.00     0.100 C 
ENDBRANCH   1   7
BRANCH   6  15
ATOM     15  S1  <0> d          -2.952  -1.256  -2.855  0.00  0.00     0.258 S 
ATOM     16  O1  <0> d          -3.479  -1.467  -1.552  0.00  0.00    -0.201 OA
ATOM     17  O2  <0> d          -3.377  -2.012  -3.980  0.00  0.00    -0.201 OA
BRANCH  15  18
ATOM     18  N2  <0> d          -1.313  -1.458  -2.740  0.00  0.00    -0.324 N 
ATOM     19  H15 <0> d          -0.723  -0.691  -2.814  0.00  0.00     0.169 HD
ATOM     20  H16 <0> d          -0.942  -2.343  -2.600  0.00  0.00     0.169 HD
ENDBRANCH  15  18
ENDBRANCH   6  15
BRANCH   4  21
ATOM     21  N3  <0> d          -4.614   2.472  -6.081  0.00  0.00    -0.116 N 
ATOM     22  O3  <0> d          -4.811   3.642  -6.356  0.00  0.00    -0.532 OA
ATOM     23  O4  <0> d          -4.904   1.601  -6.881  0.00  0.00    -0.532 OA
ENDBRANCH   4  21
TORSDOF 4
