REMARK  2 active torsions:
REMARK  status: ('A' for Active; 'I' for Inactive)
REMARK    1  A    between atoms: C2_2  and  C3_3 
REMARK    2  A    between atoms: C3_3  and  C7_8 
REMARK       I    between atoms: C7_8  and  N2_10 
ROOT
ATOM      1  C7  <0> d           2.188   0.162   1.417  0.00  0.00     0.235 C 
ATOM      2  O1  <0> d           3.154  -0.564   1.305  0.00  0.00    -0.272 OA
ATOM      3  N2  <0> d           2.357   1.472   1.686  0.00  0.00    -0.306 N 
ATOM      4  C8  <0> d           1.213   2.394   1.717  0.00  0.00     0.235 C 
ATOM      5  C9  <0> d           1.599   3.680   1.032  0.00  0.00     0.240 C 
ATOM      6  O2  <0> d           0.748   4.343   0.479  0.00  0.00    -0.271 OA
ATOM      7  N3  <0> d           2.878   4.101   1.026  0.00  0.00    -0.324 N 
ATOM      8  C10 <0> d           3.887   3.331   1.614  0.00  0.00     0.061 A 
ATOM      9  C11 <0> d           3.631   1.998   1.951  0.00  0.00     0.064 A 
ATOM     10  C12 <0> d           4.618   1.222   2.531  0.00  0.00     0.032 A 
ATOM     11  C13 <0> d           5.863   1.771   2.784  0.00  0.00     0.002 A 
ATOM     12  C14 <0> d           6.120   3.090   2.459  0.00  0.00     0.002 A 
ATOM     13  C15 <0> d           5.136   3.874   1.868  0.00  0.00     0.032 A 
ATOM     14  H15 <0> d           3.102   4.949   0.611  0.00  0.00     0.169 HD
ENDROOT
BRANCH   1  15
ATOM     15  C3  <0> d           0.800  -0.401   1.256  0.00  0.00     0.066 C 
ATOM     16  C6  <0> d           0.132   0.149  -0.021  0.00  0.00     0.251 C 
ATOM     17  N1  <0> d           0.337  -0.850  -1.086  0.00  0.00    -0.074 N 
ATOM     18  C5  <0> d           1.117  -1.976  -0.531  0.00  0.00     0.233 C 
ATOM     19  H10 <0> d           0.842  -0.431  -1.852  0.00  0.00     0.277 HD
ATOM     20  H20 <0> d          -0.557  -1.185  -1.413  0.00  0.00     0.277 HD
ATOM     21  C4  <0> d           0.850  -1.929   0.994  0.00  0.00     0.048 C 
BRANCH  15  22
ATOM     22  C2  <0> d          -0.053  -0.092   2.489  0.00  0.00     0.016 C 
ATOM     23  C1  <0> d           0.691  -0.538   3.749  0.00  0.00     0.006 C 
ENDBRANCH  15  22
ENDBRANCH   1  15
TORSDOF 2
