REMARK  4 active torsions:
REMARK  status: ('A' for Active; 'I' for Inactive)
REMARK    1  A    between atoms: N1_2  and  C2_3 
REMARK    2  A    between atoms: N1_2  and  C12_15 
REMARK    3  A    between atoms: C2_3  and  C3_4 
REMARK    4  A    between atoms: C5_7  and  C6_9 
ROOT
ATOM      1  C3  <0> d          -0.073  -0.186   2.424  0.00  0.00     0.070 A 
ATOM      2  C4  <0> d          -0.943  -1.089   2.952  0.00  0.00     0.081 A 
ATOM      3  S1  <0> d          -1.554  -0.173   4.361  0.00  0.00    -0.079 SA
ATOM      4  C5  <0> d          -0.588   1.308   4.094  0.00  0.00     0.108 A 
ATOM      5  N2  <0> d           0.089   0.980   3.002  0.00  0.00    -0.243 NA
ENDROOT
BRANCH   1   6
ATOM      6  C2  <0> d           0.706  -0.527   1.180  0.00  0.00     0.332 C 
BRANCH   6   7
ATOM      7  N1  <0> d           0.002  -0.004   0.002  0.00  0.00     0.094 N 
ATOM      8  C1  <0> d          -0.018   1.465   0.010  0.00  0.00     0.310 C 
BRANCH   7   9
ATOM      9  C12 <0> d           0.600  -0.516  -1.239  0.00  0.00     0.226 C 
ATOM     10  C16 <0> d          -0.233  -0.051  -2.437  0.00  0.00     0.063 C 
ATOM     11  C15 <0> d           0.438  -0.520  -3.730  0.00  0.00     0.234 C 
ATOM     12  N3  <0> d           1.788   0.050  -3.819  0.00  0.00    -0.075 N 
ATOM     13  C14 <0> d           2.613  -0.448  -2.712  0.00  0.00     0.234 C 
ATOM     14  H17 <0> d           1.731   1.056  -3.769  0.00  0.00     0.277 HD
ATOM     15  H22 <0> d           2.208  -0.217  -4.697  0.00  0.00     0.277 HD
ATOM     16  C13 <0> d           2.026   0.024  -1.381  0.00  0.00     0.063 C 
ENDBRANCH   7   9
ENDBRANCH   6   7
ENDBRANCH   1   6
BRANCH   4  17
ATOM     17  C6  <0> d          -0.550   2.559   4.881  0.00  0.00    -0.000 A 
ATOM     18  C11 <0> d          -1.351   2.697   6.016  0.00  0.00     0.014 A 
ATOM     19  C10 <0> d          -1.306   3.864   6.750  0.00  0.00     0.001 A 
ATOM     20  C9  <0> d          -0.480   4.901   6.357  0.00  0.00     0.000 A 
ATOM     21  C8  <0> d           0.311   4.773   5.229  0.00  0.00     0.001 A 
ATOM     22  C7  <0> d           0.281   3.609   4.490  0.00  0.00     0.014 A 
ENDBRANCH   4  17
TORSDOF 4
