REMARK  4 active torsions:
REMARK  status: ('A' for Active; 'I' for Inactive)
REMARK    1  A    between atoms: C3_3  and  O3_15 
REMARK    2  A    between atoms: C6_6  and  C7_7 
REMARK    3  A    between atoms: C8_9  and  C10_12 
REMARK    4  A    between atoms: O3_15  and  C11_16 
ROOT
ATOM      1  C1  <0> d           1.213  -0.672   0.111  0.00  0.00     0.013 A 
ATOM      2  C2  <0> d           0.006   0.001   0.126  0.00  0.00     0.037 A 
ATOM      3  C3  <0> d          -0.017   1.383   0.010  0.00  0.00     0.074 A 
ATOM      4  C4  <0> d           1.172   2.086  -0.122  0.00  0.00     0.037 A 
ATOM      5  C5  <0> d           2.376   1.408  -0.137  0.00  0.00     0.013 A 
ATOM      6  C6  <0> d           2.396   0.030  -0.021  0.00  0.00    -0.018 A 
ENDROOT
BRANCH   6   7
ATOM      7  C7  <0> d           3.711  -0.707  -0.037  0.00  0.00     0.281 C 
ATOM      8  S1  <0> d           4.553  -0.504  -1.661  0.00  0.00    -0.129 SA
ATOM      9  C9  <0> d           6.126   0.249  -1.058  0.00  0.00     0.120 C 
ATOM     10  C8  <0> d           6.067  -0.205   0.431  0.00  0.00     0.296 C 
ATOM     11  N1  <0> d           4.677  -0.085   0.906  0.00  0.00    -0.043 N 
ATOM     12  H7  <0> d           4.443   0.985   1.017  0.00  0.00     0.280 HD
ATOM     13  H11 <0> d           4.604  -0.580   1.885  0.00  0.00     0.280 HD
BRANCH  10  14
ATOM     14  C10 <0> d           6.964   0.673   1.266  0.00  0.00     0.205 C 
ATOM     15  O1  <0> d           6.491   1.576   1.915  0.00  0.00    -0.646 OA
ATOM     16  O2  <0> d           8.288   0.452   1.288  0.00  0.00    -0.646 OA
ENDBRANCH  10  14
ENDBRANCH   6   7
BRANCH   3  17
ATOM     17  O3  <0> d          -1.202   2.047   0.019  0.00  0.00    -0.290 OA
BRANCH  17  18
ATOM     18  C11 <0> d          -1.150   3.470  -0.105  0.00  0.00     0.505 C 
ATOM     19  F1  <0> d          -0.412   4.004   0.956  0.00  0.00    -0.184 F 
ATOM     20  F2  <0> d          -0.538   3.810  -1.317  0.00  0.00    -0.184 F 
ENDBRANCH  17  18
ENDBRANCH   3  17
TORSDOF 4
