REMARK  7 active torsions:
REMARK  status: ('A' for Active; 'I' for Inactive)
REMARK    1  A    between atoms: C4_4  and  C7_7 
REMARK       I    between atoms: C7_7  and  N1_9 
REMARK    2  A    between atoms: N1_9  and  C8_10 
REMARK    3  A    between atoms: C8_10  and  C15_18 
REMARK    4  A    between atoms: C9_11  and  C10_12 
REMARK       I    between atoms: C15_18  and  N3_20 
REMARK    5  A    between atoms: N3_20  and  C16_21 
REMARK    6  A    between atoms: C19_24  and  S1_27 
REMARK    7  A    between atoms: S1_27  and  N4_30 
ROOT
ATOM      1  C8  <0> d           4.951  -2.873   0.353  0.00  0.00     0.104 C 
ATOM      2  C9  <0> d           6.038  -2.223  -0.118  0.00  0.00     0.046 C 
ENDROOT
BRANCH   1   3
ATOM      3  N1  <0> d           3.802  -2.158   0.693  0.00  0.00    -0.318 N 
ATOM      4  C7  <0> d           3.351  -2.172   1.963  0.00  0.00     0.256 C 
ATOM      5  O1  <0> d           3.969  -2.773   2.821  0.00  0.00    -0.267 OA
ATOM      6  H6  <0> d           3.329  -1.649   0.016  0.00  0.00     0.169 HD
BRANCH   4   7
ATOM      7  C4  <0> d           2.105  -1.459   2.313  0.00  0.00     0.032 A 
ATOM      8  C3  <0> d           1.580  -1.555   3.603  0.00  0.00     0.017 A 
ATOM      9  C2  <0> d           0.417  -0.886   3.923  0.00  0.00     0.001 A 
ATOM     10  C1  <0> d          -0.230  -0.121   2.969  0.00  0.00     0.000 A 
ATOM     11  C6  <0> d           0.285  -0.021   1.688  0.00  0.00     0.001 A 
ATOM     12  C5  <0> d           1.447  -0.685   1.355  0.00  0.00     0.017 A 
ENDBRANCH   4   7
ENDBRANCH   1   3
BRANCH   1  13
ATOM     13  C15 <0> d           4.978  -4.338   0.505  0.00  0.00     0.272 C 
ATOM     14  O2  <0> d           3.999  -4.923   0.929  0.00  0.00    -0.266 OA
ATOM     15  N3  <0> d           6.087  -5.029   0.176  0.00  0.00    -0.322 N 
ATOM     16  H12 <0> d           6.884  -4.558  -0.112  0.00  0.00     0.169 HD
BRANCH  15  17
ATOM     17  C16 <0> d           6.088  -6.425   0.250  0.00  0.00     0.035 A 
ATOM     18  C21 <0> d           4.937  -7.139  -0.059  0.00  0.00     0.031 A 
ATOM     19  C20 <0> d           4.942  -8.518   0.010  0.00  0.00     0.027 A 
ATOM     20  C19 <0> d           6.089  -9.188   0.396  0.00  0.00     0.079 A 
ATOM     21  C18 <0> d           7.235  -8.480   0.709  0.00  0.00     0.027 A 
ATOM     22  C17 <0> d           7.238  -7.101   0.637  0.00  0.00     0.031 A 
BRANCH  20  23
ATOM     23  S1  <0> d           6.090 -10.948   0.488  0.00  0.00     0.256 S 
ATOM     24  O3  <0> d           5.060 -11.401  -0.380  0.00  0.00    -0.201 OA
ATOM     25  O4  <0> d           7.442 -11.361   0.346  0.00  0.00    -0.201 OA
BRANCH  23  26
ATOM     26  N4  <0> d           5.629 -11.358   2.025  0.00  0.00    -0.324 N 
ATOM     27  H17 <0> d           5.420 -10.664   2.670  0.00  0.00     0.169 HD
ATOM     28  H18 <0> d           5.567 -12.292   2.280  0.00  0.00     0.169 HD
ENDBRANCH  23  26
ENDBRANCH  20  23
ENDBRANCH  15  17
ENDBRANCH   1  13
BRANCH   2  29
ATOM     29  C10 <0> d           6.071  -0.751  -0.122  0.00  0.00    -0.031 A 
ATOM     30  C14 <0> d           7.093  -0.054  -0.782  0.00  0.00     0.030 A 
ATOM     31  C13 <0> d           7.081   1.325  -0.764  0.00  0.00     0.117 A 
ATOM     32  N2  <0> d           6.131   1.986  -0.130  0.00  0.00    -0.273 NA
ATOM     33  C12 <0> d           5.154   1.371   0.508  0.00  0.00     0.117 A 
ATOM     34  C11 <0> d           5.083  -0.006   0.538  0.00  0.00     0.030 A 
ENDBRANCH   2  29
TORSDOF 7
