REMARK  4 active torsions:
REMARK  status: ('A' for Active; 'I' for Inactive)
REMARK    1  A    between atoms: C2_2  and  C4_4 
REMARK    2  A    between atoms: C2_2  and  N1_11 
REMARK    3  A    between atoms: N1_11  and  S1_12 
REMARK    4  A    between atoms: S1_12  and  C10_15 
ROOT
ATOM      1  S1  <0> d           2.126  -0.775  -1.412  0.00  0.00     0.259 S 
ATOM      2  O1  <0> d           2.433  -1.453  -0.201  0.00  0.00    -0.201 OA
ATOM      3  O2  <0> d           2.412  -1.330  -2.688  0.00  0.00    -0.201 OA
ENDROOT
BRANCH   1   4
ATOM      4  N1  <0> d           0.498  -0.469  -1.383  0.00  0.00    -0.302 N 
ATOM      5  H13 <0> d          -0.058  -0.729  -2.134  0.00  0.00     0.173 HD
BRANCH   4   6
ATOM      6  C2  <0> d          -0.101   0.195  -0.223  0.00  0.00     0.060 C 
ATOM      7  C1  <0> d           0.173   1.698  -0.298  0.00  0.00     0.044 C 
ATOM      8  C3  <0> d           0.509  -0.371   1.061  0.00  0.00     0.044 C 
BRANCH   6   9
ATOM      9  C4  <0> d          -1.589  -0.045  -0.221  0.00  0.00    -0.030 A 
ATOM     10  C9  <0> d          -2.425   0.807   0.476  0.00  0.00     0.011 A 
ATOM     11  C8  <0> d          -3.791   0.590   0.475  0.00  0.00     0.019 A 
ATOM     12  C7  <0> d          -4.319  -0.486  -0.215  0.00  0.00     0.011 A 
ATOM     13  C6  <0> d          -3.481  -1.341  -0.908  0.00  0.00     0.019 A 
ATOM     14 Br1  <0> d          -6.186  -0.787  -0.212  0.00  0.00    -0.051 Br
ATOM     15  C5  <0> d          -2.117  -1.121  -0.910  0.00  0.00     0.011 A 
ENDBRANCH   6   9
ENDBRANCH   4   6
ENDBRANCH   1   4
BRANCH   1  16
ATOM     16  C10 <0> d           2.950   0.780  -1.342  0.00  0.00     0.080 A 
ATOM     17  C15 <0> d           3.402   1.262  -0.131  0.00  0.00     0.044 A 
ATOM     18  C14 <0> d           4.057   2.491  -0.083  0.00  0.00     0.060 A 
ATOM     19  C13 <0> d           4.244   3.234  -1.262  0.00  0.00     0.052 A 
ATOM     20  C16 <0> d           4.564   3.050   1.182  0.00  0.00     0.261 A 
ATOM     21  C12 <0> d           3.779   2.736  -2.469  0.00  0.00     0.032 A 
ATOM     22  N3  <0> d           4.895   4.457  -1.183  0.00  0.00    -0.308 N 
ATOM     23  C11 <0> d           3.135   1.514  -2.503  0.00  0.00     0.027 A 
ATOM     24  C17 <0> d           5.338   4.922  -0.002  0.00  0.00     0.327 A 
ATOM     25  H2  <0> d           5.032   4.981  -1.988  0.00  0.00     0.170 HD
ATOM     26  N2  <0> d           5.184   4.250   1.149  0.00  0.00    -0.275 N 
ATOM     27  O4  <0> d           5.904   5.998   0.024  0.00  0.00    -0.247 OA
ATOM     28  H1  <0> d           5.524   4.633   1.973  0.00  0.00     0.173 HD
ATOM     29  O3  <0> d           4.428   2.447   2.230  0.00  0.00    -0.267 OA
ENDBRANCH   1  16
TORSDOF 4
