REMARK  5 active torsions:
REMARK  status: ('A' for Active; 'I' for Inactive)
REMARK    1  A    between atoms: N1_7  and  S1_8 
REMARK    2  A    between atoms: S1_8  and  N2_11 
REMARK    3  A    between atoms: N2_11  and  C7_12 
REMARK    4  A    between atoms: C7_12  and  C8_13 
REMARK    5  A    between atoms: C8_13  and  N3_14 
ROOT
ATOM      1  N2  <0> d           0.273   0.674   3.461  0.00  0.00    -0.301 N 
ATOM      2  H13 <0> d          -0.235   1.479   3.647  0.00  0.00     0.173 HD
ENDROOT
BRANCH   1   3
ATOM      3  S1  <0> d           1.349   0.648   2.203  0.00  0.00     0.317 S 
ATOM      4  O1  <0> d           2.562   0.116   2.717  0.00  0.00    -0.183 OA
ATOM      5  O2  <0> d           1.280   1.924   1.582  0.00  0.00    -0.183 OA
BRANCH   3   6
ATOM      6  N1  <0> d           0.783  -0.448   1.097  0.00  0.00    -0.290 N 
ATOM      7  C2  <0> d          -0.364  -0.120   0.239  0.00  0.00     0.093 C 
ATOM      8  C1  <0> d          -0.754   1.345   0.441  0.00  0.00     0.033 C 
ATOM      9  C3  <0> d           0.029  -0.350  -1.224  0.00  0.00     0.026 C 
ATOM     10  C4  <0> d           0.550  -1.779  -1.389  0.00  0.00     0.004 C 
ATOM     11  C5  <0> d           1.794  -1.975  -0.518  0.00  0.00     0.021 C 
ATOM     12  C6  <0> d           1.420  -1.764   0.953  0.00  0.00     0.137 C 
ENDBRANCH   3   6
ENDBRANCH   1   3
BRANCH   1  13
ATOM     13  C7  <0> d           0.089  -0.517   4.293  0.00  0.00     0.154 C 
BRANCH  13  14
ATOM     14  C8  <0> d          -0.649  -0.134   5.577  0.00  0.00     0.156 C 
BRANCH  14  15
ATOM     15  N3  <0> d          -0.833  -1.325   6.409  0.00  0.00    -0.277 N 
ATOM     16  C11 <0> d           0.125  -1.632   7.304  0.00  0.00     0.289 A 
ATOM     17  S2  <0> d          -0.483  -3.118   8.088  0.00  0.00    -0.059 SA
ATOM     18  O4  <0> d           1.161  -1.037   7.527  0.00  0.00    -0.260 OA
ATOM     19  C10 <0> d          -2.052  -3.269   7.136  0.00  0.00     0.187 A 
ATOM     20  C9  <0> d          -1.928  -2.046   6.238  0.00  0.00     0.236 A 
ATOM     21  O3  <0> d          -2.776  -1.753   5.422  0.00  0.00    -0.272 OA
ENDBRANCH  14  15
ENDBRANCH  13  14
ENDBRANCH   1  13
TORSDOF 5
