REMARK  6 active torsions:
REMARK  status: ('A' for Active; 'I' for Inactive)
REMARK    1  A    between atoms: C4_6  and  C5_7 
REMARK    2  A    between atoms: C5_7  and  N3_8 
REMARK    3  A    between atoms: N4_11  and  C10_14 
REMARK    4  A    between atoms: C11_15  and  N9_23 
REMARK    5  A    between atoms: N9_23  and  C14_24 
REMARK    6  A    between atoms: C14_24  and  C15_25 
ROOT
ATOM      1  C10 <0> d          -3.841  -1.604  -4.840  0.00  0.00     0.154 A 
ATOM      2  C11 <0> d          -4.973  -0.874  -5.428  0.00  0.00     0.167 A 
ATOM      3  N5  <0> d          -5.354  -1.111  -6.665  0.00  0.00    -0.203 NA
ATOM      4  C12 <0> d          -4.702  -2.026  -7.395  0.00  0.00     0.231 A 
ATOM      5  C13 <0> d          -3.560  -2.762  -6.801  0.00  0.00     0.231 A 
ATOM      6  N6  <0> d          -3.185  -2.503  -5.542  0.00  0.00    -0.207 NA
ATOM      7  N7  <0> d          -3.184  -3.550  -7.780  0.00  0.00    -0.081 NA
ATOM      8  O1  <0> d          -3.901  -3.360  -8.741  0.00  0.00    -0.103 OA
ATOM      9  N8  <0> d          -4.771  -2.526  -8.605  0.00  0.00    -0.081 NA
ENDROOT
BRANCH   1  10
ATOM     10  N4  <0> d          -3.459  -1.339  -3.540  0.00  0.00    -0.261 NA
ATOM     11  C7  <0> d          -2.407  -0.314  -3.499  0.00  0.00     0.127 C 
ATOM     12  C6  <0> d          -2.068   0.008  -2.042  0.00  0.00     0.287 C 
ATOM     13  N3  <0> d          -1.631  -1.219  -1.361  0.00  0.00     0.097 N 
ATOM     14  C9  <0> d          -2.684  -2.244  -1.402  0.00  0.00     0.287 C 
ATOM     15  C8  <0> d          -3.022  -2.566  -2.859  0.00  0.00     0.127 C 
BRANCH  13  16
ATOM     16  C5  <0> d          -1.225  -0.937   0.022  0.00  0.00     0.348 C 
BRANCH  16  17
ATOM     17  C4  <0> d           0.011  -0.075   0.017  0.00  0.00     0.111 A 
ATOM     18  N1  <0> d           0.029   1.275   0.015  0.00  0.00    -0.348 N 
ATOM     19  C1  <0> d          -1.139   2.160   0.012  0.00  0.00     0.157 C 
ATOM     20  C2  <0> d           1.341   1.663   0.011  0.00  0.00     0.108 A 
ATOM     21  C3  <0> d           2.080   0.537   0.010  0.00  0.00     0.106 A 
ATOM     22  N2  <0> d           1.242  -0.509   0.013  0.00  0.00    -0.353 N 
ATOM     23  H24 <0> d           1.641  -1.534   0.014  0.00  0.00     0.166 HD
ENDBRANCH  16  17
ENDBRANCH  13  16
ENDBRANCH   1  10
BRANCH   2  24
ATOM     24  N9  <0> d          -5.643   0.069  -4.675  0.00  0.00    -0.368 N 
ATOM     25  H16 <0> d          -5.278   0.332  -3.671  0.00  0.00     0.161 HD
BRANCH  24  26
ATOM     26  C14 <0> d          -6.840   0.721  -5.213  0.00  0.00     0.160 C 
BRANCH  26  27
ATOM     27  C15 <0> d          -7.376   1.700  -4.202  0.00  0.00    -0.041 A 
ATOM     28  C20 <0> d          -6.940   3.012  -4.211  0.00  0.00     0.009 A 
ATOM     29  C19 <0> d          -7.433   3.911  -3.284  0.00  0.00     0.001 A 
ATOM     30  C18 <0> d          -8.361   3.498  -2.346  0.00  0.00     0.000 A 
ATOM     31  C17 <0> d          -8.797   2.186  -2.337  0.00  0.00     0.001 A 
ATOM     32  C16 <0> d          -8.309   1.289  -3.268  0.00  0.00     0.009 A 
ENDBRANCH  26  27
ENDBRANCH  24  26
ENDBRANCH   2  24
TORSDOF 6
