REMARK  3 active torsions:
REMARK  status: ('A' for Active; 'I' for Inactive)
REMARK    1  A    between atoms: C5_5  and  C9_9 
REMARK    2  A    between atoms: C12_14  and  C13_16 
REMARK       I    between atoms: C13_16  and  N2_18 
REMARK    3  A    between atoms: N2_18  and  C14_19 
ROOT
ATOM      1  C14 <0> d          -3.042  -5.755   1.771  0.00  0.00     0.216 C 
ATOM      2  C15 <0> d          -3.729  -4.526   2.199  0.00  0.00    -0.098 C 
ATOM      3  C16 <0> d          -4.277  -3.545   2.541  0.00  0.00     0.014 C 
ENDROOT
BRANCH   1   4
ATOM      4  N2  <0> d          -2.263  -5.482   0.560  0.00  0.00    -0.349 N 
ATOM      5  C13 <0> d          -1.546  -6.468  -0.016  0.00  0.00     0.250 C 
ATOM      6  O2  <0> d          -1.546  -7.580   0.468  0.00  0.00    -0.271 OA
ATOM      7  H17 <0> d          -2.264  -4.593   0.173  0.00  0.00     0.163 HD
BRANCH   5   8
ATOM      8  C12 <0> d          -0.746  -6.187  -1.261  0.00  0.00     0.289 C 
ATOM      9  C11 <0> d           0.468  -7.123  -1.308  0.00  0.00     0.151 C 
ATOM     10  S1  <0> d           1.450  -6.860   0.202  0.00  0.00     0.019 S 
ATOM     11  C10 <0> d           1.630  -5.049   0.249  0.00  0.00     0.146 C 
ATOM     12  O1  <0> d           0.706  -7.292   1.333  0.00  0.00    -0.258 OA
ATOM     13  C9  <0> d           0.242  -4.423   0.063  0.00  0.00     0.231 C 
ATOM     14  N1  <0> d          -0.296  -4.793  -1.248  0.00  0.00    -0.052 N 
ATOM     15  H16 <0> d          -1.078  -4.193  -1.465  0.00  0.00     0.279 HD
ATOM     16  H21 <0> d           0.420  -4.668  -1.947  0.00  0.00     0.279 HD
BRANCH  13  17
ATOM     17  C5  <0> d           0.353  -2.923   0.153  0.00  0.00    -0.021 A 
ATOM     18  C4  <0> d           0.378  -2.161  -1.000  0.00  0.00     0.010 A 
ATOM     19  C3  <0> d           0.479  -0.785  -0.916  0.00  0.00     0.007 A 
ATOM     20  C2  <0> d           0.555  -0.171   0.320  0.00  0.00    -0.061 A 
ATOM     21  C1  <0> d           0.665   1.329   0.410  0.00  0.00     0.048 C 
ATOM     22  C7  <0> d           0.535  -0.933   1.472  0.00  0.00     0.014 A 
ATOM     23  C6  <0> d           0.430  -2.309   1.389  0.00  0.00    -0.053 A 
ATOM     24  C8  <0> d           0.403  -3.140   2.646  0.00  0.00     0.049 C 
ENDBRANCH  13  17
ENDBRANCH   5   8
ENDBRANCH   1   4
TORSDOF 3
