REMARK  5 active torsions:
REMARK  status: ('A' for Active; 'I' for Inactive)
REMARK    1  A    between atoms: C2_2  and  C3_3 
REMARK    2  A    between atoms: C2_2  and  O3_10 
REMARK       I    between atoms: C3_3  and  N1_5 
REMARK       I    between atoms: N1_5  and  C4_6 
REMARK       I    between atoms: C4_6  and  N2_8 
REMARK    3  A    between atoms: O3_10  and  C6_11 
REMARK    4  A    between atoms: C6_11  and  C7_13 
REMARK    5  A    between atoms: C8_14  and  C9_15 
ROOT
ATOM      1  O3  <0> d           6.027   3.382  -0.039  0.00  0.00    -0.303 OA
ENDROOT
BRANCH   1   2
ATOM      2  C2  <0> d           7.211   4.181  -0.046  0.00  0.00     0.220 C 
ATOM      3  C1  <0> d           7.648   4.459   1.393  0.00  0.00     0.050 C 
BRANCH   2   4
ATOM      4  C3  <0> d           8.309   3.446  -0.771  0.00  0.00     0.254 C 
ATOM      5  O1  <0> d           8.098   2.346  -1.235  0.00  0.00    -0.270 OA
ATOM      6  N1  <0> d           9.525   4.011  -0.903  0.00  0.00    -0.277 N 
ATOM      7  C4  <0> d          10.507   3.354  -1.552  0.00  0.00     0.322 C 
ATOM      8  H5  <0> d           9.694   4.891  -0.532  0.00  0.00     0.173 HD
ATOM      9  O2  <0> d          10.295   2.251  -2.017  0.00  0.00    -0.247 OA
ATOM     10  N2  <0> d          11.723   3.919  -1.684  0.00  0.00    -0.347 N 
ATOM     11  C5  <0> d          12.790   3.204  -2.388  0.00  0.00     0.151 C 
ATOM     12  H6  <0> d          11.892   4.799  -1.312  0.00  0.00     0.163 HD
ENDBRANCH   2   4
ENDBRANCH   1   2
BRANCH   1  13
ATOM     13  C6  <0> d           4.846   4.035  -0.024  0.00  0.00     0.283 C 
ATOM     14  O4  <0> d           4.825   5.251  -0.018  0.00  0.00    -0.260 OA
BRANCH  13  15
ATOM     15  C7  <0> d           3.594   3.282  -0.016  0.00  0.00     0.083 C 
ATOM     16  C8  <0> d           2.413   3.936  -0.001  0.00  0.00     0.019 C 
BRANCH  16  17
ATOM     17  C9  <0> d           1.153   3.178   0.008  0.00  0.00    -0.014 A 
ATOM     18  C14 <0> d          -0.074   3.852   0.022  0.00  0.00     0.044 A 
ATOM     19  C13 <0> d          -1.252   3.132   0.030  0.00  0.00     0.024 A 
ATOM     20 Cl1  <0> d          -0.114   5.588   0.032  0.00  0.00    -0.083 Cl
ATOM     21  C12 <0> d          -1.222   1.750   0.017  0.00  0.00     0.002 A 
ATOM     22  C11 <0> d          -0.013   1.076   0.008  0.00  0.00     0.001 A 
ATOM     23  C10 <0> d           1.173   1.779   0.000  0.00  0.00     0.013 A 
ENDBRANCH  16  17
ENDBRANCH  13  15
ENDBRANCH   1  13
TORSDOF 5
