REMARK  4 active torsions:
REMARK  status: ('A' for Active; 'I' for Inactive)
REMARK    1  A    between atoms: C4_4  and  C7_7 
REMARK    2  A    between atoms: C7_7  and  N1_8 
REMARK    3  A    between atoms: C10_11  and  C12_13 
REMARK    4  A    between atoms: C12_13  and  C13_14 
ROOT
ATOM      1  C12 <0> d           7.344  -1.873   2.920  0.00  0.00     0.085 C 
ENDROOT
BRANCH   1   2
ATOM      2  C10 <0> d           6.479  -0.965   2.044  0.00  0.00     0.020 C 
ATOM      3  C9  <0> d           5.671   0.032   2.916  0.00  0.00     0.034 C 
ATOM      4  C8  <0> d           4.457   0.334   2.004  0.00  0.00     0.235 C 
ATOM      5  N1  <0> d           4.153  -0.953   1.342  0.00  0.00    -0.067 N 
ATOM      6  C11 <0> d           5.376  -1.776   1.331  0.00  0.00     0.240 C 
ATOM      7  H25 <0> d           3.426  -1.432   1.852  0.00  0.00     0.280 HD
BRANCH   5   8
ATOM      8  C7  <0> d           3.711  -0.707  -0.038  0.00  0.00     0.273 C 
BRANCH   8   9
ATOM      9  C4  <0> d           2.396   0.029  -0.020  0.00  0.00    -0.033 A 
ATOM     10  C3  <0> d           2.377   1.411  -0.013  0.00  0.00     0.009 A 
ATOM     11  C2  <0> d           1.171   2.086   0.002  0.00  0.00     0.001 A 
ATOM     12  C1  <0> d          -0.017   1.378   0.010  0.00  0.00     0.000 A 
ATOM     13  C6  <0> d           0.002  -0.004   0.002  0.00  0.00     0.001 A 
ATOM     14  C5  <0> d           1.208  -0.679  -0.012  0.00  0.00     0.009 A 
ENDBRANCH   8   9
ENDBRANCH   5   8
ENDBRANCH   1   2
BRANCH   1  15
ATOM     15  C13 <0> d           8.411  -1.051   3.596  0.00  0.00     0.105 A 
ATOM     16  N3  <0> d           8.635  -0.997   4.933  0.00  0.00    -0.346 N 
ATOM     17  H2  <0> d           8.138  -1.473   5.616  0.00  0.00     0.167 HD
ATOM     18  C15 <0> d           9.687  -0.154   5.142  0.00  0.00     0.045 A 
ATOM     19  C14 <0> d          10.073   0.312   3.925  0.00  0.00     0.148 A 
ATOM     20  C16 <0> d          10.277   0.157   6.481  0.00  0.00     0.061 C 
ATOM     21  N2  <0> d           9.261  -0.276   2.995  0.00  0.00    -0.228 NA
ATOM     22  C19 <0> d          11.127   1.267   3.592  0.00  0.00     0.272 C 
ATOM     23  N4  <0> d          11.957   1.890   4.397  0.00  0.00    -0.356 N 
ATOM     24  O1  <0> d          11.253   1.520   2.409  0.00  0.00    -0.266 OA
ATOM     25  C18 <0> d          12.112   1.754   5.820  0.00  0.00     0.123 C 
ATOM     26  H24 <0> d          12.547   2.532   3.972  0.00  0.00     0.162 HD
ATOM     27  C17 <0> d          10.824   1.557   6.573  0.00  0.00     0.026 C 
ENDBRANCH   1  15
TORSDOF 4
