REMARK  7 active torsions:
REMARK  status: ('A' for Active; 'I' for Inactive)
REMARK    1  A    between atoms: C3_3  and  O5_22 
REMARK    2  A    between atoms: C6_6  and  C7_7 
REMARK    3  A    between atoms: N1_8  and  N2_9 
REMARK       I    between atoms: N2_9  and  C8_10 
REMARK    4  A    between atoms: C8_10  and  C9_12 
REMARK    5  A    between atoms: C11_14  and  O4_20 
REMARK    6  A    between atoms: C12_15  and  O3_19 
REMARK    7  A    between atoms: C13_16  and  O2_18 
ROOT
ATOM      1  N2  <0> d          -0.011   0.966   0.007  0.00  0.00    -0.243 N 
ATOM      2  C8  <0> d           1.147   1.655  -0.000  0.00  0.00     0.271 C 
ATOM      3  O1  <0> d           1.130   2.872   0.007  0.00  0.00    -0.266 OA
ATOM      4  H5  <0> d           0.002  -0.004   0.002  0.00  0.00     0.192 HD
ENDROOT
BRANCH   2   5
ATOM      5  C9  <0> d           2.435   0.935  -0.016  0.00  0.00     0.039 A 
ATOM      6  C14 <0> d           3.636   1.649  -0.024  0.00  0.00     0.056 A 
ATOM      7  C13 <0> d           4.841   0.972  -0.039  0.00  0.00     0.102 A 
ATOM      8  C12 <0> d           4.858  -0.420  -0.047  0.00  0.00     0.132 A 
ATOM      9  C11 <0> d           3.663  -1.134  -0.039  0.00  0.00     0.102 A 
ATOM     10  C10 <0> d           2.455  -0.462  -0.018  0.00  0.00     0.056 A 
BRANCH   7  11
ATOM     11  O2  <0> d           6.010   1.666  -0.046  0.00  0.00    -0.358 OA
ATOM     12  H8  <0> d           6.357   1.862   0.835  0.00  0.00     0.217 HD
ENDBRANCH   7  11
BRANCH   8  13
ATOM     13  O3  <0> d           6.044  -1.084  -0.062  0.00  0.00    -0.356 OA
ATOM     14  H9  <0> d           6.396  -1.281   0.817  0.00  0.00     0.218 HD
ENDBRANCH   8  13
BRANCH   9  15
ATOM     15  O4  <0> d           3.683  -2.494  -0.047  0.00  0.00    -0.358 OA
ATOM     16  H10 <0> d           3.698  -2.892   0.835  0.00  0.00     0.217 HD
ENDBRANCH   9  15
ENDBRANCH   2   5
BRANCH   1  17
ATOM     17  N1  <0> d          -1.234   1.650   0.017  0.00  0.00    -0.183 NA
ATOM     18  C7  <0> d          -2.349   0.986   0.018  0.00  0.00     0.150 C 
BRANCH  18  19
ATOM     19  C6  <0> d          -3.635   1.705   0.029  0.00  0.00    -0.016 A 
ATOM     20  C1  <0> d          -3.657   3.102   0.042  0.00  0.00     0.016 A 
ATOM     21  C2  <0> d          -4.862   3.771   0.048  0.00  0.00     0.039 A 
ATOM     22  C3  <0> d          -6.054   3.059   0.049  0.00  0.00     0.083 A 
ATOM     23  C4  <0> d          -6.038   1.669   0.040  0.00  0.00     0.044 A 
ATOM     24  C5  <0> d          -4.838   0.992   0.030  0.00  0.00     0.034 A 
ATOM     25 Br1  <0> d          -7.666   0.706   0.043  0.00  0.00    -0.048 Br
BRANCH  22  26
ATOM     26  O5  <0> d          -7.239   3.723   0.059  0.00  0.00    -0.359 OA
ATOM     27  H11 <0> d          -7.578   3.910   0.945  0.00  0.00     0.217 HD
ENDBRANCH  22  26
ENDBRANCH  18  19
ENDBRANCH   1  17
TORSDOF 7
