REMARK  8 active torsions:
REMARK  status: ('A' for Active; 'I' for Inactive)
REMARK    1  A    between atoms: C2_2  and  C3_3 
REMARK    2  A    between atoms: C3_3  and  C5_5 
REMARK    3  A    between atoms: C5_5  and  C6_6 
REMARK       I    between atoms: C6_6  and  N1_8 
REMARK    4  A    between atoms: C8_10  and  C15_18 
REMARK       I    between atoms: C15_18  and  N3_20 
REMARK    5  A    between atoms: N3_20  and  C16_21 
REMARK    6  A    between atoms: C16_21  and  C17_22 
REMARK    7  A    between atoms: C17_22  and  C18_23 
REMARK    8  A    between atoms: C18_23  and  C19_24 
ROOT
ATOM      1  C6  <0> d           1.197  -2.547  -2.317  0.00  0.00     0.220 C 
ATOM      2  O1  <0> d           1.654  -1.678  -3.028  0.00  0.00    -0.273 OA
ATOM      3  N1  <0> d           1.242  -3.835  -2.712  0.00  0.00    -0.351 N 
ATOM      4  C7  <0> d           0.735  -5.025  -1.991  0.00  0.00     0.140 C 
ATOM      5  C8  <0> d           0.117  -5.916  -3.092  0.00  0.00     0.106 C 
ATOM      6  C9  <0> d           0.828  -5.489  -4.387  0.00  0.00    -0.007 C 
ATOM      7  C10 <0> d           1.806  -4.379  -3.971  0.00  0.00     0.136 C 
ATOM      8  C11 <0> d           1.590  -6.668  -4.985  0.00  0.00     0.039 C 
ATOM      9  C12 <0> d           2.241  -6.234  -6.302  0.00  0.00     0.233 C 
ATOM     10  N2  <0> d           1.205  -5.771  -7.233  0.00  0.00    -0.075 N 
ATOM     11  C13 <0> d           0.540  -4.580  -6.691  0.00  0.00     0.233 C 
ATOM     12  C14 <0> d          -0.183  -4.944  -5.391  0.00  0.00     0.039 C 
ATOM     13  H21 <0> d           1.629  -5.544  -8.120  0.00  0.00     0.277 HD
ATOM     14  H33 <0> d           0.524  -6.504  -7.367  0.00  0.00     0.277 HD
ENDROOT
BRANCH   5  15
ATOM     15  C15 <0> d          -1.365  -5.666  -3.199  0.00  0.00     0.224 C 
ATOM     16  O2  <0> d          -1.817  -4.573  -2.929  0.00  0.00    -0.273 OA
ATOM     17  N3  <0> d          -2.189  -6.657  -3.593  0.00  0.00    -0.361 N 
ATOM     18  H26 <0> d          -1.828  -7.531  -3.808  0.00  0.00     0.162 HD
BRANCH  17  19
ATOM     19  C16 <0> d          -3.630  -6.414  -3.696  0.00  0.00     0.123 C 
BRANCH  19  20
ATOM     20  C17 <0> d          -4.331  -7.692  -4.161  0.00  0.00     0.030 C 
BRANCH  20  21
ATOM     21  C18 <0> d          -5.836  -7.439  -4.269  0.00  0.00     0.114 C 
BRANCH  21  22
ATOM     22  C19 <0> d          -6.526  -8.698  -4.726  0.00  0.00     0.172 C 
ATOM     23  O3  <0> d          -5.875  -9.705  -4.946  0.00  0.00    -0.648 OA
ATOM     24  O4  <0> d          -7.736  -8.710  -4.877  0.00  0.00    -0.648 OA
ENDBRANCH  21  22
ENDBRANCH  20  21
ENDBRANCH  19  20
ENDBRANCH  17  19
ENDBRANCH   5  15
BRANCH   1  25
ATOM     25  C5  <0> d           0.578  -2.188  -0.990  0.00  0.00     0.107 C 
BRANCH  25  26
ATOM     26  C3  <0> d           0.655  -0.674  -0.785  0.00  0.00    -0.010 C 
ATOM     27  C4  <0> d           2.120  -0.247  -0.677  0.00  0.00     0.010 C 
BRANCH  26  28
ATOM     28  C2  <0> d          -0.083  -0.296   0.501  0.00  0.00     0.000 C 
ATOM     29  C1  <0> d          -0.114   1.227   0.642  0.00  0.00     0.005 C 
ENDBRANCH  26  28
ENDBRANCH  25  26
ENDBRANCH   1  25
TORSDOF 8
