REMARK  8 active torsions:
REMARK  status: ('A' for Active; 'I' for Inactive)
REMARK    1  A    between atoms: C2_4  and  C7_14 
REMARK    2  A    between atoms: C3_5  and  N3_7 
REMARK    3  A    between atoms: N3_7  and  N4_8 
REMARK    4  A    between atoms: N4_8  and  S1_9 
REMARK    5  A    between atoms: S1_9  and  C4_10 
REMARK    6  A    between atoms: C4_10  and  C5_11 
REMARK    7  A    between atoms: C5_11  and  C6_12 
REMARK    8  A    between atoms: C5_11  and  N6_22 
REMARK       I    between atoms: C7_14  and  N5_16 
ROOT
ATOM      1  N3  <0> d          -2.919  -1.496   1.974  0.00  0.00    -0.120 NA
ENDROOT
BRANCH   1   2
ATOM      2  C3  <0> d          -2.586  -2.764   2.357  0.00  0.00     0.205 A 
ATOM      3  C2  <0> d          -3.469  -3.815   2.595  0.00  0.00     0.151 A 
ATOM      4  N1  <0> d          -2.684  -4.896   2.953  0.00  0.00    -0.343 N 
ATOM      5  C1  <0> d          -1.403  -4.486   2.933  0.00  0.00     0.210 A 
ATOM      6  H1  <0> d          -3.009  -5.813   3.184  0.00  0.00     0.167 HD
ATOM      7  N2  <0> d          -1.346  -3.229   2.582  0.00  0.00    -0.221 NA
BRANCH   3   8
ATOM      8  C7  <0> d          -4.927  -3.782   2.485  0.00  0.00     0.270 C 
ATOM      9  O2  <0> d          -5.490  -2.754   2.154  0.00  0.00    -0.266 OA
ATOM     10  N5  <0> d          -5.648  -4.890   2.750  0.00  0.00    -0.365 N 
ATOM     11  H8  <0> d          -5.199  -5.708   3.013  0.00  0.00     0.159 HD
ATOM     12  H9  <0> d          -6.615  -4.868   2.677  0.00  0.00     0.159 HD
ENDBRANCH   3   8
ENDBRANCH   1   2
BRANCH   1  13
ATOM     13  N4  <0> d          -1.996  -0.614   1.793  0.00  0.00    -0.114 NA
BRANCH  13  14
ATOM     14  S1  <0> d          -2.376   0.835   1.355  0.00  0.00    -0.003 SA
BRANCH  14  15
ATOM     15  C4  <0> d          -0.729   1.579   1.267  0.00  0.00     0.145 C 
BRANCH  15  16
ATOM     16  C5  <0> d          -0.013   1.086   0.008  0.00  0.00     0.294 C 
BRANCH  16  17
ATOM     17  C6  <0> d           1.401   1.607  -0.003  0.00  0.00     0.205 C 
ATOM     18  O1  <0> d           1.684   2.572  -0.673  0.00  0.00    -0.646 OA
ATOM     19  O3  <0> d           2.346   1.000   0.732  0.00  0.00    -0.646 OA
ENDBRANCH  16  17
BRANCH  16  20
ATOM     20  N6  <0> d          -0.708   1.563  -1.200  0.00  0.00    -0.064 N 
ATOM     21  H6  <0> d          -1.653   1.185  -1.232  0.00  0.00     0.275 HD
ATOM     22  H7  <0> d          -0.751   2.581  -1.200  0.00  0.00     0.275 HD
ATOM     23  H10 <0> d          -0.194   1.250  -2.032  0.00  0.00     0.275 HD
ENDBRANCH  16  20
ENDBRANCH  15  16
ENDBRANCH  14  15
ENDBRANCH  13  14
ENDBRANCH   1  13
TORSDOF 8
