REMARK  3 active torsions:
REMARK  status: ('A' for Active; 'I' for Inactive)
REMARK    1  A    between atoms: C2_2  and  C3_3 
REMARK    2  A    between atoms: C8_12  and  C9_14 
REMARK    3  A    between atoms: C12_17  and  C15_20 
ROOT
ATOM      1  C9  <0> d           6.250  -1.541  -1.789  0.00  0.00     0.010 A 
ATOM      2  C10 <0> d           7.151  -1.374  -0.735  0.00  0.00     0.016 A 
ATOM      3  C11 <0> d           8.490  -1.645  -0.926  0.00  0.00     0.011 A 
ATOM      4  C12 <0> d           8.941  -2.082  -2.159  0.00  0.00    -0.021 A 
ATOM      5  C13 <0> d           8.054  -2.250  -3.208  0.00  0.00     0.011 A 
ATOM      6  C14 <0> d           6.711  -1.988  -3.029  0.00  0.00     0.016 A 
ENDROOT
BRANCH   1   7
ATOM      7  C8  <0> d           4.815  -1.253  -1.591  0.00  0.00     0.142 A 
ATOM      8  N1  <0> d           4.376  -0.816  -0.371  0.00  0.00    -0.307 N 
ATOM      9  C7  <0> d           3.076  -0.543  -0.155  0.00  0.00     0.260 A 
ATOM     10  H1  <0> d           5.014  -0.701   0.351  0.00  0.00     0.170 HD
ATOM     11  C6  <0> d           2.140  -0.715  -1.226  0.00  0.00     0.075 A 
ATOM     12  O1  <0> d           2.700  -0.155   0.938  0.00  0.00    -0.267 OA
ATOM     13  C3  <0> d           0.707  -0.490  -1.238  0.00  0.00    -0.027 A 
ATOM     14  C5  <0> d           2.681  -1.173  -2.443  0.00  0.00     0.116 A 
ATOM     15  C4  <0> d           0.018  -0.714  -2.368  0.00  0.00    -0.012 A 
ATOM     16  S1  <0> d           1.268  -1.261  -3.514  0.00  0.00    -0.074 SA
ATOM     17  C19 <0> d          -1.460  -0.545  -2.609  0.00  0.00     0.057 C 
ATOM     18  N2  <0> d           3.974  -1.428  -2.588  0.00  0.00    -0.222 NA
BRANCH  13  19
ATOM     19  C2  <0> d           0.002  -0.004   0.002  0.00  0.00     0.036 C 
ATOM     20  C1  <0> d          -0.019   1.526   0.010  0.00  0.00     0.010 C 
ENDBRANCH  13  19
ENDBRANCH   1   7
BRANCH   4  21
ATOM     21  C15 <0> d          10.405  -2.376  -2.361  0.00  0.00     0.139 A 
ATOM     22  N4  <0> d          10.658  -2.824  -3.741  0.00  0.00    -0.321 N 
ATOM     23  C17 <0> d          11.495  -1.926  -4.291  0.00  0.00     0.324 A 
ATOM     24  H12 <0> d          10.293  -3.614  -4.170  0.00  0.00     0.165 HD
ATOM     25  N3  <0> d          11.821  -0.945  -3.441  0.00  0.00    -0.277 N 
ATOM     26  O3  <0> d          11.909  -1.997  -5.431  0.00  0.00    -0.247 OA
ATOM     27  C16 <0> d          11.225  -1.106  -2.243  0.00  0.00     0.258 A 
ATOM     28  H11 <0> d          12.413  -0.208  -3.660  0.00  0.00     0.173 HD
ATOM     29  O2  <0> d          11.324  -0.386  -1.273  0.00  0.00    -0.270 OA
ATOM     30  C18 <0> d          10.885  -3.426  -1.357  0.00  0.00     0.054 C 
ENDBRANCH   4  21
TORSDOF 3
