REMARK  6 active torsions:
REMARK  status: ('A' for Active; 'I' for Inactive)
REMARK    1  A    between atoms: N1_10  and  N3_14 
REMARK       I    between atoms: N3_14  and  C10_15 
REMARK    2  A    between atoms: C10_15  and  C11_17 
REMARK    3  A    between atoms: C11_17  and  N4_18 
REMARK    4  A    between atoms: N4_18  and  C13_20 
REMARK    5  A    between atoms: C13_20  and  C14_21 
REMARK    6  A    between atoms: C13_20  and  C17_24 
ROOT
ATOM      1  N3  <0> d           3.602  -5.238  -0.715  0.00  0.00    -0.255 N 
ATOM      2  C10 <0> d           3.987  -6.029  -1.736  0.00  0.00     0.262 C 
ATOM      3  O3  <0> d           3.903  -5.629  -2.877  0.00  0.00    -0.270 OA
ATOM      4  H14 <0> d           3.669  -5.558   0.199  0.00  0.00     0.191 HD
ENDROOT
BRANCH   1   5
ATOM      5  N1  <0> d           3.103  -3.954  -0.972  0.00  0.00    -0.167 N 
ATOM      6  C8  <0> d           1.799  -3.617  -0.895  0.00  0.00     0.275 A 
ATOM      7  C5  <0> d           1.739  -2.150  -1.252  0.00  0.00     0.117 A 
ATOM      8  O1  <0> d           0.871  -4.340  -0.603  0.00  0.00    -0.268 OA
ATOM      9  C4  <0> d           0.891  -1.939  -2.501  0.00  0.00     0.041 C 
ATOM     10  N2  <0> d           3.139  -1.789  -1.513  0.00  0.00    -0.323 N 
ATOM     11  C6  <0> d           1.189  -1.340  -0.083  0.00  0.00     0.041 C 
ATOM     12  C3  <0> d           0.874  -0.452  -2.863  0.00  0.00     0.007 C 
ATOM     13  C2  <0> d           0.298   0.349  -1.694  0.00  0.00    -0.019 C 
ATOM     14  C1  <0> d           0.271   1.835  -2.059  0.00  0.00     0.010 C 
ATOM     15  C7  <0> d           1.171   0.145  -0.454  0.00  0.00     0.007 C 
ATOM     16  C9  <0> d           3.862  -2.909  -1.325  0.00  0.00     0.345 A 
ATOM     17  H13 <0> d           3.475  -0.917  -1.771  0.00  0.00     0.165 HD
ATOM     18  O2  <0> d           5.069  -2.965  -1.459  0.00  0.00    -0.245 OA
ENDBRANCH   1   5
BRANCH   2  19
ATOM     19  C11 <0> d           4.523  -7.410  -1.458  0.00  0.00     0.338 C 
BRANCH  19  20
ATOM     20  N4  <0> d           4.871  -8.064  -2.727  0.00  0.00    -0.062 N 
ATOM     21  C12 <0> d           5.949  -7.314  -3.385  0.00  0.00     0.270 C 
ATOM     22  H31 <0> d           4.061  -8.085  -3.328  0.00  0.00     0.280 HD
BRANCH  20  23
ATOM     23  C13 <0> d           5.321  -9.437  -2.462  0.00  0.00     0.196 C 
BRANCH  23  24
ATOM     24  C14 <0> d           4.138 -10.275  -1.973  0.00  0.00     0.017 A 
ATOM     25  C16 <0> d           3.564  -9.949  -0.593  0.00  0.00     0.007 A 
ATOM     26  C15 <0> d           2.780  -9.581  -1.854  0.00  0.00     0.007 A 
ENDBRANCH  23  24
BRANCH  23  27
ATOM     27  C17 <0> d           5.881 -10.047  -3.749  0.00  0.00     0.017 A 
ATOM     28  C19 <0> d           7.182  -9.461  -4.301  0.00  0.00     0.007 A 
ATOM     29  C18 <0> d           7.183 -10.844  -3.645  0.00  0.00     0.007 A 
ENDBRANCH  23  27
ENDBRANCH  20  23
ENDBRANCH  19  20
ENDBRANCH   2  19
TORSDOF 6
