REMARK  4 active torsions:
REMARK  status: ('A' for Active; 'I' for Inactive)
REMARK    1  A    between atoms: C6_6  and  C7_7 
REMARK    2  A    between atoms: N1_8  and  N2_9 
REMARK    3  A    between atoms: C8_10  and  C9_11 
REMARK    4  A    between atoms: C8_10  and  N5_18 
ROOT
ATOM      1  N2  <0> d          -3.508  -0.785   0.031  0.00  0.00    -0.261 N 
ATOM      2  C8  <0> d          -4.657  -0.145   0.045  0.00  0.00     0.146 C 
ATOM      3  H11 <0> d          -3.493  -1.755   0.025  0.00  0.00     0.191 HD
ENDROOT
BRANCH   1   4
ATOM      4  N1  <0> d          -2.401  -0.123   0.024  0.00  0.00    -0.185 NA
ATOM      5  C7  <0> d          -1.259  -0.759   0.010  0.00  0.00     0.150 C 
BRANCH   5   6
ATOM      6  C6  <0> d           0.002  -0.004   0.002  0.00  0.00    -0.014 A 
ATOM      7  C1  <0> d          -0.017   1.395   0.010  0.00  0.00     0.016 A 
ATOM      8  C2  <0> d           1.167   2.099   0.002  0.00  0.00     0.040 A 
ATOM      9  C3  <0> d           2.381   1.427  -0.013  0.00  0.00     0.105 A 
ATOM     10  O2  <0> d           3.666   1.886  -0.023  0.00  0.00    -0.323 OA
ATOM     11  C4  <0> d           2.409   0.031  -0.021  0.00  0.00     0.105 A 
ATOM     12  C13 <0> d           4.471   0.771  -0.451  0.00  0.00     0.352 C 
ATOM     13  O1  <0> d           3.711  -0.379  -0.036  0.00  0.00    -0.323 OA
ATOM     14  C5  <0> d           1.226  -0.682  -0.014  0.00  0.00     0.052 A 
ENDBRANCH   5   6
ENDBRANCH   1   4
BRANCH   2  15
ATOM     15  C9  <0> d          -4.680   1.331   0.053  0.00  0.00     0.120 A 
ATOM     16  N4  <0> d          -3.538   2.017   0.046  0.00  0.00    -0.230 NA
ATOM     17  C12 <0> d          -3.565   3.337   0.048  0.00  0.00     0.144 A 
ATOM     18  C11 <0> d          -4.778   4.009   0.070  0.00  0.00     0.160 A 
ATOM     19 Cl1  <0> d          -2.078   4.233   0.032  0.00  0.00    -0.061 Cl
ATOM     20  N3  <0> d          -5.914   3.333   0.082  0.00  0.00    -0.267 NA
ATOM     21  C10 <0> d          -5.899   2.013   0.074  0.00  0.00     0.151 A 
ENDBRANCH   2  15
BRANCH   2  22
ATOM     22  N5  <0> d          -5.841  -0.854   0.052  0.00  0.00    -0.382 N 
ATOM     23  H7  <0> d          -5.826  -1.824   0.047  0.00  0.00     0.157 HD
ATOM     24  H8  <0> d          -6.689  -0.382   0.063  0.00  0.00     0.157 HD
ENDBRANCH   2  22
TORSDOF 4
