REMARK  5 active torsions:
REMARK  status: ('A' for Active; 'I' for Inactive)
REMARK    1  A    between atoms: O1_2  and  C2_3 
REMARK    2  A    between atoms: C4_5  and  C8_10 
REMARK    3  A    between atoms: C7_8  and  O2_9 
REMARK    4  A    between atoms: N2_16  and  C13_19 
REMARK    5  A    between atoms: C17_23  and  C19_25 
ROOT
ATOM      1  C8  <0> d           1.821   0.234  -4.681  0.00  0.00     0.034 C 
ATOM      2  C9  <0> d           2.811  -0.331  -5.463  0.00  0.00     0.103 A 
ATOM      3  C10 <0> d           3.213  -1.745  -5.301  0.00  0.00     0.286 A 
ATOM      4  N1  <0> d           4.182  -2.227  -6.096  0.00  0.00    -0.165 NA
ATOM      5  C11 <0> d           4.773  -1.485  -6.999  0.00  0.00     0.290 A 
ATOM      6  O3  <0> d           5.735  -2.050  -7.754  0.00  0.00    -0.148 OA
ATOM      7  N2  <0> d           4.469  -0.178  -7.218  0.00  0.00    -0.239 N 
ATOM      8  C12 <0> d           3.511   0.448  -6.502  0.00  0.00     0.271 A 
ATOM      9  O4  <0> d           3.237   1.616  -6.704  0.00  0.00    -0.266 OA
ATOM     10  O5  <0> d           2.678  -2.455  -4.467  0.00  0.00    -0.265 OA
ENDROOT
BRANCH   1  11
ATOM     11  C4  <0> d           1.327  -0.476  -3.501  0.00  0.00    -0.032 A 
ATOM     12  C3  <0> d          -0.049  -0.520  -3.231  0.00  0.00     0.051 A 
ATOM     13  C2  <0> d          -0.507  -1.192  -2.117  0.00  0.00     0.102 A 
ATOM     14  C7  <0> d           0.397  -1.820  -1.258  0.00  0.00     0.099 A 
ATOM     15  C6  <0> d           1.760  -1.782  -1.528  0.00  0.00     0.040 A 
ATOM     16  C5  <0> d           2.228  -1.115  -2.636  0.00  0.00     0.014 A 
BRANCH  13  17
ATOM     17  O1  <0> d          -1.840  -1.237  -1.851  0.00  0.00    -0.353 OA
ATOM     18  C1  <0> d          -2.708  -0.573  -2.771  0.00  0.00     0.210 C 
ENDBRANCH  13  17
BRANCH  14  19
ATOM     19  O2  <0> d          -0.058  -2.475  -0.160  0.00  0.00    -0.358 OA
ATOM     20  H7  <0> d          -0.258  -3.409  -0.313  0.00  0.00     0.217 HD
ENDBRANCH  14  19
ENDBRANCH   1  11
BRANCH   7  21
ATOM     21  C13 <0> d           5.160   0.532  -8.210  0.00  0.00     0.047 A 
ATOM     22  C18 <0> d           4.752   0.451  -9.535  0.00  0.00     0.046 A 
ATOM     23  C17 <0> d           5.432   1.156 -10.509  0.00  0.00     0.050 A 
ATOM     24  C16 <0> d           6.524   1.933 -10.168  0.00  0.00     0.016 A 
ATOM     25  C15 <0> d           6.936   2.011  -8.850  0.00  0.00     0.003 A 
ATOM     26  C14 <0> d           6.257   1.313  -7.871  0.00  0.00     0.030 A 
BRANCH  23  27
ATOM     27  C19 <0> d           4.986   1.074 -11.947  0.00  0.00     0.417 C 
ATOM     28  F1  <0> d           5.826   1.862 -12.741  0.00  0.00    -0.166 F 
ATOM     29  F2  <0> d           5.048  -0.256 -12.379  0.00  0.00    -0.166 F 
ATOM     30  F3  <0> d           3.671   1.538 -12.054  0.00  0.00    -0.166 F 
ENDBRANCH  23  27
ENDBRANCH   7  21
TORSDOF 5
