REMARK  7 active torsions:
REMARK  status: ('A' for Active; 'I' for Inactive)
REMARK    1  A    between atoms: C2_2  and  S1_3 
REMARK    2  A    between atoms: S1_3  and  N1_6 
REMARK    3  A    between atoms: N1_6  and  C3_7 
REMARK    4  A    between atoms: C3_7  and  C4_8 
REMARK    5  A    between atoms: C4_8  and  N2_9 
REMARK       I    between atoms: N2_9  and  C5_10 
REMARK    6  A    between atoms: C5_10  and  C6_12 
REMARK    7  A    between atoms: C8_15  and  C9_17 
ROOT
ATOM      1  C6  <0> d          -0.151  -7.170   3.493  0.00  0.00     0.132 A 
ATOM      2  C7  <0> d          -0.283  -8.525   3.642  0.00  0.00     0.089 A 
ATOM      3  S2  <0> d           0.574  -8.821   5.060  0.00  0.00    -0.079 SA
ATOM      4  C8  <0> d           1.077  -7.145   5.408  0.00  0.00     0.108 A 
ATOM      5  N3  <0> d           0.545  -6.488   4.393  0.00  0.00    -0.235 NA
ENDROOT
BRANCH   1   6
ATOM      6  C5  <0> d          -0.767  -6.481   2.347  0.00  0.00     0.270 C 
ATOM      7  N2  <0> d          -0.627  -5.148   2.207  0.00  0.00    -0.354 N 
ATOM      8  H11 <0> d          -0.120  -4.642   2.861  0.00  0.00     0.162 HD
ATOM      9  O3  <0> d          -1.403  -7.115   1.526  0.00  0.00    -0.266 OA
BRANCH   7  10
ATOM     10  C4  <0> d          -1.240  -4.463   1.067  0.00  0.00     0.143 C 
BRANCH  10  11
ATOM     11  C3  <0> d          -0.932  -2.966   1.145  0.00  0.00     0.151 C 
BRANCH  11  12
ATOM     12  N1  <0> d          -1.545  -2.281   0.005  0.00  0.00    -0.318 N 
ATOM     13  H6  <0> d          -1.861  -2.793  -0.757  0.00  0.00     0.172 HD
BRANCH  12  14
ATOM     14  S1  <0> d          -1.700  -0.632   0.015  0.00  0.00     0.226 S 
ATOM     15  O1  <0> d          -2.322  -0.334   1.257  0.00  0.00    -0.206 OA
ATOM     16  O2  <0> d          -2.346  -0.321  -1.212  0.00  0.00    -0.206 OA
BRANCH  14  17
ATOM     17  C2  <0> d           0.002  -0.004   0.002  0.00  0.00     0.158 C 
ATOM     18  C1  <0> d          -0.019   1.526   0.010  0.00  0.00     0.023 C 
ENDBRANCH  14  17
ENDBRANCH  12  14
ENDBRANCH  11  12
ENDBRANCH  10  11
ENDBRANCH   7  10
ENDBRANCH   1   6
BRANCH   4  19
ATOM     19  C9  <0> d           1.883  -6.628   6.534  0.00  0.00     0.003 A 
ATOM     20  C14 <0> d           2.361  -7.502   7.511  0.00  0.00     0.054 A 
ATOM     21  C13 <0> d           3.120  -7.016   8.562  0.00  0.00     0.103 A 
ATOM     22  C12 <0> d           3.397  -5.655   8.647  0.00  0.00     0.102 A 
ATOM     23  O4  <0> d           3.578  -7.880   9.509  0.00  0.00    -0.346 OA
ATOM     24  C11 <0> d           2.916  -4.785   7.677  0.00  0.00     0.040 A 
ATOM     25  O5  <0> d           4.141  -5.160   9.673  0.00  0.00    -0.346 OA
ATOM     26  C10 <0> d           2.163  -5.264   6.626  0.00  0.00     0.017 A 
ATOM     27  C16 <0> d           4.288  -5.998  10.825  0.00  0.00     0.202 C 
ATOM     28  C15 <0> d           4.640  -7.413  10.347  0.00  0.00     0.202 C 
ENDBRANCH   4  19
TORSDOF 7
