REMARK  4 active torsions:
REMARK  status: ('A' for Active; 'I' for Inactive)
REMARK    1  A    between atoms: C5_5  and  C7_7 
REMARK       I    between atoms: C7_7  and  N1_9 
REMARK    2  A    between atoms: N1_9  and  C8_10 
REMARK    3  A    between atoms: C8_10  and  C9_11 
REMARK    4  A    between atoms: C9_11  and  C10_12 
ROOT
ATOM      1  C1  <0> d          -0.017   1.373  -0.016  0.00  0.00     0.002 A 
ATOM      2  C2  <0> d           1.168   2.090   0.002  0.00  0.00     0.009 A 
ATOM      3  C3  <0> d           2.388   1.436   0.013  0.00  0.00    -0.031 A 
ATOM      4  C4  <0> d           2.424   0.050   0.008  0.00  0.00     0.050 A 
ATOM      5  C5  <0> d           1.224  -0.681  -0.012  0.00  0.00     0.058 A 
ATOM      6  C6  <0> d           0.002  -0.004  -0.024  0.00  0.00     0.019 A 
ATOM      7  N2  <0> d           3.634  -0.635   0.028  0.00  0.00    -0.389 N 
ATOM      8  C14 <0> d           4.874   0.102  -0.251  0.00  0.00     0.120 C 
ATOM      9  C15 <0> d           4.825   1.418   0.537  0.00  0.00     0.024 C 
ATOM     10  C16 <0> d           3.652   2.255   0.026  0.00  0.00     0.042 C 
ATOM     11  H16 <0> d           3.659  -1.585   0.223  0.00  0.00     0.159 HD
ENDROOT
BRANCH   5  12
ATOM     12  C7  <0> d           1.255  -2.155  -0.020  0.00  0.00     0.253 C 
ATOM     13  O1  <0> d           2.315  -2.740  -0.124  0.00  0.00    -0.268 OA
ATOM     14  N1  <0> d           0.107  -2.853   0.087  0.00  0.00    -0.357 N 
ATOM     15  H5  <0> d          -0.739  -2.386   0.170  0.00  0.00     0.162 HD
BRANCH  14  16
ATOM     16  C8  <0> d           0.138  -4.318   0.078  0.00  0.00     0.125 C 
BRANCH  16  17
ATOM     17  C9  <0> d          -1.288  -4.858   0.213  0.00  0.00     0.051 C 
BRANCH  17  18
ATOM     18  C10 <0> d          -1.256  -6.388   0.204  0.00  0.00     0.123 C 
ATOM     19  O2  <0> d          -0.858  -6.871  -1.089  0.00  0.00    -0.386 OA
ATOM     20  C13 <0> d          -1.581  -8.067  -1.407  0.00  0.00     0.168 C 
ATOM     21  C12 <0> d          -2.548  -8.353  -0.238  0.00  0.00     0.029 C 
ATOM     22  C11 <0> d          -2.679  -6.957   0.430  0.00  0.00     0.034 C 
ENDBRANCH  17  18
ENDBRANCH  16  17
ENDBRANCH  14  16
ENDBRANCH   5  12
TORSDOF 4
