REMARK  8 active torsions:
REMARK  status: ('A' for Active; 'I' for Inactive)
REMARK    1  A    between atoms: C2_2  and  C4_4 
REMARK    2  A    between atoms: C2_2  and  N7_34 
REMARK    3  A    between atoms: C5_6  and  C6_7 
REMARK    4  A    between atoms: C5_6  and  N4_24 
REMARK    5  A    between atoms: C5_6  and  N7_34 
REMARK    6  A    between atoms: C9_10  and  C12_13 
REMARK    7  A    between atoms: C12_13  and  N1_15 
REMARK    8  A    between atoms: C12_13  and  N8_37 
ROOT
ATOM      1  C6  <0> d          -2.427   4.069  -0.604  0.00  0.00    -0.007 A 
ATOM      2  C7  <0> d          -3.784   4.214  -0.824  0.00  0.00     0.012 A 
ATOM      3  C8  <0> d          -4.234   4.973  -1.889  0.00  0.00     0.012 A 
ATOM      4  C9  <0> d          -3.327   5.577  -2.739  0.00  0.00    -0.007 A 
ATOM      5  C10 <0> d          -1.970   5.427  -2.522  0.00  0.00     0.012 A 
ATOM      6  C11 <0> d          -1.520   4.673  -1.455  0.00  0.00     0.012 A 
ENDROOT
BRANCH   1   7
ATOM      7  C5  <0> d          -1.937   3.246   0.559  0.00  0.00     0.345 C 
BRANCH   7   8
ATOM      8  N4  <0> d          -2.136   1.823   0.270  0.00  0.00    -0.213 N 
ATOM      9  N6  <0> d          -3.338   1.107   0.370  0.00  0.00    -0.063 NA
ATOM     10  N5  <0> d          -3.134  -0.119   0.038  0.00  0.00    -0.130 NA
ATOM     11  C25 <0> d          -1.842  -0.304  -0.299  0.00  0.00     0.109 A 
ATOM     12  C20 <0> d          -1.184   0.930  -0.160  0.00  0.00     0.087 A 
ATOM     13  C24 <0> d          -1.113  -1.423  -0.725  0.00  0.00     0.036 A 
ATOM     14  C21 <0> d           0.174   1.028  -0.446  0.00  0.00     0.034 A 
ATOM     15  C22 <0> d           0.862  -0.078  -0.859  0.00  0.00     0.002 A 
ATOM     16  C23 <0> d           0.218  -1.301  -0.998  0.00  0.00     0.003 A 
ENDBRANCH   7   8
BRANCH   7  17
ATOM     17  N7  <0> d          -2.699   3.612   1.768  0.00  0.00    -0.030 N 
ATOM     18  H24 <0> d          -3.054   4.571   1.667  0.00  0.00     0.281 HD
ATOM     19  H25 <0> d          -3.488   2.965   1.880  0.00  0.00     0.281 HD
BRANCH  17  20
ATOM     20  C2  <0> d          -1.834   3.538   2.961  0.00  0.00     0.208 C 
ATOM     21  C1  <0> d          -1.236   2.135   3.075  0.00  0.00     0.058 C 
ATOM     22  C3  <0> d          -0.707   4.565   2.843  0.00  0.00     0.058 C 
BRANCH  20  23
ATOM     23  C4  <0> d          -2.658   3.834   4.187  0.00  0.00     0.210 C 
ATOM     24  O1  <0> d          -2.421   3.265   5.226  0.00  0.00    -0.646 OA
ATOM     25  O2  <0> d          -3.655   4.731   4.125  0.00  0.00    -0.646 OA
ENDBRANCH  20  23
ENDBRANCH  17  20
ENDBRANCH   7  17
ENDBRANCH   1   7
BRANCH   4  26
ATOM     26  C12 <0> d          -3.817   6.399  -3.903  0.00  0.00     0.343 C 
BRANCH  26  27
ATOM     27  N1  <0> d          -4.329   5.510  -4.948  0.00  0.00    -0.213 N 
ATOM     28  N3  <0> d          -5.550   4.820  -4.940  0.00  0.00    -0.063 NA
ATOM     29  N2  <0> d          -5.662   4.135  -6.024  0.00  0.00    -0.130 NA
ATOM     30  C19 <0> d          -4.575   4.308  -6.801  0.00  0.00     0.109 A 
ATOM     31  C14 <0> d          -3.709   5.191  -6.133  0.00  0.00     0.087 A 
ATOM     32  C18 <0> d          -4.202   3.802  -8.054  0.00  0.00     0.036 A 
ATOM     33  C15 <0> d          -2.500   5.552  -6.719  0.00  0.00     0.034 A 
ATOM     34  C16 <0> d          -2.161   5.049  -7.944  0.00  0.00     0.002 A 
ATOM     35  C17 <0> d          -3.014   4.178  -8.610  0.00  0.00     0.003 A 
ENDBRANCH  26  27
BRANCH  26  36
ATOM     36  N8  <0> d          -4.898   7.292  -3.443  0.00  0.00    -0.052 N 
ATOM     37  C13 <0> d          -5.014   8.459  -4.338  0.00  0.00     0.269 C 
ATOM     38  H26 <0> d          -4.690   7.614  -2.491  0.00  0.00     0.279 HD
ATOM     39  H27 <0> d          -5.786   6.776  -3.443  0.00  0.00     0.279 HD
ENDBRANCH  26  36
ENDBRANCH   4  26
TORSDOF 8
