REMARK  3 active torsions:
REMARK  status: ('A' for Active; 'I' for Inactive)
REMARK    1  A    between atoms: C4_4  and  C7_7 
REMARK    2  A    between atoms: C7_7  and  O1_21 
REMARK    3  A    between atoms: N1_10  and  C11_12 
ROOT
ATOM      1  C7  <0> d           3.711  -0.707  -0.038  0.00  0.00     0.102 C 
ATOM      2  C8  <0> d           4.187  -1.015   1.407  0.00  0.00     0.064 C 
ATOM      3  C9  <0> d           5.069  -2.269   1.183  0.00  0.00     0.127 C 
ATOM      4  N1  <0> d           4.376  -3.035   0.132  0.00  0.00    -0.364 N 
ATOM      5  C10 <0> d           3.543  -2.112  -0.653  0.00  0.00     0.167 C 
ENDROOT
BRANCH   4   6
ATOM      6  C11 <0> d           4.488  -4.363  -0.076  0.00  0.00     0.136 C 
ATOM      7  C15 <0> d           5.373  -5.218   0.790  0.00  0.00     0.249 C 
ATOM      8  C13 <0> d           5.821  -6.378  -0.092  0.00  0.00     0.160 C 
ATOM      9  N5  <0> d           6.634  -4.594   1.170  0.00  0.00    -0.262 NA
ATOM     10  N3  <0> d           4.963  -6.990  -0.902  0.00  0.00    -0.224 NA
ATOM     11  N4  <0> d           7.096  -6.486   0.132  0.00  0.00    -0.224 NA
ATOM     12  C12 <0> d           3.950  -6.253  -1.342  0.00  0.00     0.237 C 
ATOM     13  N2  <0> d           3.829  -4.962  -1.051  0.00  0.00    -0.226 NA
ATOM     14  C14 <0> d           7.571  -5.411   0.774  0.00  0.00     0.230 C 
ENDBRANCH   4   6
BRANCH   1  15
ATOM     15  C4  <0> d           2.396   0.029  -0.020  0.00  0.00    -0.022 A 
ATOM     16  C3  <0> d           1.329  -0.480   0.697  0.00  0.00     0.010 A 
ATOM     17  C2  <0> d           0.123   0.196   0.714  0.00  0.00     0.001 A 
ATOM     18  C1  <0> d          -0.016   1.379   0.014  0.00  0.00     0.000 A 
ATOM     19  C6  <0> d           1.051   1.888  -0.703  0.00  0.00     0.001 A 
ATOM     20  C5  <0> d           2.257   1.212  -0.721  0.00  0.00     0.010 A 
ENDBRANCH   1  15
BRANCH   1  21
ATOM     21  O1  <0> d           4.698   0.042  -0.750  0.00  0.00    -0.383 OA
ATOM     22  H15 <0> d           4.869   0.919  -0.381  0.00  0.00     0.211 HD
ENDBRANCH   1  21
TORSDOF 3
