REMARK  5 active torsions:
REMARK  status: ('A' for Active; 'I' for Inactive)
REMARK    1  A    between atoms: C3_3  and  C6_9 
REMARK       I    between atoms: C6_9  and  N3_11 
REMARK    2  A    between atoms: N3_11  and  C7_12 
REMARK    3  A    between atoms: C7_12  and  C8_13 
REMARK    4  A    between atoms: C8_13  and  C10_15 
REMARK    5  A    between atoms: C10_15  and  N4_16 
ROOT
ATOM      1  C6  <0> d          -0.193  -0.510  -2.408  0.00  0.00     0.256 C 
ATOM      2  O1  <0> d           0.878  -0.506  -2.984  0.00  0.00    -0.267 OA
ATOM      3  N3  <0> d          -1.317  -0.177  -3.073  0.00  0.00    -0.356 N 
ATOM      4  H7  <0> d          -2.171  -0.180  -2.613  0.00  0.00     0.162 HD
ENDROOT
BRANCH   3   5
ATOM      5  C7  <0> d          -1.249   0.189  -4.490  0.00  0.00     0.128 C 
BRANCH   5   6
ATOM      6  C8  <0> d          -2.654   0.519  -4.999  0.00  0.00     0.018 C 
ATOM      7  C9  <0> d          -3.175   1.767  -4.284  0.00  0.00     0.013 C 
BRANCH   6   8
ATOM      8  C10 <0> d          -2.601   0.779  -6.506  0.00  0.00     0.135 C 
BRANCH   8   9
ATOM      9  N4  <0> d          -3.961   0.975  -7.015  0.00  0.00    -0.345 N 
ATOM     10  C13 <0> d          -4.854   0.005  -7.309  0.00  0.00     0.079 A 
ATOM     11  N5  <0> d          -5.954   0.564  -7.733  0.00  0.00    -0.355 N 
ATOM     12  C14 <0> d          -4.620  -1.477  -7.166  0.00  0.00     0.089 C 
ATOM     13  C12 <0> d          -5.801   1.897  -7.734  0.00  0.00     0.106 A 
ATOM     14  H21 <0> d          -6.755   0.090  -8.008  0.00  0.00     0.166 HD
ATOM     15  C11 <0> d          -4.561   2.174  -7.288  0.00  0.00     0.109 A 
ENDBRANCH   8   9
ENDBRANCH   6   8
ENDBRANCH   5   6
ENDBRANCH   3   5
BRANCH   1  16
ATOM     16  C3  <0> d          -0.262  -0.878  -0.983  0.00  0.00     0.098 A 
ATOM     17  C2  <0> d          -0.149   0.002   0.117  0.00  0.00     0.070 A 
ATOM     18  C1  <0> d           0.065   1.492   0.041  0.00  0.00     0.073 C 
ATOM     19  N2  <0> d          -0.257  -0.701   1.210  0.00  0.00    -0.176 NA
ATOM     20  N1  <0> d          -0.449  -2.045   0.868  0.00  0.00    -0.262 N 
ATOM     21  C4  <0> d          -0.449  -2.148  -0.471  0.00  0.00     0.139 A 
ATOM     22  C5  <0> d          -0.619  -3.152   1.812  0.00  0.00     0.181 C 
ATOM     23 Cl1  <0> d          -0.647  -3.608  -1.390  0.00  0.00    -0.062 Cl
ENDBRANCH   1  16
TORSDOF 5
