REMARK  5 active torsions:
REMARK  status: ('A' for Active; 'I' for Inactive)
REMARK    1  A    between atoms: N1_4  and  C7_9 
REMARK    2  A    between atoms: C7_9  and  C8_10 
REMARK    3  A    between atoms: C8_10  and  C9_11 
REMARK    4  A    between atoms: C8_10  and  O4_23 
REMARK    5  A    between atoms: C9_11  and  N2_12 
ROOT
ATOM      1  C8  <0> d          -2.695  -4.075  -0.135  0.00  0.00     0.164 C 
ENDROOT
BRANCH   1   2
ATOM      2  C7  <0> d          -2.768  -2.557   0.042  0.00  0.00     0.305 C 
BRANCH   2   3
ATOM      3  N1  <0> d          -1.407  -2.003   0.085  0.00  0.00     0.096 N 
ATOM      4  C3  <0> d          -1.434  -0.535   0.015  0.00  0.00     0.303 C 
ATOM      5  C2  <0> d           0.002  -0.004   0.002  0.00  0.00     0.146 C 
ATOM      6  C1  <0> d          -0.019   1.526   0.010  0.00  0.00     0.041 C 
ATOM      7  O1  <0> d           0.692  -0.479   1.161  0.00  0.00    -0.378 OA
ATOM      8  C5  <0> d           0.736  -1.905   1.261  0.00  0.00     0.146 C 
ATOM      9  C4  <0> d          -0.692  -2.455   1.287  0.00  0.00     0.303 C 
ATOM     10  C6  <0> d           1.483  -2.478   0.055  0.00  0.00     0.041 C 
ENDBRANCH   2   3
ENDBRANCH   1   2
BRANCH   1  11
ATOM     11  C9  <0> d          -4.111  -4.651  -0.179  0.00  0.00     0.168 C 
BRANCH  11  12
ATOM     12  N2  <0> d          -4.042  -6.114  -0.228  0.00  0.00    -0.285 N 
ATOM     13  C13 <0> d          -4.027  -6.878   0.875  0.00  0.00     0.235 A 
ATOM     14  C12 <0> d          -3.956  -8.323   0.463  0.00  0.00     0.050 A 
ATOM     15  O3  <0> d          -4.068  -6.471   2.016  0.00  0.00    -0.272 OA
ATOM     16  C11 <0> d          -3.921  -8.282  -1.070  0.00  0.00     0.122 A 
ATOM     17  C17 <0> d          -2.705  -9.003   1.026  0.00  0.00     0.020 C 
ATOM     18  C14 <0> d          -5.173  -9.112   0.962  0.00  0.00     0.020 C 
ATOM     19  C10 <0> d          -3.982  -6.800  -1.378  0.00  0.00     0.227 A 
ATOM     20  O2  <0> d          -3.978  -6.312  -2.487  0.00  0.00    -0.273 OA
ATOM     21  C16 <0> d          -3.204 -10.198   1.868  0.00  0.00     0.001 C 
ATOM     22  C15 <0> d          -4.603 -10.518   1.283  0.00  0.00     0.001 C 
ENDBRANCH  11  12
ENDBRANCH   1  11
BRANCH   1  23
ATOM     23  O4  <0> d          -2.018  -4.380  -1.355  0.00  0.00    -0.392 OA
ATOM     24  H28 <0> d          -2.447  -4.022  -2.144  0.00  0.00     0.210 HD
ENDBRANCH   1  23
TORSDOF 5
