REMARK  9 active torsions:
REMARK  status: ('A' for Active; 'I' for Inactive)
REMARK    1  A    between atoms: C7_7  and  O1_8 
REMARK    2  A    between atoms: O1_8  and  C8_9 
REMARK    3  A    between atoms: C8_9  and  C9_10 
REMARK    4  A    between atoms: C9_10  and  C10_11 
REMARK    5  A    between atoms: C10_11  and  N1_12 
REMARK    6  A    between atoms: N1_12  and  C12_14 
REMARK    7  A    between atoms: C12_14  and  C13_15 
REMARK       I    between atoms: C13_15  and  N2_17 
REMARK    8  A    between atoms: N2_17  and  C14_18 
REMARK    9  A    between atoms: C19_23  and  C20_24 
REMARK       I    between atoms: C20_24  and  N3_26 
ROOT
ATOM      1  C12 <0> d          -0.061  -0.670   8.470  0.00  0.00     0.336 C 
ENDROOT
BRANCH   1   2
ATOM      2  N1  <0> d           0.038   0.132   7.243  0.00  0.00    -0.067 N 
ATOM      3  C11 <0> d           1.293   0.897   7.259  0.00  0.00     0.270 C 
ATOM      4  H26 <0> d          -0.743   0.769   7.194  0.00  0.00     0.280 HD
BRANCH   2   5
ATOM      5  C10 <0> d           0.021  -0.757   6.074  0.00  0.00     0.237 C 
BRANCH   5   6
ATOM      6  C9  <0> d          -0.001   0.083   4.795  0.00  0.00     0.054 C 
BRANCH   6   7
ATOM      7  C8  <0> d          -0.019  -0.843   3.577  0.00  0.00     0.177 C 
BRANCH   7   8
ATOM      8  O1  <0> d          -0.040  -0.059   2.383  0.00  0.00    -0.351 OA
BRANCH   8   9
ATOM      9  C7  <0> d          -0.058  -0.733   1.203  0.00  0.00     0.074 A 
ATOM     10  C2  <0> d          -0.078  -0.034   0.004  0.00  0.00    -0.029 A 
ATOM     11  C1  <0> d          -0.081   1.473   0.010  0.00  0.00     0.051 C 
ATOM     12  C3  <0> d          -0.090  -0.721  -1.194  0.00  0.00     0.009 A 
ATOM     13  C4  <0> d          -0.088  -2.104  -1.200  0.00  0.00     0.001 A 
ATOM     14  C5  <0> d          -0.073  -2.802  -0.006  0.00  0.00     0.003 A 
ATOM     15  C6  <0> d          -0.061  -2.120   1.194  0.00  0.00     0.037 A 
ENDBRANCH   8   9
ENDBRANCH   7   8
ENDBRANCH   6   7
ENDBRANCH   5   6
ENDBRANCH   2   5
ENDBRANCH   1   2
BRANCH   1  16
ATOM     16  C13 <0> d          -0.167   0.246   9.662  0.00  0.00     0.248 C 
ATOM     17  O2  <0> d          -0.160   1.448   9.505  0.00  0.00    -0.271 OA
ATOM     18  N2  <0> d          -0.269  -0.272  10.902  0.00  0.00    -0.325 N 
ATOM     19  H19 <0> d          -0.340  -1.231  11.023  0.00  0.00     0.169 HD
BRANCH  18  20
ATOM     20  C14 <0> d          -0.273   0.572  12.011  0.00  0.00     0.050 A 
ATOM     21  C19 <0> d           0.332   0.164  13.209  0.00  0.00     0.058 A 
ATOM     22  C18 <0> d           0.327   1.022  14.311  0.00  0.00     0.019 A 
ATOM     23  C17 <0> d          -0.280   2.256  14.219  0.00  0.00     0.001 A 
ATOM     24  C16 <0> d          -0.881   2.653  13.036  0.00  0.00     0.002 A 
ATOM     25  C15 <0> d          -0.879   1.819  11.937  0.00  0.00     0.030 A 
BRANCH  21  26
ATOM     26  C20 <0> d           0.975  -1.161  13.302  0.00  0.00     0.251 C 
ATOM     27  O3  <0> d           1.067  -1.863  12.313  0.00  0.00    -0.268 OA
ATOM     28  N3  <0> d           1.459  -1.593  14.483  0.00  0.00    -0.366 N 
ATOM     29  H24 <0> d           1.385  -1.033  15.272  0.00  0.00     0.159 HD
ATOM     30  H25 <0> d           1.882  -2.464  14.545  0.00  0.00     0.159 HD
ENDBRANCH  21  26
ENDBRANCH  18  20
ENDBRANCH   1  16
TORSDOF 9
