REMARK  4 active torsions:
REMARK  status: ('A' for Active; 'I' for Inactive)
REMARK    1  A    between atoms: C6_7  and  N4_18 
REMARK    2  A    between atoms: C7_9  and  C8_11 
REMARK    3  A    between atoms: C8_11  and  N3_12 
REMARK    4  A    between atoms: N4_18  and  C13_19 
ROOT
ATOM      1  C1  <0> d          -0.196  -0.077  -4.216  0.00  0.00     0.050 C 
ATOM      2  C2  <0> d          -0.757  -1.475  -4.197  0.00  0.00    -0.032 A 
ATOM      3  C3  <0> d          -0.762  -2.219  -5.313  0.00  0.00    -0.012 A 
ATOM      4  S1  <0> d          -1.508  -3.752  -4.789  0.00  0.00    -0.074 SA
ATOM      5  C4  <0> d          -1.792  -3.352  -3.085  0.00  0.00     0.114 A 
ATOM      6  C5  <0> d          -1.298  -2.034  -2.970  0.00  0.00     0.052 A 
ATOM      7  C6  <0> d          -1.404  -1.454  -1.677  0.00  0.00     0.140 A 
ATOM      8  N1  <0> d          -1.936  -2.162  -0.694  0.00  0.00    -0.213 NA
ATOM      9  C7  <0> d          -2.384  -3.392  -0.875  0.00  0.00     0.158 A 
ATOM     10  N2  <0> d          -2.312  -3.983  -2.052  0.00  0.00    -0.223 NA
ATOM     11  C17 <0> d          -0.259  -1.848  -6.684  0.00  0.00     0.057 C 
ENDROOT
BRANCH   7  12
ATOM     12  N4  <0> d          -0.952  -0.166  -1.447  0.00  0.00    -0.365 N 
ATOM     13  H15 <0> d          -0.416   0.378  -2.239  0.00  0.00     0.162 HD
BRANCH  12  14
ATOM     14  C13 <0> d          -1.188   0.472  -0.150  0.00  0.00     0.121 C 
ATOM     15  C16 <0> d          -0.120   0.050   0.808  0.00  0.00     0.011 C 
ATOM     16  C15 <0> d           0.867   0.859   1.089  0.00  0.00     0.107 C 
ATOM     17  S2  <0> d           0.564   2.346   0.152  0.00  0.00     0.167 S 
ATOM     18  C14 <0> d          -1.183   2.014  -0.330  0.00  0.00     0.173 C 
ATOM     19  O2  <0> d           1.427   2.279  -0.975  0.00  0.00    -0.223 OA
ATOM     20  O3  <0> d           0.642   3.416   1.084  0.00  0.00    -0.223 OA
ENDBRANCH  12  14
ENDBRANCH   7  12
BRANCH   9  21
ATOM     21  C8  <0> d          -2.984  -4.137   0.290  0.00  0.00     0.352 C 
BRANCH  21  22
ATOM     22  N3  <0> d          -1.928  -4.877   0.994  0.00  0.00     0.099 N 
ATOM     23  C12 <0> d          -2.425  -5.421   2.266  0.00  0.00     0.299 C 
ATOM     24  C11 <0> d          -1.280  -6.131   2.993  0.00  0.00     0.198 C 
ATOM     25  O1  <0> d          -0.740  -7.147   2.143  0.00  0.00    -0.388 OA
ATOM     26  C10 <0> d          -0.245  -6.651   0.896  0.00  0.00     0.198 C 
ATOM     27  C9  <0> d          -1.380  -5.946   0.147  0.00  0.00     0.299 C 
ENDBRANCH  21  22
ENDBRANCH   9  21
TORSDOF 4
