REMARK  6 active torsions:
REMARK  status: ('A' for Active; 'I' for Inactive)
REMARK    1  A    between atoms: C2_2  and  C3_3 
REMARK    2  A    between atoms: C2_2  and  N5_26 
REMARK    3  A    between atoms: C7_7  and  C9_9 
REMARK    4  A    between atoms: C10_10  and  C16_20 
REMARK    5  A    between atoms: N2_13  and  C12_14 
REMARK    6  A    between atoms: C12_14  and  C13_15 
ROOT
ATOM      1  C9  <0> d          -3.759  -2.094   2.629  0.00  0.00     0.296 C 
ATOM      2  C10 <0> d          -4.462  -0.870   3.246  0.00  0.00     0.293 C 
ATOM      3  N1  <0> d          -5.913  -1.161   3.167  0.00  0.00     0.123 N 
ATOM      4  C11 <0> d          -6.035  -2.144   2.060  0.00  0.00     0.542 C 
ATOM      5  N2  <0> d          -4.845  -3.021   2.231  0.00  0.00     0.135 N 
ATOM      6  H11 <0> d          -6.252  -1.549   4.035  0.00  0.00     0.319 HD
ENDROOT
BRANCH   1   7
ATOM      7  C7  <0> d          -2.958  -1.681   1.421  0.00  0.00    -0.022 A 
ATOM      8  C6  <0> d          -3.585  -1.065   0.354  0.00  0.00     0.009 A 
ATOM      9  C5  <0> d          -2.850  -0.686  -0.754  0.00  0.00     0.001 A 
ATOM     10  C4  <0> d          -1.488  -0.921  -0.794  0.00  0.00     0.009 A 
ATOM     11  C3  <0> d          -0.862  -1.536   0.274  0.00  0.00    -0.027 A 
ATOM     12  C8  <0> d          -1.597  -1.920   1.379  0.00  0.00     0.018 A 
BRANCH  11  13
ATOM     13  C2  <0> d           0.623  -1.793   0.230  0.00  0.00     0.216 C 
ATOM     14  C1  <0> d           1.373  -0.508   0.586  0.00  0.00     0.045 C 
BRANCH  13  15
ATOM     15  N5  <0> d           1.005  -2.225  -1.121  0.00  0.00    -0.071 N 
ATOM     16  C22 <0> d           2.452  -2.476  -1.163  0.00  0.00     0.270 C 
ATOM     17  C23 <0> d           0.285  -3.459  -1.462  0.00  0.00     0.270 C 
ATOM     18  H30 <0> d           0.769  -1.503  -1.784  0.00  0.00     0.279 HD
ENDBRANCH  13  15
ENDBRANCH  11  13
ENDBRANCH   1   7
BRANCH   5  19
ATOM     19  C12 <0> d          -4.514  -3.712   0.977  0.00  0.00     0.351 C 
BRANCH  19  20
ATOM     20  C13 <0> d          -5.423  -4.901   0.804  0.00  0.00     0.109 A 
ATOM     21  N4  <0> d          -5.672  -5.520  -0.339  0.00  0.00    -0.353 N 
ATOM     22  C15 <0> d          -6.528  -6.534  -0.092  0.00  0.00     0.106 A 
ATOM     23  H16 <0> d          -5.302  -5.286  -1.204  0.00  0.00     0.166 HD
ATOM     24  C14 <0> d          -6.803  -6.516   1.227  0.00  0.00     0.106 A 
ATOM     25  N3  <0> d          -6.107  -5.495   1.769  0.00  0.00    -0.353 N 
ATOM     26  H31 <0> d          -6.109  -5.239   2.705  0.00  0.00     0.166 HD
ENDBRANCH  19  20
ENDBRANCH   5  19
BRANCH   2  27
ATOM     27  C16 <0> d          -4.041  -0.697   4.683  0.00  0.00    -0.023 A 
ATOM     28  C21 <0> d          -3.076   0.237   5.012  0.00  0.00     0.009 A 
ATOM     29  C20 <0> d          -2.693   0.398   6.331  0.00  0.00     0.001 A 
ATOM     30  C19 <0> d          -3.268  -0.380   7.318  0.00  0.00     0.000 A 
ATOM     31  C18 <0> d          -4.229  -1.317   6.987  0.00  0.00     0.001 A 
ATOM     32  C17 <0> d          -4.615  -1.476   5.670  0.00  0.00     0.009 A 
ENDBRANCH   2  27
TORSDOF 6
