REMARK  3 active torsions:
REMARK  status: ('A' for Active; 'I' for Inactive)
REMARK    1  A    between atoms: C2_2  and  N1_9 
REMARK    2  A    between atoms: N1_9  and  C6_10 
REMARK    3  A    between atoms: C6_10  and  C11_15 
ROOT
ATOM      1  N1  <0> d           1.033   0.567  -1.479  0.00  0.00    -0.047 N 
ATOM      2  H10 <0> d           1.615   1.254  -1.934  0.00  0.00     0.279 HD
ATOM      3  H19 <0> d           1.593  -0.236  -1.230  0.00  0.00     0.279 HD
ENDROOT
BRANCH   1   4
ATOM      4  C2  <0> d           0.446   1.149  -0.265  0.00  0.00     0.137 C 
ATOM      5  C1  <0> d          -0.546   2.239  -0.677  0.00  0.00     0.047 C 
ATOM      6  C5  <0> d           1.570   1.794   0.568  0.00  0.00     0.178 C 
ATOM      7  S1  <0> d           1.573   0.797   2.116  0.00  0.00     0.146 S 
ATOM      8  C4  <0> d           0.627  -0.661   1.492  0.00  0.00     0.143 C 
ATOM      9  O1  <0> d           2.904   0.398   2.413  0.00  0.00    -0.228 OA
ATOM     10  O2  <0> d           0.802   1.466   3.105  0.00  0.00    -0.228 OA
ATOM     11  C3  <0> d          -0.314   0.053   0.482  0.00  0.00     0.054 C 
ENDBRANCH   1   4
BRANCH   1  12
ATOM     12  C6  <0> d          -0.040   0.151  -2.392  0.00  0.00     0.213 C 
ATOM     13  C10 <0> d          -0.908  -0.937  -1.726  0.00  0.00     0.051 C 
ATOM     14  C9  <0> d          -2.098  -0.153  -1.118  0.00  0.00     0.003 C 
ATOM     15  C8  <0> d          -2.375   0.933  -2.187  0.00  0.00     0.003 C 
ATOM     16  C7  <0> d          -0.972   1.339  -2.685  0.00  0.00     0.051 C 
BRANCH  12  17
ATOM     17  C11 <0> d           0.549  -0.373  -3.676  0.00  0.00     0.210 C 
ATOM     18  O3  <0> d           1.518  -1.113  -3.644  0.00  0.00    -0.646 OA
ATOM     19  O4  <0> d           0.057  -0.058  -4.746  0.00  0.00    -0.646 OA
ENDBRANCH  12  17
ENDBRANCH   1  12
TORSDOF 3
