REMARK  3 active torsions:
REMARK  status: ('A' for Active; 'I' for Inactive)
REMARK    1  A    between atoms: C2_2  and  C4_4 
REMARK    2  A    between atoms: C4_4  and  N1_5 
REMARK       I    between atoms: N1_5  and  C5_6 
REMARK    3  A    between atoms: C5_6  and  C6_8 
ROOT
ATOM      1  C6  <0> d          -1.454  -4.303   0.797  0.00  0.00     0.291 C 
ATOM      2  C7  <0> d          -0.346  -4.893  -0.108  0.00  0.00     0.126 C 
ATOM      3  C8  <0> d           0.494  -5.778   0.813  0.00  0.00     0.179 C 
ATOM      4  C9  <0> d           0.209  -5.194   2.181  0.00  0.00     0.358 C 
ATOM      5  N2  <0> d           0.389  -6.154   3.273  0.00  0.00    -0.356 N 
ATOM      6  C10 <0> d          -0.236  -5.810   4.487  0.00  0.00     0.037 A 
ATOM      7  C11 <0> d           0.113  -6.476   5.653  0.00  0.00     0.030 A 
ATOM      8  C12 <0> d          -0.490  -6.133   6.847  0.00  0.00     0.002 A 
ATOM      9  C13 <0> d          -1.438  -5.126   6.878  0.00  0.00     0.001 A 
ATOM     10  C14 <0> d          -1.789  -4.463   5.717  0.00  0.00     0.011 A 
ATOM     11  C15 <0> d          -1.195  -4.805   4.517  0.00  0.00    -0.006 A 
ATOM     12  C16 <0> d          -1.613  -4.087   3.252  0.00  0.00     0.279 C 
ATOM     13  N3  <0> d          -1.258  -4.920   2.113  0.00  0.00    -0.026 N 
ATOM     14  O2  <0> d           1.207  -6.709   0.523  0.00  0.00    -0.294 OA
ATOM     15  H20 <0> d           0.903  -6.970   3.167  0.00  0.00     0.162 HD
ATOM     16  H21 <0> d          -1.768  -5.790   2.159  0.00  0.00     0.284 HD
ENDROOT
BRANCH   1  17
ATOM     17  C5  <0> d          -1.305  -2.807   0.896  0.00  0.00     0.265 C 
ATOM     18  N1  <0> d          -2.146  -2.000   0.220  0.00  0.00    -0.258 N 
ATOM     19 Cl1  <0> d          -3.297  -2.670  -0.852  0.00  0.00     0.016 Cl
ATOM     20  O1  <0> d          -0.428  -2.329   1.584  0.00  0.00    -0.270 OA
BRANCH  18  21
ATOM     21  C4  <0> d          -2.073  -0.548   0.402  0.00  0.00     0.150 C 
BRANCH  21  22
ATOM     22  C2  <0> d          -2.787  -0.161   1.699  0.00  0.00    -0.003 C 
ATOM     23  C1  <0> d          -2.570   1.329   1.975  0.00  0.00     0.011 C 
ATOM     24  C3  <0> d          -4.285  -0.441   1.560  0.00  0.00     0.011 C 
ENDBRANCH  21  22
ENDBRANCH  18  21
ENDBRANCH   1  17
TORSDOF 3
