REMARK  4 active torsions:
REMARK  status: ('A' for Active; 'I' for Inactive)
REMARK    1  A    between atoms: N1_5  and  C5_7 
REMARK    2  A    between atoms: C5_7  and  C7_9 
REMARK       I    between atoms: C7_9  and  N3_11 
REMARK    3  A    between atoms: C8_12  and  C12_17 
REMARK    4  A    between atoms: C8_12  and  O2_20 
ROOT
ATOM      1  C7  <0> d           0.000   1.080   2.488  0.00  0.00     0.267 C 
ATOM      2  O1  <0> d          -0.572   0.370   3.288  0.00  0.00    -0.269 OA
ATOM      3  N3  <0> d           1.288   1.422   2.691  0.00  0.00    -0.195 N 
ATOM      4  C8  <0> d           2.116   1.007   3.835  0.00  0.00     0.221 A 
ATOM      5  C9  <0> d           3.474   1.680   3.551  0.00  0.00     0.125 A 
ATOM      6  C10 <0> d           3.248   2.413   2.248  0.00  0.00     0.034 A 
ATOM      7  N4  <0> d           2.058   2.222   1.849  0.00  0.00    -0.176 NA
ATOM      8  C11 <0> d           4.282   3.240   1.528  0.00  0.00     0.067 C 
ENDROOT
BRANCH   1   9
ATOM      9  C5  <0> d          -0.729   1.579   1.267  0.00  0.00     0.200 C 
ATOM     10  C6  <0> d          -0.013   1.086   0.008  0.00  0.00     0.044 C 
BRANCH   9  11
ATOM     11  N1  <0> d          -2.103   1.072   1.277  0.00  0.00    -0.259 N 
ATOM     12  C4  <0> d          -3.227   1.822   1.292  0.00  0.00     0.051 A 
ATOM     13  C3  <0> d          -4.285   0.978   1.297  0.00  0.00     0.083 A 
ATOM     14  C13 <0> d          -3.290   3.327   1.301  0.00  0.00     0.072 C 
ATOM     15  C2  <0> d          -3.792  -0.332   1.284  0.00  0.00     0.074 A 
ATOM     16 Cl1  <0> d          -5.959   1.439   1.316  0.00  0.00    -0.080 Cl
ATOM     17  C1  <0> d          -4.622  -1.589   1.285  0.00  0.00     0.074 C 
ATOM     18  N2  <0> d          -2.484  -0.276   1.268  0.00  0.00    -0.175 NA
ENDBRANCH   9  11
ENDBRANCH   1   9
BRANCH   4  19
ATOM     19  C12 <0> d           1.522   1.523   5.147  0.00  0.00     0.410 C 
ATOM     20  F1  <0> d           2.344   1.143   6.213  0.00  0.00    -0.209 F 
ATOM     21  F2  <0> d           1.432   2.919   5.101  0.00  0.00    -0.209 F 
ENDBRANCH   4  19
BRANCH   4  22
ATOM     22  O2  <0> d           2.251  -0.415   3.870  0.00  0.00    -0.364 OA
ATOM     23  H14 <0> d           1.414  -0.888   3.975  0.00  0.00     0.213 HD
ENDBRANCH   4  22
TORSDOF 4
