REMARK  8 active torsions:
REMARK  status: ('A' for Active; 'I' for Inactive)
REMARK    1  A    between atoms: C2_2  and  C3_3 
REMARK    2  A    between atoms: C3_3  and  N1_4 
REMARK       I    between atoms: N1_4  and  C4_5 
REMARK    3  A    between atoms: C4_5  and  C5_7 
REMARK    4  A    between atoms: C5_7  and  C6_8 
REMARK    5  A    between atoms: C9_11  and  N2_14 
REMARK    6  A    between atoms: N3_23  and  C20_26 
REMARK    7  A    between atoms: C20_26  and  C21_27 
REMARK       I    between atoms: C21_27  and  N4_29 
REMARK    8  A    between atoms: N4_29  and  C22_30 
ROOT
ATOM      1  N2  <0> d           3.998  -5.960  -6.962  0.00  0.00    -0.229 N 
ATOM      2  C12 <0> d           3.272  -6.271  -8.058  0.00  0.00     0.268 A 
ATOM      3  O2  <0> d           2.061  -6.164  -8.055  0.00  0.00    -0.267 OA
ATOM      4  C13 <0> d           3.986  -6.744  -9.257  0.00  0.00     0.060 A 
ATOM      5  C14 <0> d           3.309  -7.085 -10.426  0.00  0.00     0.019 A 
ATOM      6  C15 <0> d           4.024  -7.522 -11.522  0.00  0.00     0.001 A 
ATOM      7  C16 <0> d           5.406  -7.623 -11.464  0.00  0.00     0.002 A 
ATOM      8  C17 <0> d           6.088  -7.289 -10.311  0.00  0.00     0.031 A 
ATOM      9  C18 <0> d           5.387  -6.847  -9.200  0.00  0.00     0.055 A 
ATOM     10  N3  <0> d           6.034  -6.501  -8.023  0.00  0.00    -0.289 N 
ATOM     11  C19 <0> d           5.335  -6.070  -6.958  0.00  0.00     0.337 A 
ATOM     12  O3  <0> d           5.941  -5.771  -5.947  0.00  0.00    -0.246 OA
ENDROOT
BRANCH   1  13
ATOM     13  C9  <0> d           3.342  -5.507  -5.809  0.00  0.00     0.047 A 
ATOM     14  C8  <0> d           3.113  -4.150  -5.627  0.00  0.00     0.031 A 
ATOM     15  C7  <0> d           2.466  -3.708  -4.490  0.00  0.00     0.010 A 
ATOM     16  C6  <0> d           2.046  -4.614  -3.534  0.00  0.00    -0.049 A 
ATOM     17  C11 <0> d           2.277  -5.966  -3.711  0.00  0.00     0.010 A 
ATOM     18  C10 <0> d           2.920  -6.415  -4.848  0.00  0.00     0.031 A 
BRANCH  16  19
ATOM     19  C5  <0> d           1.340  -4.128  -2.295  0.00  0.00     0.141 C 
BRANCH  19  20
ATOM     20  C4  <0> d           2.356  -3.838  -1.219  0.00  0.00     0.221 C 
ATOM     21  N1  <0> d           1.952  -3.389  -0.015  0.00  0.00    -0.361 N 
ATOM     22  H8  <0> d           1.008  -3.251   0.160  0.00  0.00     0.162 HD
ATOM     23  O1  <0> d           3.536  -4.010  -1.438  0.00  0.00    -0.273 OA
BRANCH  21  24
ATOM     24  C3  <0> d           2.939  -3.107   1.031  0.00  0.00     0.122 C 
BRANCH  24  25
ATOM     25  C2  <0> d           2.223  -2.613   2.289  0.00  0.00     0.015 C 
ATOM     26  C1  <0> d           3.253  -2.319   3.381  0.00  0.00     0.006 C 
ENDBRANCH  24  25
ENDBRANCH  21  24
ENDBRANCH  19  20
ENDBRANCH  16  19
ENDBRANCH   1  13
BRANCH  10  27
ATOM     27  C20 <0> d           7.493  -6.601  -7.941  0.00  0.00     0.236 C 
BRANCH  27  28
ATOM     28  C21 <0> d           8.111  -5.295  -8.371  0.00  0.00     0.236 C 
ATOM     29  O4  <0> d           7.403  -4.372  -8.713  0.00  0.00    -0.272 OA
ATOM     30  N4  <0> d           9.452  -5.154  -8.376  0.00  0.00    -0.356 N 
ATOM     31  H21 <0> d          10.018  -5.892  -8.103  0.00  0.00     0.162 HD
BRANCH  30  32
ATOM     32  C22 <0> d          10.052  -3.885  -8.795  0.00  0.00     0.076 C 
ATOM     33  C23 <0> d          11.434  -3.739  -8.155  0.00  0.00     0.032 C 
ATOM     34  C24 <0> d          10.191  -3.864 -10.319  0.00  0.00     0.032 C 
ENDBRANCH  30  32
ENDBRANCH  27  28
ENDBRANCH  10  27
TORSDOF 8
