REMARK  5 active torsions:
REMARK  status: ('A' for Active; 'I' for Inactive)
REMARK    1  A    between atoms: C4_4  and  C7_7 
REMARK    2  A    between atoms: C7_7  and  S1_8 
REMARK    3  A    between atoms: S1_8  and  C8_9 
REMARK    4  A    between atoms: C11_14  and  C15_21 
REMARK       I    between atoms: C15_21  and  N4_23 
REMARK    5  A    between atoms: N4_23  and  C16_24 
ROOT
ATOM      1  C8  <0> d           5.819  -1.880   1.533  0.00  0.00     0.193 A 
ATOM      2  N1  <0> d           6.234  -2.099   0.297  0.00  0.00    -0.187 NA
ATOM      3  C9  <0> d           7.405  -2.684   0.035  0.00  0.00     0.258 A 
ATOM      4  O1  <0> d           7.766  -2.905  -1.105  0.00  0.00    -0.270 OA
ATOM      5  C10 <0> d           8.261  -3.058   1.227  0.00  0.00     0.163 A 
ATOM      6  C11 <0> d           8.589  -4.549   1.132  0.00  0.00     0.107 C 
ATOM      7  C12 <0> d           9.593  -4.900   2.234  0.00  0.00     0.118 C 
ATOM      8  C13 <0> d           9.143  -4.365   3.562  0.00  0.00     0.223 C 
ATOM      9  O2  <0> d           9.622  -4.839   4.570  0.00  0.00    -0.273 OA
ATOM     10  N2  <0> d           8.232  -3.385   3.684  0.00  0.00    -0.314 N 
ATOM     11  C14 <0> d           7.626  -2.849   2.589  0.00  0.00     0.123 A 
ATOM     12  N3  <0> d           6.468  -2.256   2.642  0.00  0.00    -0.208 NA
ATOM     13  H12 <0> d           8.010  -3.043   4.564  0.00  0.00     0.170 HD
ENDROOT
BRANCH   6  14
ATOM     14  C15 <0> d           9.189  -4.851  -0.217  0.00  0.00     0.228 C 
ATOM     15  O3  <0> d          10.165  -4.240  -0.598  0.00  0.00    -0.273 OA
ATOM     16  N4  <0> d           8.639  -5.799  -1.002  0.00  0.00    -0.325 N 
ATOM     17  H13 <0> d           7.812  -6.229  -0.735  0.00  0.00     0.169 HD
BRANCH  16  18
ATOM     18  C16 <0> d           9.262  -6.162  -2.202  0.00  0.00     0.056 A 
ATOM     19  C21 <0> d           8.496  -6.535  -3.299  0.00  0.00     0.060 A 
ATOM     20  C20 <0> d           9.114  -6.888  -4.484  0.00  0.00     0.026 A 
ATOM     21 Cl1  <0> d           6.764  -6.551  -3.185  0.00  0.00    -0.082 Cl
ATOM     22  C19 <0> d          10.494  -6.880  -4.574  0.00  0.00     0.002 A 
ATOM     23  C18 <0> d          11.259  -6.515  -3.481  0.00  0.00     0.002 A 
ATOM     24  C17 <0> d          10.647  -6.156  -2.296  0.00  0.00     0.031 A 
ENDBRANCH  16  18
ENDBRANCH   6  14
BRANCH   1  25
ATOM     25  S1  <0> d           4.296  -1.018   1.737  0.00  0.00    -0.085 SA
BRANCH  25  26
ATOM     26  C7  <0> d           3.745  -0.693   0.040  0.00  0.00     0.121 C 
BRANCH  26  27
ATOM     27  C4  <0> d           2.434   0.050   0.071  0.00  0.00    -0.049 A 
ATOM     28  C3  <0> d           2.423   1.432   0.093  0.00  0.00     0.008 A 
ATOM     29  C2  <0> d           1.221   2.113   0.120  0.00  0.00     0.001 A 
ATOM     30  C1  <0> d           0.029   1.412   0.125  0.00  0.00     0.000 A 
ATOM     31  C6  <0> d           0.040   0.030   0.102  0.00  0.00     0.001 A 
ATOM     32  C5  <0> d           1.243  -0.651   0.076  0.00  0.00     0.008 A 
ENDBRANCH  26  27
ENDBRANCH  25  26
ENDBRANCH   1  25
TORSDOF 5
