REMARK  5 active torsions:
REMARK  status: ('A' for Active; 'I' for Inactive)
REMARK    1  A    between atoms: C2_2  and  C3_3 
REMARK    2  A    between atoms: C2_2  and  N6_20 
REMARK    3  A    between atoms: C3_3  and  C4_4 
REMARK    4  A    between atoms: C3_3  and  S1_10 
REMARK    5  A    between atoms: S1_10  and  C8_11 
ROOT
ATOM      1  C3  <0> d           0.843  -0.526   1.171  0.00  0.00     0.121 C 
ENDROOT
BRANCH   1   2
ATOM      2  C2  <0> d          -0.027  -0.058   0.002  0.00  0.00     0.198 C 
ATOM      3  C1  <0> d          -0.147   1.467   0.033  0.00  0.00     0.041 C 
BRANCH   2   4
ATOM      4  N6  <0> d           0.589  -0.475  -1.265  0.00  0.00    -0.074 N 
ATOM      5  H15 <0> d           1.507  -0.064  -1.343  0.00  0.00     0.274 HD
ATOM      6  H16 <0> d           0.668  -1.481  -1.285  0.00  0.00     0.274 HD
ATOM      7  H17 <0> d           0.015  -0.167  -2.035  0.00  0.00     0.274 HD
ENDBRANCH   2   4
ENDBRANCH   1   2
BRANCH   1   8
ATOM      8  C4  <0> d           1.003  -2.023   1.110  0.00  0.00    -0.006 A 
ATOM      9  C6  <0> d           2.172  -2.695   0.994  0.00  0.00     0.121 A 
ATOM     10  N2  <0> d           1.888  -4.014   0.978  0.00  0.00    -0.285 N 
ATOM     11  N1  <0> d           0.498  -4.158   1.079  0.00  0.00    -0.185 NA
ATOM     12  C7  <0> d           2.861  -5.104   0.869  0.00  0.00     0.179 C 
ATOM     13  C5  <0> d          -0.031  -2.964   1.158  0.00  0.00     0.148 A 
ENDBRANCH   1   8
BRANCH   1  14
ATOM     14  S1  <0> d           0.051  -0.065   2.736  0.00  0.00    -0.078 SA
BRANCH  14  15
ATOM     15  C8  <0> d           1.261  -0.454   3.957  0.00  0.00     0.196 A 
ATOM     16  N5  <0> d           1.170  -0.201   5.293  0.00  0.00    -0.283 N 
ATOM     17  C9  <0> d           2.341  -0.678   5.846  0.00  0.00     0.158 A 
ATOM     18  C10 <0> d           0.218   0.379   6.085  0.00  0.00     0.101 A 
ATOM     19  N4  <0> d           3.060  -1.170   4.854  0.00  0.00    -0.129 NA
ATOM     20  C13 <0> d           2.551  -0.566   7.235  0.00  0.00     0.053 A 
ATOM     21  N3  <0> d           2.420  -1.036   3.746  0.00  0.00    -0.122 NA
ATOM     22  C12 <0> d           1.597   0.021   8.006  0.00  0.00     0.005 A 
ATOM     23  C11 <0> d           0.411   0.495   7.414  0.00  0.00     0.018 A 
ENDBRANCH  14  15
ENDBRANCH   1  14
TORSDOF 5
