REMARK  3 active torsions:
REMARK  status: ('A' for Active; 'I' for Inactive)
REMARK    1  A    between atoms: C2_2  and  N3_21 
REMARK    2  A    between atoms: C4_4  and  N3_21 
REMARK    3  A    between atoms: N2_12  and  C11_13 
ROOT
ATOM      1  C4  <0> d          -1.223   2.323  -0.186  0.00  0.00     0.223 C 
ATOM      2  C5  <0> d          -0.780   3.788  -0.105  0.00  0.00     0.047 C 
ATOM      3  C6  <0> d           0.403   4.021  -1.048  0.00  0.00    -0.040 C 
ATOM      4  C7  <0> d           1.646   3.311  -0.495  0.00  0.00     0.069 C 
ATOM      5  C8  <0> d           1.272   1.888  -0.163  0.00  0.00     0.047 A 
ATOM      6  C9  <0> d          -0.005   1.447  -0.029  0.00  0.00     0.016 A 
ATOM      7  C10 <0> d           0.039   0.088   0.273  0.00  0.00     0.150 A 
ATOM      8  N1  <0> d           1.297  -0.279   0.323  0.00  0.00    -0.179 NA
ATOM      9  N2  <0> d           2.093   0.844   0.051  0.00  0.00    -0.238 N 
ATOM     10  C17 <0> d           0.680   5.521  -1.159  0.00  0.00     0.015 C 
ATOM     11  C18 <0> d           0.070   3.460  -2.432  0.00  0.00     0.015 C 
ENDROOT
BRANCH   1  12
ATOM     12  N3  <0> d          -2.179   2.031   0.898  0.00  0.00    -0.063 N 
ATOM     13  H25 <0> d          -2.123   1.034   1.139  0.00  0.00     0.278 HD
ATOM     14  H26 <0> d          -1.940   2.596   1.722  0.00  0.00     0.278 HD
BRANCH  12  15
ATOM     15  C2  <0> d          -3.553   2.352   0.470  0.00  0.00     0.178 C 
ATOM     16  C1  <0> d          -4.155   1.149  -0.260  0.00  0.00     0.039 C 
ATOM     17  C3  <0> d          -4.400   2.678   1.702  0.00  0.00     0.039 C 
ENDBRANCH  12  15
ENDBRANCH   1  12
BRANCH   9  18
ATOM     18  C11 <0> d           3.494   0.872   0.010  0.00  0.00     0.058 A 
ATOM     19  C16 <0> d           4.186   1.935   0.576  0.00  0.00     0.031 A 
ATOM     20  C15 <0> d           5.566   1.959   0.534  0.00  0.00     0.002 A 
ATOM     21  C14 <0> d           6.259   0.927  -0.072  0.00  0.00     0.000 A 
ATOM     22  C13 <0> d           5.573  -0.133  -0.636  0.00  0.00     0.002 A 
ATOM     23  C12 <0> d           4.193  -0.166  -0.592  0.00  0.00     0.031 A 
ENDBRANCH   9  18
TORSDOF 3
