REMARK  4 active torsions:
REMARK  status: ('A' for Active; 'I' for Inactive)
REMARK    1  A    between atoms: C2_2  and  C3_3 
REMARK    2  A    between atoms: C2_2  and  N1_5 
REMARK    3  A    between atoms: C3_3  and  O1_4 
REMARK       I    between atoms: N1_5  and  C4_6 
REMARK    4  A    between atoms: C4_6  and  C5_8 
ROOT
ATOM      1  N1  <0> d           0.711  -0.489   1.189  0.00  0.00    -0.351 N 
ATOM      2  C4  <0> d           0.051  -0.633   2.355  0.00  0.00     0.253 C 
ATOM      3  O2  <0> d          -1.131  -0.361   2.423  0.00  0.00    -0.268 OA
ATOM      4  H8  <0> d           1.654  -0.707   1.135  0.00  0.00     0.163 HD
ENDROOT
BRANCH   2   5
ATOM      5  C5  <0> d           0.766  -1.123   3.553  0.00  0.00     0.050 A 
ATOM      6  C9  <0> d           2.124  -1.440   3.489  0.00  0.00     0.133 A 
ATOM      7  N2  <0> d           2.763  -1.870   4.557  0.00  0.00    -0.271 NA
ATOM      8  C8  <0> d           2.154  -2.031   5.716  0.00  0.00     0.135 A 
ATOM      9  C7  <0> d           0.807  -1.744   5.861  0.00  0.00     0.029 A 
ATOM     10  C6  <0> d           0.091  -1.283   4.769  0.00  0.00     0.039 A 
ATOM     11 Br1  <0> d          -0.046  -1.981   7.532  0.00  0.00    -0.050 Br
ENDBRANCH   2   5
BRANCH   1  12
ATOM     12  C2  <0> d           0.002  -0.004   0.002  0.00  0.00     0.104 C 
ATOM     13  C1  <0> d          -0.019   1.526   0.010  0.00  0.00     0.034 C 
BRANCH  12  14
ATOM     14  C3  <0> d           0.718  -0.497  -1.257  0.00  0.00     0.189 C 
BRANCH  14  15
ATOM     15  O1  <0> d           2.019   0.090  -1.326  0.00  0.00    -0.399 OA
ATOM     16  H7  <0> d           2.531  -0.178  -2.101  0.00  0.00     0.209 HD
ENDBRANCH  14  15
ENDBRANCH  12  14
ENDBRANCH   1  12
TORSDOF 4
