REMARK  6 active torsions:
REMARK  status: ('A' for Active; 'I' for Inactive)
REMARK    1  A    between atoms: C7_7  and  N1_8 
REMARK       I    between atoms: N1_8  and  C8_9 
REMARK    2  A    between atoms: C8_9  and  C9_11 
REMARK    3  A    between atoms: C10_12  and  C24_30 
REMARK    4  A    between atoms: C11_13  and  C16_20 
REMARK    5  A    between atoms: C12_14  and  O3_19 
REMARK       I    between atoms: C16_20  and  N2_22 
REMARK    6  A    between atoms: N2_22  and  C17_23 
ROOT
ATOM      1  C9  <0> d          -2.822   1.257   1.067  0.00  0.00     0.159 C 
ATOM      2  C10 <0> d          -3.976   2.233   0.813  0.00  0.00     0.079 C 
ATOM      3  C11 <0> d          -5.125   1.493   0.124  0.00  0.00     0.124 C 
ATOM      4  C12 <0> d          -4.671   0.994  -1.248  0.00  0.00     0.073 C 
ATOM      5  C13 <0> d          -3.543  -0.028  -1.071  0.00  0.00     0.117 C 
ATOM      6  C14 <0> d          -2.446   0.605  -0.244  0.00  0.00     0.143 C 
ATOM      7  O2  <0> d          -1.299   0.589  -0.622  0.00  0.00    -0.297 OA
ATOM      8  C15 <0> d          -5.850   0.333  -1.966  0.00  0.00     0.047 C 
ENDROOT
BRANCH   1   9
ATOM      9  C8  <0> d          -1.637   2.008   1.618  0.00  0.00     0.234 C 
ATOM     10  N1  <0> d          -0.495   1.351   1.900  0.00  0.00    -0.326 N 
ATOM     11  H11 <0> d          -0.405   0.279   1.667  0.00  0.00     0.169 HD
ATOM     12  O1  <0> d          -1.711   3.204   1.807  0.00  0.00    -0.272 OA
BRANCH  10  13
ATOM     13  C7  <0> d           0.577   2.031   2.488  0.00  0.00     0.040 A 
ATOM     14  C2  <0> d           1.431   1.365   3.357  0.00  0.00    -0.035 A 
ATOM     15  C1  <0> d           1.205  -0.092   3.667  0.00  0.00     0.050 C 
ATOM     16  C3  <0> d           2.488   2.040   3.936  0.00  0.00     0.009 A 
ATOM     17  C4  <0> d           2.696   3.377   3.652  0.00  0.00     0.001 A 
ATOM     18  C5  <0> d           1.847   4.043   2.788  0.00  0.00     0.002 A 
ATOM     19  C6  <0> d           0.792   3.373   2.200  0.00  0.00     0.030 A 
ENDBRANCH  10  13
ENDBRANCH   1   9
BRANCH   2  20
ATOM     20  C24 <0> d          -4.457   2.796   2.125  0.00  0.00     0.059 A 
ATOM     21  O5  <0> d          -4.950   2.085   3.152  0.00  0.00    -0.327 OA
ATOM     22  C27 <0> d          -5.276   2.916   4.156  0.00  0.00     0.142 A 
ATOM     23  C26 <0> d          -4.992   4.174   3.776  0.00  0.00     0.027 A 
ATOM     24  C25 <0> d          -4.459   4.097   2.469  0.00  0.00     0.035 A 
ENDBRANCH   2  20
BRANCH   3  25
ATOM     25  C16 <0> d          -6.293   2.430  -0.044  0.00  0.00     0.230 C 
ATOM     26  O4  <0> d          -6.163   3.611   0.199  0.00  0.00    -0.273 OA
ATOM     27  N2  <0> d          -7.482   1.955  -0.465  0.00  0.00    -0.326 N 
ATOM     28  H18 <0> d          -7.625   0.874  -0.604  0.00  0.00     0.169 HD
BRANCH  27  29
ATOM     29  C17 <0> d          -8.535   2.839  -0.725  0.00  0.00     0.040 A 
ATOM     30  C22 <0> d          -9.844   2.375  -0.742  0.00  0.00    -0.035 A 
ATOM     31  C21 <0> d         -10.882   3.251  -0.994  0.00  0.00     0.009 A 
ATOM     32  C23 <0> d         -10.132   0.919  -0.481  0.00  0.00     0.050 C 
ATOM     33  C20 <0> d         -10.618   4.586  -1.240  0.00  0.00     0.001 A 
ATOM     34  C19 <0> d          -9.315   5.050  -1.229  0.00  0.00     0.002 A 
ATOM     35  C18 <0> d          -8.273   4.180  -0.973  0.00  0.00     0.030 A 
ENDBRANCH  27  29
ENDBRANCH   3  25
BRANCH   4  36
ATOM     36  O3  <0> d          -4.197   2.096  -2.024  0.00  0.00    -0.389 OA
ATOM     37  H17 <0> d          -3.827   1.931  -3.046  0.00  0.00     0.210 HD
ENDBRANCH   4  36
TORSDOF 6
