REMARK  8 active torsions:
REMARK  status: ('A' for Active; 'I' for Inactive)
REMARK    1  A    between atoms: O1_2  and  C2_3 
REMARK    2  A    between atoms: C2_3  and  C3_5 
REMARK    3  A    between atoms: N1_7  and  C5_10 
REMARK    4  A    between atoms: C7_12  and  C15_21 
REMARK    5  A    between atoms: N4_13  and  C9_15 
REMARK       I    between atoms: C15_21  and  N5_23 
REMARK    6  A    between atoms: N5_23  and  C16_24 
REMARK    7  A    between atoms: C16_24  and  C17_25 
REMARK    8  A    between atoms: C17_25  and  C18_26 
ROOT
ATOM      1  C5  <0> d          -2.916  -5.268  -0.007  0.00  0.00     0.132 C 
ATOM      2  C6  <0> d          -2.618  -6.222   1.179  0.00  0.00     0.072 C 
ATOM      3  C7  <0> d          -3.131  -7.585   0.667  0.00  0.00     0.281 C 
ATOM      4  N4  <0> d          -3.151  -7.518  -0.806  0.00  0.00    -0.052 N 
ATOM      5  C8  <0> d          -2.654  -6.189  -1.224  0.00  0.00     0.263 C 
ATOM      6  H36 <0> d          -4.095  -7.647  -1.139  0.00  0.00     0.281 HD
ENDROOT
BRANCH   3   7
ATOM      7  C15 <0> d          -4.520  -7.840   1.191  0.00  0.00     0.248 C 
ATOM      8  O3  <0> d          -5.446  -7.969   0.418  0.00  0.00    -0.271 OA
ATOM      9  N5  <0> d          -4.735  -7.924   2.519  0.00  0.00    -0.359 N 
ATOM     10  H24 <0> d          -3.994  -7.821   3.137  0.00  0.00     0.162 HD
BRANCH   9  11
ATOM     11  C16 <0> d          -6.085  -8.172   3.028  0.00  0.00     0.127 C 
BRANCH  11  12
ATOM     12  C17 <0> d          -6.053  -8.222   4.557  0.00  0.00     0.056 C 
BRANCH  12  13
ATOM     13  C18 <0> d          -7.442  -8.477   5.081  0.00  0.00    -0.048 A 
ATOM     14  C25 <0> d          -8.519  -7.448   5.342  0.00  0.00     0.155 A 
ATOM     15  N6  <0> d          -9.679  -8.196   5.840  0.00  0.00    -0.385 N 
ATOM     16  C24 <0> d          -9.367  -9.469   5.887  0.00  0.00     0.038 A 
ATOM     17  H35 <0> d         -10.533  -7.813   6.095  0.00  0.00     0.160 HD
ATOM     18  C19 <0> d          -7.977  -9.673   5.419  0.00  0.00    -0.006 A 
ATOM     19  C23 <0> d         -10.111 -10.612   6.291  0.00  0.00     0.030 A 
ATOM     20  C20 <0> d          -7.446 -11.041   5.399  0.00  0.00     0.014 A 
ATOM     21  C21 <0> d          -8.239 -12.059   5.806  0.00  0.00     0.001 A 
ATOM     22  C22 <0> d          -9.552 -11.840   6.244  0.00  0.00     0.002 A 
ENDBRANCH  12  13
ENDBRANCH  11  12
ENDBRANCH   9  11
ENDBRANCH   3   7
BRANCH   4  23
ATOM     23  C9  <0> d          -2.285  -8.567  -1.361  0.00  0.00     0.189 C 
ATOM     24  C14 <0> d          -2.791  -9.938  -0.908  0.00  0.00     0.033 C 
ATOM     25  C13 <0> d          -1.889 -11.030  -1.486  0.00  0.00     0.002 C 
ATOM     26  C12 <0> d          -1.913 -10.957  -3.014  0.00  0.00     0.000 C 
ATOM     27  C11 <0> d          -1.407  -9.586  -3.466  0.00  0.00     0.002 C 
ATOM     28  C10 <0> d          -2.309  -8.493  -2.889  0.00  0.00     0.033 C 
ENDBRANCH   4  23
BRANCH   1  29
ATOM     29  N1  <0> d          -1.998  -4.126  -0.005  0.00  0.00    -0.297 N 
ATOM     30  C4  <0> d          -2.367  -2.805   0.004  0.00  0.00     0.143 A 
ATOM     31  C3  <0> d          -1.247  -2.048   0.003  0.00  0.00     0.137 A 
ATOM     32  N3  <0> d          -0.141  -2.927  -0.013  0.00  0.00    -0.297 N 
ATOM     33  N2  <0> d          -0.636  -4.202  -0.012  0.00  0.00    -0.146 NA
ATOM     34  H8  <0> d           0.795  -2.674  -0.021  0.00  0.00     0.183 HD
ATOM     35  H7  <0> d          -0.306  -4.714  -0.817  0.00  0.00     0.173 HD
BRANCH  31  36
ATOM     36  C2  <0> d          -1.192  -0.633   0.010  0.00  0.00     0.312 C 
ATOM     37  O2  <0> d          -2.222   0.016   0.023  0.00  0.00    -0.258 OA
BRANCH  36  38
ATOM     38  O1  <0> d           0.002  -0.004   0.002  0.00  0.00    -0.321 OA
ATOM     39  C1  <0> d          -0.017   1.425   0.010  0.00  0.00     0.213 C 
ENDBRANCH  36  38
ENDBRANCH  31  36
ENDBRANCH   1  29
TORSDOF 8
