REMARK  7 active torsions:
REMARK  status: ('A' for Active; 'I' for Inactive)
REMARK    1  A    between atoms: C2_2  and  C3_3 
REMARK    2  A    between atoms: C3_3  and  C4_4 
REMARK    3  A    between atoms: C5_6  and  C7_9 
REMARK    4  A    between atoms: C7_9  and  N2_10 
REMARK    5  A    between atoms: N2_10  and  C8_11 
REMARK    6  A    between atoms: N2_10  and  C10_15 
REMARK    7  A    between atoms: C8_11  and  C9_12 
ROOT
ATOM      1  N2  <0> d           0.003  -5.369   2.375  0.00  0.00    -0.051 N 
ATOM      2  H20 <0> d           0.536  -4.560   2.660  0.00  0.00     0.281 HD
ENDROOT
BRANCH   1   3
ATOM      3  C7  <0> d          -1.283  -4.934   1.813  0.00  0.00     0.295 C 
BRANCH   3   4
ATOM      4  C5  <0> d          -1.037  -3.934   0.713  0.00  0.00     0.068 A 
ATOM      5  N1  <0> d          -0.861  -2.654   0.973  0.00  0.00    -0.248 NA
ATOM      6  C4  <0> d          -0.647  -1.787   0.015  0.00  0.00     0.075 A 
ATOM      7  S1  <0> d          -0.686  -2.734  -1.376  0.00  0.00    -0.085 SA
ATOM      8  C6  <0> d          -0.987  -4.310  -0.591  0.00  0.00     0.080 A 
BRANCH   6   9
ATOM      9  C3  <0> d          -0.427  -0.300   0.129  0.00  0.00     0.067 C 
BRANCH   9  10
ATOM     10  C2  <0> d           1.069  -0.016   0.278  0.00  0.00     0.002 C 
ATOM     11  C1  <0> d           1.292   1.493   0.394  0.00  0.00     0.005 C 
ENDBRANCH   9  10
ENDBRANCH   6   9
ENDBRANCH   3   4
ENDBRANCH   1   3
BRANCH   1  12
ATOM     12  C8  <0> d           0.754  -6.117   1.359  0.00  0.00     0.348 C 
BRANCH  12  13
ATOM     13  C9  <0> d          -0.015  -7.355   0.976  0.00  0.00     0.199 C 
ATOM     14  O1  <0> d          -1.113  -7.565   1.462  0.00  0.00    -0.647 OA
ATOM     15  O2  <0> d           0.462  -8.147   0.181  0.00  0.00    -0.647 OA
ENDBRANCH  12  13
ENDBRANCH   1  12
BRANCH   1  16
ATOM     16  C10 <0> d          -0.238  -6.231   3.540  0.00  0.00     0.204 C 
ATOM     17  C13 <0> d          -0.919  -5.405   4.658  0.00  0.00     0.173 C 
ATOM     18  S2  <0> d          -0.280  -6.195   6.190  0.00  0.00     0.146 S 
ATOM     19  C12 <0> d           0.860  -7.434   5.442  0.00  0.00     0.142 C 
ATOM     20  O3  <0> d           0.484  -5.242   6.916  0.00  0.00    -0.228 OA
ATOM     21  O4  <0> d          -1.344  -6.878   6.839  0.00  0.00    -0.228 OA
ATOM     22  C11 <0> d           1.101  -6.792   4.046  0.00  0.00     0.049 C 
ENDBRANCH   1  16
TORSDOF 7
