REMARK  5 active torsions:
REMARK  status: ('A' for Active; 'I' for Inactive)
REMARK    1  A    between atoms: C7_7  and  C8_8 
REMARK    2  A    between atoms: C8_8  and  O2_10 
REMARK    3  A    between atoms: O2_10  and  C9_11 
REMARK    4  A    between atoms: C14_16  and  C15_17 
REMARK    5  A    between atoms: N1_18  and  N2_19 
REMARK       I    between atoms: N2_19  and  C16_20 
REMARK       I    between atoms: C16_20  and  N3_22 
ROOT
ATOM      1  C9  <0> d           0.834   4.066  -0.716  0.00  0.00     0.091 A 
ATOM      2  C10 <0> d           1.877   4.955  -0.915  0.00  0.00     0.039 A 
ATOM      3  C11 <0> d           3.165   4.484  -1.090  0.00  0.00     0.022 A 
ATOM      4  C12 <0> d           3.423   3.123  -1.063  0.00  0.00     0.011 A 
ATOM      5  C13 <0> d           2.395   2.224  -0.860  0.00  0.00     0.034 A 
ATOM      6  C14 <0> d           1.090   2.688  -0.682  0.00  0.00     0.018 A 
ATOM      7 Br1  <0> d           5.190   2.494  -1.304  0.00  0.00    -0.051 Br
ENDROOT
BRANCH   1   8
ATOM      8  O2  <0> d          -0.433   4.528  -0.550  0.00  0.00    -0.274 OA
BRANCH   8   9
ATOM      9  C8  <0> d          -0.831   4.780   0.712  0.00  0.00     0.299 C 
ATOM     10  O1  <0> d          -0.108   4.496   1.645  0.00  0.00    -0.259 OA
BRANCH   9  11
ATOM     11  C7  <0> d          -2.147   5.404   0.960  0.00  0.00     0.045 A 
ATOM     12  C2  <0> d          -2.795   5.212   2.182  0.00  0.00    -0.046 A 
ATOM     13  C1  <0> d          -2.152   4.368   3.253  0.00  0.00     0.049 C 
ATOM     14  C3  <0> d          -4.023   5.797   2.407  0.00  0.00     0.008 A 
ATOM     15  C4  <0> d          -4.614   6.573   1.426  0.00  0.00     0.001 A 
ATOM     16  C5  <0> d          -3.978   6.767   0.212  0.00  0.00     0.001 A 
ATOM     17  C6  <0> d          -2.747   6.192  -0.025  0.00  0.00     0.018 A 
ENDBRANCH   9  11
ENDBRANCH   8   9
ENDBRANCH   1   8
BRANCH   6  18
ATOM     18  C15 <0> d          -0.012   1.734  -0.465  0.00  0.00     0.153 C 
ATOM     19  N1  <0> d          -1.210   2.171  -0.224  0.00  0.00    -0.182 NA
BRANCH  19  20
ATOM     20  N2  <0> d          -2.236   1.268   0.087  0.00  0.00    -0.229 N 
ATOM     21  C16 <0> d          -3.502   1.708   0.222  0.00  0.00     0.334 C 
ATOM     22  O3  <0> d          -4.374   0.946   0.592  0.00  0.00    -0.246 OA
ATOM     23  N3  <0> d          -3.803   2.993  -0.053  0.00  0.00    -0.351 N 
ATOM     24  H13 <0> d          -3.125   3.582  -0.419  0.00  0.00     0.160 HD
ATOM     25  H14 <0> d          -4.697   3.329   0.116  0.00  0.00     0.160 HD
ATOM     26  H12 <0> d          -2.034   0.327   0.205  0.00  0.00     0.194 HD
ENDBRANCH  19  20
ENDBRANCH   6  18
TORSDOF 5
