REMARK  6 active torsions:
REMARK  status: ('A' for Active; 'I' for Inactive)
REMARK    1  A    between atoms: C5_5  and  C6_7 
REMARK    2  A    between atoms: C6_7  and  C7_8 
REMARK    3  A    between atoms: C6_7  and  S1_11 
REMARK    4  A    between atoms: C7_8  and  N1_10 
REMARK    5  A    between atoms: S1_11  and  C9_12 
REMARK    6  A    between atoms: N5_16  and  C10_17 
ROOT
ATOM      1  C6  <0> d           1.614  -3.282  -0.055  0.00  0.00     0.142 C 
ENDROOT
BRANCH   1   2
ATOM      2  C5  <0> d           0.609  -2.171   0.109  0.00  0.00     0.069 A 
ATOM      3  C4  <0> d          -0.720  -2.327   0.250  0.00  0.00     0.036 A 
ATOM      4  C3  <0> d          -1.274  -1.032   0.372  0.00  0.00     0.035 A 
ATOM      5  C2  <0> d          -0.250  -0.162   0.298  0.00  0.00     0.049 A 
ATOM      6  C1  <0> d          -0.361   1.339   0.381  0.00  0.00     0.076 C 
ATOM      7  O1  <0> d           0.887  -0.857   0.133  0.00  0.00    -0.319 OA
ENDBRANCH   1   2
BRANCH   1   8
ATOM      8  C7  <0> d           2.346  -3.114  -1.387  0.00  0.00     0.200 C 
ATOM      9  C8  <0> d           3.297  -4.295  -1.598  0.00  0.00     0.041 C 
BRANCH   8  10
ATOM     10  N1  <0> d           1.368  -3.072  -2.482  0.00  0.00    -0.074 N 
ATOM     11  H11 <0> d           0.741  -2.293  -2.343  0.00  0.00     0.274 HD
ATOM     12  H12 <0> d           1.851  -2.961  -3.361  0.00  0.00     0.274 HD
ATOM     13  H22 <0> d           0.840  -3.931  -2.495  0.00  0.00     0.274 HD
ENDBRANCH   8  10
ENDBRANCH   1   8
BRANCH   1  14
ATOM     14  S1  <0> d           2.811  -3.218   1.306  0.00  0.00    -0.075 SA
BRANCH  14  15
ATOM     15  C9  <0> d           1.869  -3.668   2.725  0.00  0.00     0.210 A 
ATOM     16  N5  <0> d           2.339  -3.835   3.984  0.00  0.00    -0.220 N 
ATOM     17  N4  <0> d           1.216  -4.185   4.754  0.00  0.00    -0.043 NA
ATOM     18  N3  <0> d           0.207  -4.212   3.952  0.00  0.00    -0.022 NA
ATOM     19  N2  <0> d           0.576  -3.911   2.760  0.00  0.00    -0.102 NA
BRANCH  16  20
ATOM     20  C10 <0> d           3.721  -3.681   4.444  0.00  0.00     0.114 C 
ATOM     21  C14 <0> d           3.798  -2.586   5.523  0.00  0.00     0.027 C 
ATOM     22  C13 <0> d           4.327  -3.265   6.803  0.00  0.00     0.002 C 
ATOM     23  C12 <0> d           5.090  -4.510   6.286  0.00  0.00     0.002 C 
ATOM     24  C11 <0> d           4.205  -4.987   5.107  0.00  0.00     0.027 C 
ENDBRANCH  16  20
ENDBRANCH  14  15
ENDBRANCH   1  14
TORSDOF 6
