REMARK  1 active torsions:
REMARK  status: ('A' for Active; 'I' for Inactive)
REMARK    1  A    between atoms: C7_13  and  C8_14 
ROOT
ATOM      1  C1  <0> d          -0.018   1.503   0.010  0.00  0.00     0.073 C 
ATOM      2  C2  <0> d           0.002  -0.004   0.002  0.00  0.00     0.062 A 
ATOM      3  C3  <0> d           0.008  -0.820  -1.149  0.00  0.00     0.032 A 
ATOM      4  C4  <0> d           0.026  -2.108  -0.741  0.00  0.00     0.134 A 
ATOM      5  N1  <0> d           0.034  -2.096   0.628  0.00  0.00    -0.262 N 
ATOM      6  H1  <0> d           0.049  -2.878   1.203  0.00  0.00     0.191 HD
ATOM      7  N2  <0> d           0.023  -0.769   1.056  0.00  0.00    -0.178 NA
ATOM      8  N3  <0> d           0.033  -3.292  -1.440  0.00  0.00    -0.311 N 
ATOM      9  C5  <0> d           0.075  -3.614  -2.697  0.00  0.00     0.232 C 
ATOM     10  O1  <0> d           0.171  -4.803  -2.916  0.00  0.00    -0.272 OA
ATOM     11  C6  <0> d           0.024  -2.763  -3.905  0.00  0.00     0.178 C 
ATOM     12  S1  <0> d           0.927  -1.220  -3.714  0.00  0.00    -0.145 SA
ATOM     13  C7  <0> d          -0.004  -0.244  -2.530  0.00  0.00     0.119 C 
ATOM     14  H6  <0> d          -0.002  -4.067  -0.858  0.00  0.00     0.170 HD
ENDROOT
BRANCH  13  15
ATOM     15  C8  <0> d           0.583   1.144  -2.480  0.00  0.00    -0.033 A 
ATOM     16  C11 <0> d           1.853   1.339  -2.048  0.00  0.00     0.058 A 
ATOM     17  S2  <0> d           2.024   3.110  -2.193  0.00  0.00    -0.113 SA
ATOM     18  C10 <0> d           0.389   3.471  -2.810  0.00  0.00     0.050 A 
ATOM     19  C9  <0> d          -0.169   2.237  -2.867  0.00  0.00     0.016 A 
ENDBRANCH  13  15
TORSDOF 1
