REMARK  0 active torsions:
REMARK  status: ('A' for Active; 'I' for Inactive)
ROOT
ATOM      1  C1  <0> d          -0.022   1.318   0.592  0.00  0.00     0.034 A 
ATOM      2  C2  <0> d           1.167   1.995   0.783  0.00  0.00     0.013 A 
ATOM      3  C3  <0> d           2.374   1.329   0.655  0.00  0.00     0.040 A 
ATOM      4  C4  <0> d           2.406  -0.015   0.335  0.00  0.00     0.040 A 
ATOM      5  C5  <0> d           1.220  -0.714   0.139  0.00  0.00     0.064 A 
ATOM      6  C6  <0> d          -0.000  -0.036   0.270  0.00  0.00     0.011 A 
ATOM      7  C7  <0> d          -1.061  -1.031   0.006  0.00  0.00     0.067 A 
ATOM      8  C8  <0> d          -2.428  -0.826   0.019  0.00  0.00     0.093 A 
ATOM      9  C9  <0> d          -3.190   0.447   0.127  0.00  0.00     0.265 A 
ATOM     10  O1  <0> d          -2.629   1.520   0.222  0.00  0.00    -0.267 OA
ATOM     11  N1  <0> d          -4.509   0.351   0.114  0.00  0.00    -0.301 N 
ATOM     12  C10 <0> d          -5.125  -0.879   0.005  0.00  0.00     0.167 A 
ATOM     13  N2  <0> d          -6.400  -1.145  -0.023  0.00  0.00    -0.278 NA
ATOM     14  S1  <0> d          -3.754  -2.018  -0.096  0.00  0.00    -0.046 SA
ATOM     15  C11 <0> d          -0.344  -2.290  -0.276  0.00  0.00     0.258 A 
ATOM     16  O2  <0> d          -0.857  -3.361  -0.545  0.00  0.00    -0.267 OA
ATOM     17  N3  <0> d           0.974  -2.045  -0.184  0.00  0.00    -0.321 N 
ATOM     18 Br1  <0> d           4.066  -0.906   0.165  0.00  0.00    -0.049 Br
ATOM     19 Br2  <0> d           1.145   3.835   1.219  0.00  0.00    -0.051 Br
ATOM     20  H3  <0> d          -5.049   1.154   0.181  0.00  0.00     0.171 HD
ATOM     21  H4  <0> d          -6.702  -2.063  -0.103  0.00  0.00     0.189 HD
ATOM     22  H5  <0> d           1.665  -2.710  -0.326  0.00  0.00     0.169 HD
ENDROOT
TORSDOF 0
