REMARK  5 active torsions:
REMARK  status: ('A' for Active; 'I' for Inactive)
REMARK    1  A    between atoms: C2_2  and  C3_3 
REMARK    2  A    between atoms: C2_2  and  N2_13 
REMARK    3  A    between atoms: C3_3  and  C4_4 
REMARK       I    between atoms: N2_13  and  C12_14 
REMARK    4  A    between atoms: C12_14  and  C13_16 
REMARK    5  A    between atoms: C14_18  and  C15_21 
ROOT
ATOM      1  N2  <0> d          -1.372  -0.511   0.012  0.00  0.00    -0.353 N 
ATOM      2  C12 <0> d          -2.051  -0.643  -1.145  0.00  0.00     0.279 C 
ATOM      3  O1  <0> d          -1.524  -0.341  -2.194  0.00  0.00    -0.268 OA
ATOM      4  H15 <0> d          -1.794  -0.752   0.852  0.00  0.00     0.163 HD
ENDROOT
BRANCH   1   5
ATOM      5  C2  <0> d           0.002  -0.004   0.002  0.00  0.00     0.084 C 
ATOM      6  C1  <0> d          -0.019   1.526   0.010  0.00  0.00     0.032 C 
BRANCH   5   7
ATOM      7  C3  <0> d           0.742  -0.511   1.242  0.00  0.00     0.061 C 
BRANCH   7   8
ATOM      8  C4  <0> d           0.870  -2.011   1.172  0.00  0.00    -0.048 A 
ATOM      9  C11 <0> d          -0.153  -3.032   1.617  0.00  0.00     0.155 A 
ATOM     10  N1  <0> d           0.442  -4.344   1.339  0.00  0.00    -0.385 N 
ATOM     11  C10 <0> d           1.632  -4.163   0.820  0.00  0.00     0.038 A 
ATOM     12  H23 <0> d           0.025  -5.203   1.513  0.00  0.00     0.160 HD
ATOM     13  C5  <0> d           1.925  -2.716   0.704  0.00  0.00    -0.006 A 
ATOM     14  C9  <0> d           2.622  -5.082   0.377  0.00  0.00     0.030 A 
ATOM     15  C6  <0> d           3.219  -2.313   0.141  0.00  0.00     0.014 A 
ATOM     16  C7  <0> d           4.091  -3.271  -0.250  0.00  0.00     0.001 A 
ATOM     17  C8  <0> d           3.790  -4.635  -0.131  0.00  0.00     0.002 A 
ENDBRANCH   7   8
ENDBRANCH   5   7
ENDBRANCH   1   5
BRANCH   2  18
ATOM     18  C13 <0> d          -3.465  -1.164  -1.134  0.00  0.00     0.471 C 
ATOM     19  O2  <0> d          -4.241  -0.493  -0.116  0.00  0.00    -0.258 OA
ATOM     20  N4  <0> d          -5.339  -1.447   0.162  0.00  0.00    -0.166 NA
ATOM     21  C14 <0> d          -4.692  -2.779   0.087  0.00  0.00     0.354 C 
ATOM     22  H17 <0> d          -6.073  -1.363  -0.525  0.00  0.00     0.156 HD
ATOM     23  N3  <0> d          -3.484  -2.593  -0.746  0.00  0.00     0.148 N 
ATOM     24  H16 <0> d          -3.511  -3.189  -1.559  0.00  0.00     0.322 HD
BRANCH  21  25
ATOM     25  C15 <0> d          -5.621  -3.774  -0.559  0.00  0.00    -0.009 A 
ATOM     26  C20 <0> d          -6.986  -3.673  -0.364  0.00  0.00     0.011 A 
ATOM     27  C19 <0> d          -7.838  -4.584  -0.961  0.00  0.00     0.001 A 
ATOM     28  C18 <0> d          -7.325  -5.601  -1.744  0.00  0.00     0.000 A 
ATOM     29  C17 <0> d          -5.960  -5.705  -1.934  0.00  0.00     0.001 A 
ATOM     30  C16 <0> d          -5.108  -4.792  -1.341  0.00  0.00     0.011 A 
ENDBRANCH  21  25
ENDBRANCH   2  18
TORSDOF 5
