REMARK  5 active torsions:
REMARK  status: ('A' for Active; 'I' for Inactive)
REMARK    1  A    between atoms: N1_2  and  C3_4 
REMARK    2  A    between atoms: C5_6  and  C8_10 
REMARK    3  A    between atoms: C8_10  and  N3_11 
REMARK       I    between atoms: N3_11  and  C9_12 
REMARK       I    between atoms: C9_12  and  N4_14 
REMARK    4  A    between atoms: N4_14  and  C10_15 
REMARK    5  A    between atoms: C11_18  and  C12_20 
ROOT
ATOM      1  N3  <0> d          -1.351  -4.764  -2.463  0.00  0.00    -0.339 N 
ATOM      2  C9  <0> d          -1.585  -6.091  -2.499  0.00  0.00     0.322 C 
ATOM      3  O1  <0> d          -0.653  -6.872  -2.529  0.00  0.00    -0.247 OA
ATOM      4  N4  <0> d          -2.851  -6.552  -2.503  0.00  0.00    -0.286 N 
ATOM      5  H12 <0> d          -2.094  -4.141  -2.439  0.00  0.00     0.164 HD
ATOM      6  H13 <0> d          -3.594  -5.930  -2.479  0.00  0.00     0.172 HD
ENDROOT
BRANCH   1   7
ATOM      7  C8  <0> d           0.025  -4.262  -2.458  0.00  0.00     0.163 C 
BRANCH   7   8
ATOM      8  C5  <0> d           0.011  -2.756  -2.415  0.00  0.00    -0.035 A 
ATOM      9  C4  <0> d           0.013  -2.084  -1.206  0.00  0.00     0.057 A 
ATOM     10  C3  <0> d           0.000  -0.693  -1.206  0.00  0.00     0.102 A 
ATOM     11  N2  <0> d          -0.020  -0.019  -2.345  0.00  0.00    -0.352 N 
ATOM     12  C7  <0> d          -0.017  -0.633  -3.513  0.00  0.00     0.090 A 
ATOM     13  H19 <0> d          -0.033   0.951  -2.321  0.00  0.00     0.166 HD
ATOM     14  C6  <0> d          -0.004  -2.012  -3.587  0.00  0.00     0.026 A 
BRANCH  10  15
ATOM     15  N1  <0> d           0.002  -0.004   0.002  0.00  0.00    -0.376 N 
ATOM     16  C1  <0> d          -0.018   1.461   0.010  0.00  0.00     0.150 C 
ATOM     17  C2  <0> d           0.024  -0.743   1.267  0.00  0.00     0.150 C 
ENDBRANCH  10  15
ENDBRANCH   7   8
ENDBRANCH   1   7
BRANCH   4  18
ATOM     18  C10 <0> d          -3.092  -7.922  -2.541  0.00  0.00     0.197 A 
ATOM     19  S1  <0> d          -4.564  -8.742  -2.554  0.00  0.00    -0.033 SA
ATOM     20  C11 <0> d          -3.891 -10.397  -2.608  0.00  0.00     0.105 A 
ATOM     21  N6  <0> d          -2.601 -10.124  -2.603  0.00  0.00    -0.144 NA
ATOM     22  N5  <0> d          -2.228  -8.917  -2.571  0.00  0.00    -0.123 NA
BRANCH  20  23
ATOM     23  C12 <0> d          -4.597 -11.727  -2.643  0.00  0.00     0.047 A 
ATOM     24  C14 <0> d          -4.332 -12.636  -3.845  0.00  0.00     0.012 A 
ATOM     25  C13 <0> d          -3.743 -12.986  -2.477  0.00  0.00     0.012 A 
ENDBRANCH  20  23
ENDBRANCH   4  18
TORSDOF 5
