REMARK  3 active torsions:
REMARK  status: ('A' for Active; 'I' for Inactive)
REMARK    1  A    between atoms: C5_5  and  C8_8 
REMARK       I    between atoms: C8_8  and  N1_10 
REMARK    2  A    between atoms: N1_10  and  C9_11 
REMARK    3  A    between atoms: C9_11  and  C10_12 
REMARK       I    between atoms: C10_12  and  N2_14 
ROOT
ATOM      1  C10 <0> d           0.107  -6.906   2.552  0.00  0.00     0.237 C 
ATOM      2  O2  <0> d           0.101  -6.123   3.478  0.00  0.00    -0.272 OA
ATOM      3  N2  <0> d           0.126  -8.233   2.791  0.00  0.00    -0.351 N 
ATOM      4  C11 <0> d           0.139  -9.193   1.679  0.00  0.00     0.129 C 
ATOM      5  C12 <0> d          -1.016 -10.182   1.869  0.00  0.00     0.068 C 
ATOM      6  C13 <0> d          -0.915 -10.820   3.255  0.00  0.00     0.204 C 
ATOM      7  C14 <0> d          -1.021  -9.739   4.331  0.00  0.00     0.068 C 
ATOM      8  C15 <0> d           0.139  -8.745   4.168  0.00  0.00     0.129 C 
ATOM      9  C16 <0> d          -2.020 -11.826   3.433  0.00  0.00     0.072 A 
ATOM     10  C17 <0> d          -1.835 -13.164   3.353  0.00  0.00     0.037 A 
ATOM     11  N3  <0> d          -3.011 -13.756   3.560  0.00  0.00    -0.354 N 
ATOM     12  C18 <0> d          -3.922 -12.839   3.765  0.00  0.00     0.181 A 
ATOM     13  N4  <0> d          -3.338 -11.620   3.692  0.00  0.00    -0.352 N 
ATOM     14  H1  <0> d          -3.777 -10.763   3.803  0.00  0.00     0.166 HD
ATOM     15  C19 <0> d          -0.493 -13.793   3.070  0.00  0.00     0.089 C 
ATOM     16  C20 <0> d           0.433 -12.702   2.516  0.00  0.00     0.277 C 
ATOM     17  N5  <0> d           0.375 -11.516   3.382  0.00  0.00     0.099 N 
ATOM     18  H25 <0> d           1.144 -10.891   3.191  0.00  0.00     0.317 HD
ATOM     19  H26 <0> d          -3.167 -14.714   3.559  0.00  0.00     0.166 HD
ENDROOT
BRANCH   1  20
ATOM     20  C9  <0> d           0.093  -6.396   1.134  0.00  0.00     0.225 C 
BRANCH  20  21
ATOM     21  N1  <0> d           0.074  -4.931   1.142  0.00  0.00    -0.348 N 
ATOM     22  C8  <0> d           0.059  -4.251  -0.021  0.00  0.00     0.252 C 
ATOM     23  O1  <0> d           0.062  -4.853  -1.077  0.00  0.00    -0.268 OA
ATOM     24  H9  <0> d           0.072  -4.451   1.985  0.00  0.00     0.163 HD
BRANCH  22  25
ATOM     25  C5  <0> d           0.040  -2.773  -0.013  0.00  0.00     0.032 A 
ATOM     26  C4  <0> d           0.024  -2.066  -1.216  0.00  0.00     0.017 A 
ATOM     27  C3  <0> d           0.006  -0.686  -1.202  0.00  0.00     0.007 A 
ATOM     28  C2  <0> d           0.002  -0.004   0.002  0.00  0.00    -0.062 A 
ATOM     29  C1  <0> d          -0.018   1.503   0.010  0.00  0.00     0.048 C 
ATOM     30  C7  <0> d           0.023  -0.699   1.198  0.00  0.00     0.007 A 
ATOM     31  C6  <0> d           0.036  -2.079   1.198  0.00  0.00     0.017 A 
ENDBRANCH  22  25
ENDBRANCH  20  21
ENDBRANCH   1  20
TORSDOF 3
