REMARK  3 active torsions:
REMARK  status: ('A' for Active; 'I' for Inactive)
REMARK    1  A    between atoms: N1_5  and  C5_7 
REMARK    2  A    between atoms: C5_7  and  C6_8 
REMARK       I    between atoms: C6_8  and  N3_10 
REMARK    3  A    between atoms: N3_10  and  C7_11 
ROOT
ATOM      1  C7  <0> d           0.754   2.735  -2.148  0.00  0.00     0.089 C 
ATOM      2  C8  <0> d           1.805   1.899  -1.415  0.00  0.00     0.063 C 
ATOM      3  C9  <0> d           1.321   1.577  -0.002  0.00  0.00     0.121 C 
ATOM      4  C10 <0> d          -1.041   1.551  -0.852  0.00  0.00     0.121 C 
ATOM      5  C11 <0> d          -0.531   1.913  -2.245  0.00  0.00     0.063 C 
ATOM      6  C12 <0> d          -2.141   0.479  -1.025  0.00  0.00     0.046 C 
ATOM      7  C13 <0> d          -1.703   2.778  -0.214  0.00  0.00     0.046 C 
ATOM      8  C14 <0> d           1.397   2.833   0.871  0.00  0.00     0.046 C 
ATOM      9  C15 <0> d           2.295   0.539   0.598  0.00  0.00     0.046 C 
ATOM     10  N4  <0> d          -0.027   0.947   0.053  0.00  0.00    -0.059 N 
ATOM     11  H25 <0> d          -0.375   1.022   1.016  0.00  0.00     0.279 HD
ATOM     12  H26 <0> d           0.074  -0.043  -0.198  0.00  0.00     0.279 HD
ENDROOT
BRANCH   1  13
ATOM     13  N3  <0> d           1.237   3.038  -3.501  0.00  0.00    -0.355 N 
ATOM     14  C6  <0> d           0.779   4.126  -4.152  0.00  0.00     0.237 C 
ATOM     15  O1  <0> d          -0.032   4.854  -3.619  0.00  0.00    -0.272 OA
ATOM     16  H7  <0> d           1.885   2.456  -3.926  0.00  0.00     0.162 HD
BRANCH  14  17
ATOM     17  C5  <0> d           1.275   4.438  -5.540  0.00  0.00     0.253 C 
BRANCH  17  18
ATOM     18  N1  <0> d           0.631   5.661  -6.025  0.00  0.00    -0.271 N 
ATOM     19  C4  <0> d           1.263   6.766  -6.475  0.00  0.00     0.134 A 
ATOM     20  C3  <0> d           0.316   7.667  -6.831  0.00  0.00     0.054 A 
ATOM     21  C2  <0> d          -0.936   7.095  -6.581  0.00  0.00     0.069 A 
ATOM     22 Br1  <0> d           0.631   9.394  -7.533  0.00  0.00    -0.047 Br
ATOM     23  C1  <0> d          -2.271   7.750  -6.825  0.00  0.00     0.074 C 
ATOM     24  N2  <0> d          -0.749   5.893  -6.098  0.00  0.00    -0.176 NA
ENDBRANCH  17  18
ENDBRANCH  14  17
ENDBRANCH   1  13
TORSDOF 3
