REMARK  3 active torsions:
REMARK  status: ('A' for Active; 'I' for Inactive)
REMARK    1  A    between atoms: C2_2  and  C3_3 
REMARK    2  A    between atoms: C3_3  and  C4_4 
REMARK    3  A    between atoms: C3_3  and  N3_17 
ROOT
ATOM      1  C4  <0> d          -1.414  -2.036   0.129  0.00  0.00    -0.020 A 
ATOM      2  C5  <0> d          -1.479  -2.814  -1.011  0.00  0.00     0.042 A 
ATOM      3  C6  <0> d          -1.460  -4.196  -0.904  0.00  0.00     0.066 A 
ATOM      4  C7  <0> d          -1.376  -4.796   0.354  0.00  0.00     0.066 A 
ATOM      5  C8  <0> d          -1.313  -4.007   1.492  0.00  0.00     0.039 A 
ATOM      6  C9  <0> d          -1.325  -2.630   1.375  0.00  0.00    -0.051 A 
ATOM      7  C10 <0> d          -1.248  -1.772   2.612  0.00  0.00     0.049 C 
ATOM      8  N1  <0> d          -1.377  -6.173   0.145  0.00  0.00    -0.302 N 
ATOM      9  C11 <0> d          -1.458  -6.401  -1.180  0.00  0.00     0.329 A 
ATOM     10  O1  <0> d          -1.482  -7.500  -1.702  0.00  0.00    -0.246 OA
ATOM     11  N2  <0> d          -1.510  -5.228  -1.839  0.00  0.00    -0.302 N 
ATOM     12  C12 <0> d          -1.602  -5.065  -3.292  0.00  0.00     0.161 C 
ATOM     13  C13 <0> d          -1.303  -7.199   1.188  0.00  0.00     0.161 C 
ENDROOT
BRANCH   1  14
ATOM     14  C3  <0> d          -1.433  -0.534   0.013  0.00  0.00     0.216 C 
BRANCH  14  15
ATOM     15  C2  <0> d           0.002  -0.004   0.002  0.00  0.00     0.033 C 
ATOM     16  C1  <0> d          -0.019   1.526   0.010  0.00  0.00     0.007 C 
ENDBRANCH  14  15
BRANCH  14  17
ATOM     17  N3  <0> d          -2.107  -0.147  -1.234  0.00  0.00    -0.071 N 
ATOM     18  H18 <0> d          -2.120   0.859  -1.311  0.00  0.00     0.275 HD
ATOM     19  H19 <0> d          -1.610  -0.539  -2.020  0.00  0.00     0.275 HD
ATOM     20  H20 <0> d          -3.054  -0.496  -1.227  0.00  0.00     0.275 HD
ENDBRANCH  14  17
ENDBRANCH   1  14
TORSDOF 3
