REMARK  6 active torsions:
REMARK  status: ('A' for Active; 'I' for Inactive)
REMARK    1  A    between atoms: C6_6  and  N1_8 
REMARK    2  A    between atoms: C8_9  and  S1_13 
REMARK    3  A    between atoms: S1_13  and  C9_14 
REMARK    4  A    between atoms: C9_14  and  C10_15 
REMARK       I    between atoms: C10_15  and  N5_17 
REMARK    5  A    between atoms: N5_17  and  C11_18 
REMARK    6  A    between atoms: C12_19  and  C18_26 
REMARK       I    between atoms: C18_26  and  N6_28 
ROOT
ATOM      1  C10 <0> d          -6.071   3.661   2.978  0.00  0.00     0.232 C 
ATOM      2  O1  <0> d          -5.314   4.566   3.259  0.00  0.00    -0.272 OA
ATOM      3  N5  <0> d          -7.335   3.670   3.447  0.00  0.00    -0.320 N 
ATOM      4  H10 <0> d          -7.940   2.946   3.223  0.00  0.00     0.169 HD
ENDROOT
BRANCH   1   5
ATOM      5  C9  <0> d          -5.600   2.528   2.104  0.00  0.00     0.185 C 
BRANCH   5   6
ATOM      6  S1  <0> d          -3.872   2.803   1.639  0.00  0.00    -0.079 SA
BRANCH   6   7
ATOM      7  C8  <0> d          -3.590   1.372   0.651  0.00  0.00     0.214 A 
ATOM      8  N1  <0> d          -2.430   1.039   0.019  0.00  0.00    -0.188 N 
ATOM      9  N4  <0> d          -2.701  -0.180  -0.627  0.00  0.00    -0.038 NA
ATOM     10  N3  <0> d          -3.927  -0.478  -0.363  0.00  0.00    -0.022 NA
ATOM     11  N2  <0> d          -4.460   0.422   0.381  0.00  0.00    -0.101 NA
BRANCH   8  12
ATOM     12  C6  <0> d          -1.224   1.754   0.017  0.00  0.00     0.063 A 
ATOM     13  C5  <0> d          -1.239   3.142   0.030  0.00  0.00     0.032 A 
ATOM     14  C4  <0> d          -0.049   3.844   0.022  0.00  0.00     0.003 A 
ATOM     15  C3  <0> d           1.155   3.166   0.008  0.00  0.00     0.007 A 
ATOM     16  C2  <0> d           1.173   1.783   0.000  0.00  0.00    -0.060 A 
ATOM     17  C1  <0> d           2.489   1.048  -0.016  0.00  0.00     0.048 C 
ATOM     18  C7  <0> d          -0.013   1.076   0.008  0.00  0.00     0.038 A 
ENDBRANCH   8  12
ENDBRANCH   6   7
ENDBRANCH   5   6
ENDBRANCH   1   5
BRANCH   3  19
ATOM     19  C11 <0> d          -7.769   4.713   4.252  0.00  0.00     0.093 A 
ATOM     20  S2  <0> d          -6.883   6.101   4.784  0.00  0.00    -0.075 SA
ATOM     21  C14 <0> d          -8.146   6.901   5.743  0.00  0.00    -0.008 A 
ATOM     22  C13 <0> d          -9.217   6.095   5.638  0.00  0.00    -0.026 A 
ATOM     23  C15 <0> d          -8.429   8.107   6.596  0.00  0.00     0.047 C 
ATOM     24  C12 <0> d          -9.018   4.899   4.819  0.00  0.00     0.072 A 
ATOM     25  C17 <0> d         -10.367   6.709   6.438  0.00  0.00     0.041 C 
ATOM     26  C16 <0> d          -9.709   7.739   7.379  0.00  0.00     0.010 C 
BRANCH  24  27
ATOM     27  C18 <0> d         -10.099   3.932   4.610  0.00  0.00     0.252 C 
ATOM     28  O2  <0> d         -10.239   2.999   5.380  0.00  0.00    -0.268 OA
ATOM     29  N6  <0> d         -10.939   4.075   3.566  0.00  0.00    -0.366 N 
ATOM     30  H17 <0> d         -10.828   4.819   2.952  0.00  0.00     0.159 HD
ATOM     31  H18 <0> d         -11.655   3.435   3.427  0.00  0.00     0.159 HD
ENDBRANCH  24  27
ENDBRANCH   3  19
TORSDOF 6
