REMARK  6 active torsions:
REMARK  status: ('A' for Active; 'I' for Inactive)
REMARK    1  A    between atoms: C4_4  and  C16_21 
REMARK    2  A    between atoms: C5_5  and  C7_7 
REMARK    3  A    between atoms: C7_7  and  N1_8 
REMARK    4  A    between atoms: N1_8  and  C8_9 
REMARK    5  A    between atoms: C12_13  and  C14_15 
REMARK    6  A    between atoms: C16_21  and  N3_22 
ROOT
ATOM      1  C8  <0> d           1.555  -4.048   1.577  0.00  0.00     0.029 A 
ATOM      2  C9  <0> d           1.378  -4.947   0.529  0.00  0.00     0.031 A 
ATOM      3  C10 <0> d           1.442  -6.302   0.765  0.00  0.00     0.026 A 
ATOM      4  C11 <0> d           1.685  -6.774   2.058  0.00  0.00     0.059 A 
ATOM      5  C12 <0> d           1.862  -5.867   3.108  0.00  0.00     0.070 A 
ATOM      6  C13 <0> d           1.803  -4.514   2.864  0.00  0.00     0.047 A 
ATOM      7  C15 <0> d           1.752  -8.182   2.308  0.00  0.00     0.100 C 
ATOM      8  N2  <0> d           1.805  -9.300   2.505  0.00  0.00    -0.191 NA
ENDROOT
BRANCH   5   9
ATOM      9  C14 <0> d           2.124  -6.372   4.504  0.00  0.00     0.419 C 
ATOM     10  F1  <0> d           2.266  -5.285   5.373  0.00  0.00    -0.166 F 
ATOM     11  F2  <0> d           1.051  -7.166   4.921  0.00  0.00    -0.166 F 
ATOM     12  F3  <0> d           3.299  -7.132   4.513  0.00  0.00    -0.166 F 
ENDBRANCH   5   9
BRANCH   1  13
ATOM     13  N1  <0> d           1.490  -2.679   1.334  0.00  0.00    -0.386 N 
ATOM     14  H7  <0> d           1.617  -2.051   2.063  0.00  0.00     0.160 HD
BRANCH  13  15
ATOM     15  C7  <0> d           1.229  -2.186  -0.020  0.00  0.00     0.159 C 
BRANCH  15  16
ATOM     16  C5  <0> d           1.209  -0.679  -0.012  0.00  0.00    -0.033 A 
ATOM     17  C4  <0> d           2.396   0.028  -0.020  0.00  0.00    -0.030 A 
ATOM     18  C3  <0> d           2.377   1.411  -0.013  0.00  0.00     0.009 A 
ATOM     19  C2  <0> d           1.171   2.085   0.002  0.00  0.00     0.001 A 
ATOM     20  C1  <0> d          -0.017   1.378   0.010  0.00  0.00     0.001 A 
ATOM     21  C6  <0> d           0.002  -0.004   0.002  0.00  0.00     0.009 A 
BRANCH  17  22
ATOM     22  C16 <0> d           3.711  -0.707  -0.038  0.00  0.00     0.191 C 
BRANCH  22  23
ATOM     23  N3  <0> d           4.064  -1.044  -1.419  0.00  0.00    -0.258 N 
ATOM     24  N5  <0> d           3.278  -1.757  -2.339  0.00  0.00    -0.164 NA
ATOM     25  C18 <0> d           3.967  -1.830  -3.447  0.00  0.00     0.256 A 
ATOM     26  N4  <0> d           5.135  -1.214  -3.272  0.00  0.00    -0.234 NA
ATOM     27  C17 <0> d           5.207  -0.736  -2.056  0.00  0.00     0.230 A 
ENDBRANCH  22  23
ENDBRANCH  17  22
ENDBRANCH  15  16
ENDBRANCH  13  15
ENDBRANCH   1  13
TORSDOF 6
