REMARK  4 active torsions:
REMARK  status: ('A' for Active; 'I' for Inactive)
REMARK    1  A    between atoms: C2_2  and  C3_3 
REMARK    2  A    between atoms: C2_2  and  N1_13 
REMARK       I    between atoms: N1_13  and  C11_14 
REMARK    3  A    between atoms: C11_14  and  C12_16 
REMARK    4  A    between atoms: C12_16  and  N2_17 
ROOT
ATOM      1  C12 <0> d          -6.653  -0.158  -2.322  0.00  0.00     0.235 C 
ENDROOT
BRANCH   1   2
ATOM      2  C11 <0> d          -5.660  -0.844  -1.419  0.00  0.00     0.236 C 
ATOM      3  N1  <0> d          -4.657  -0.137  -0.860  0.00  0.00    -0.351 N 
ATOM      4  H12 <0> d          -4.575   0.813  -1.039  0.00  0.00     0.163 HD
ATOM      5  O3  <0> d          -5.762  -2.031  -1.195  0.00  0.00    -0.272 OA
BRANCH   3   6
ATOM      6  C2  <0> d          -3.692  -0.803   0.018  0.00  0.00     0.113 C 
ATOM      7  C1  <0> d          -4.250  -0.858   1.441  0.00  0.00     0.037 C 
BRANCH   6   8
ATOM      8  C3  <0> d          -2.397  -0.033   0.016  0.00  0.00    -0.033 A 
ATOM      9  C8  <0> d          -1.192  -0.710   0.004  0.00  0.00     0.049 A 
ATOM     10  C7  <0> d           0.002  -0.004   0.002  0.00  0.00     0.102 A 
ATOM     11  C6  <0> d          -0.017   1.385   0.010  0.00  0.00     0.102 A 
ATOM     12  O1  <0> d           1.181  -0.685  -0.007  0.00  0.00    -0.346 OA
ATOM     13  C5  <0> d          -1.229   2.059   0.019  0.00  0.00     0.040 A 
ATOM     14  O2  <0> d           1.143   2.098   0.002  0.00  0.00    -0.346 OA
ATOM     15  C4  <0> d          -2.415   1.349   0.026  0.00  0.00     0.012 A 
ATOM     16  C10 <0> d           2.334   1.392   0.364  0.00  0.00     0.202 C 
ATOM     17  C9  <0> d           2.347   0.053  -0.387  0.00  0.00     0.202 C 
ENDBRANCH   6   8
ENDBRANCH   3   6
ENDBRANCH   1   2
BRANCH   1  18
ATOM     18  N2  <0> d          -7.635  -1.135  -2.798  0.00  0.00    -0.302 N 
ATOM     19  C24 <0> d          -7.354  -1.768  -3.930  0.00  0.00     0.263 C 
ATOM     20  C20 <0> d          -8.198  -2.797  -4.548  0.00  0.00     0.085 A 
ATOM     21  O5  <0> d          -6.318  -1.476  -4.495  0.00  0.00    -0.267 OA
ATOM     22  C19 <0> d          -8.878  -3.740  -3.767  0.00  0.00     0.185 A 
ATOM     23  C21 <0> d          -8.305  -2.866  -5.942  0.00  0.00     0.023 A 
ATOM     24  O4  <0> d          -8.829  -3.668  -2.418  0.00  0.00    -0.289 OA
ATOM     25  N3  <0> d          -9.578  -4.703  -4.346  0.00  0.00    -0.236 NA
ATOM     26  C18 <0> d          -9.333  -2.566  -1.811  0.00  0.00     0.104 A 
ATOM     27  C13 <0> d          -8.780  -1.309  -2.022  0.00  0.00     0.072 A 
ATOM     28  C17 <0> d         -10.450  -2.701  -0.997  0.00  0.00     0.040 A 
ATOM     29  C14 <0> d          -9.375  -0.192  -1.443  0.00  0.00     0.033 A 
ATOM     30  C15 <0> d         -10.493  -0.334  -0.645  0.00  0.00     0.002 A 
ATOM     31  C16 <0> d         -11.027  -1.588  -0.417  0.00  0.00     0.003 A 
ATOM     32  C23 <0> d          -9.682  -4.797  -5.657  0.00  0.00     0.119 A 
ATOM     33  C22 <0> d          -9.062  -3.887  -6.493  0.00  0.00     0.020 A 
ENDBRANCH   1  18
TORSDOF 4
