REMARK  3 active torsions:
REMARK  status: ('A' for Active; 'I' for Inactive)
REMARK    1  A    between atoms: C2_2  and  C3_3 
REMARK    2  A    between atoms: C3_3  and  C4_4 
REMARK    3  A    between atoms: C11_14  and  C12_15 
ROOT
ATOM      1  C4  <0> d          -0.060  -2.307  -1.032  0.00  0.00     0.074 C 
ATOM      2  C5  <0> d           0.841  -2.756   0.130  0.00  0.00     0.294 C 
ATOM      3  N1  <0> d           1.040  -4.209   0.057  0.00  0.00     0.129 N 
ATOM      4  C6  <0> d          -0.218  -4.948   0.231  0.00  0.00     0.294 C 
ATOM      5  C7  <0> d          -1.171  -4.608  -0.925  0.00  0.00     0.070 C 
ATOM      6  C8  <0> d          -1.360  -3.095  -0.904  0.00  0.00     0.150 C 
ATOM      7  O1  <0> d          -2.442  -2.568  -0.796  0.00  0.00    -0.296 OA
ATOM      8  C9  <0> d          -0.463  -4.944  -2.248  0.00  0.00     0.294 C 
ATOM      9  N2  <0> d           0.804  -4.205  -2.321  0.00  0.00     0.129 N 
ATOM     10  C10 <0> d           0.582  -2.732  -2.362  0.00  0.00     0.294 C 
ATOM     11  C11 <0> d           1.689  -4.583  -1.208  0.00  0.00     0.497 C 
ATOM     12  C17 <0> d          -2.507  -5.340  -0.781  0.00  0.00     0.027 C 
ENDROOT
BRANCH  11  13
ATOM     13  C12 <0> d           1.927  -6.071  -1.234  0.00  0.00     0.095 A 
ATOM     14  C15 <0> d           1.823  -6.793  -2.448  0.00  0.00     0.261 A 
ATOM     15  N4  <0> d           2.045  -8.123  -2.447  0.00  0.00    -0.275 N 
ATOM     16  O3  <0> d           1.540  -6.217  -3.483  0.00  0.00    -0.267 OA
ATOM     17  C14 <0> d           2.352  -8.759  -1.301  0.00  0.00     0.327 A 
ATOM     18  H2  <0> d           1.979  -8.624  -3.275  0.00  0.00     0.173 HD
ATOM     19  N3  <0> d           2.448  -8.085  -0.141  0.00  0.00    -0.312 N 
ATOM     20  O2  <0> d           2.545  -9.959  -1.315  0.00  0.00    -0.247 OA
ATOM     21  C13 <0> d           2.236  -6.734  -0.100  0.00  0.00     0.025 A 
ATOM     22  H1  <0> d           2.670  -8.562   0.674  0.00  0.00     0.170 HD
ATOM     23  C16 <0> d           2.346  -5.990   1.206  0.00  0.00     0.069 C 
ENDBRANCH  11  13
BRANCH   1  24
ATOM     24  C3  <0> d          -0.314  -0.799  -0.991  0.00  0.00     0.020 C 
BRANCH  24  25
ATOM     25  C2  <0> d          -0.977  -0.429   0.337  0.00  0.00    -0.003 C 
ATOM     26  C1  <0> d          -1.231   1.079   0.377  0.00  0.00     0.005 C 
ENDBRANCH  24  25
ENDBRANCH   1  24
TORSDOF 3
