REMARK  6 active torsions:
REMARK  status: ('A' for Active; 'I' for Inactive)
REMARK    1  A    between atoms: C4_6  and  C5_7 
REMARK       I    between atoms: C5_7  and  N3_9 
REMARK    2  A    between atoms: C7_11  and  C14_19 
REMARK       I    between atoms: C14_19  and  N5_21 
REMARK    3  A    between atoms: N5_21  and  C15_22 
REMARK    4  A    between atoms: C15_22  and  C16_23 
REMARK    5  A    between atoms: C16_23  and  C17_24 
REMARK    6  A    between atoms: C16_23  and  N6_30 
ROOT
ATOM      1  C5  <0> d          -1.010  -0.490   3.956  0.00  0.00     0.272 C 
ATOM      2  O1  <0> d          -1.283  -1.251   4.866  0.00  0.00    -0.266 OA
ATOM      3  N3  <0> d          -1.220   0.833   4.098  0.00  0.00    -0.345 N 
ATOM      4  C6  <0> d          -1.085   1.890   3.068  0.00  0.00     0.141 C 
ATOM      5  C7  <0> d          -2.267   2.848   3.334  0.00  0.00     0.106 C 
ATOM      6  C8  <0> d          -2.625   2.629   4.814  0.00  0.00    -0.007 C 
ATOM      7  C9  <0> d          -1.645   1.560   5.319  0.00  0.00     0.136 C 
ATOM      8  C10 <0> d          -4.059   2.123   4.942  0.00  0.00     0.039 C 
ATOM      9  C11 <0> d          -4.410   1.967   6.424  0.00  0.00     0.233 C 
ATOM     10  N4  <0> d          -4.263   3.261   7.102  0.00  0.00    -0.075 N 
ATOM     11  C12 <0> d          -2.862   3.696   7.055  0.00  0.00     0.233 C 
ATOM     12  C13 <0> d          -2.446   3.925   5.599  0.00  0.00     0.039 C 
ATOM     13  H16 <0> d          -4.843   3.947   6.643  0.00  0.00     0.277 HD
ATOM     14  H37 <0> d          -4.553   3.169   8.064  0.00  0.00     0.277 HD
ENDROOT
BRANCH   5  15
ATOM     15  C14 <0> d          -1.849   4.277   3.100  0.00  0.00     0.224 C 
ATOM     16  O2  <0> d          -0.709   4.621   3.333  0.00  0.00    -0.273 OA
ATOM     17  N5  <0> d          -2.740   5.172   2.631  0.00  0.00    -0.358 N 
ATOM     18  H21 <0> d          -3.652   4.897   2.445  0.00  0.00     0.162 HD
BRANCH  17  19
ATOM     19  C15 <0> d          -2.333   6.561   2.403  0.00  0.00     0.163 C 
BRANCH  19  20
ATOM     20  C16 <0> d          -3.525   7.361   1.874  0.00  0.00     0.273 C 
BRANCH  20  21
ATOM     21  C17 <0> d          -3.077   8.757   1.523  0.00  0.00    -0.024 A 
ATOM     22  C22 <0> d          -1.934   8.947   0.769  0.00  0.00     0.009 A 
ATOM     23  C21 <0> d          -1.526  10.227   0.443  0.00  0.00     0.001 A 
ATOM     24  C20 <0> d          -2.255  11.317   0.880  0.00  0.00     0.000 A 
ATOM     25  C19 <0> d          -3.394  11.127   1.639  0.00  0.00     0.001 A 
ATOM     26  C18 <0> d          -3.805   9.847   1.961  0.00  0.00     0.009 A 
ENDBRANCH  20  21
BRANCH  20  27
ATOM     27  N6  <0> d          -4.063   6.704   0.675  0.00  0.00     0.103 N 
ATOM     28  C26 <0> d          -5.313   7.343   0.240  0.00  0.00     0.299 C 
ATOM     29  C25 <0> d          -5.869   6.592  -0.973  0.00  0.00     0.198 C 
ATOM     30  O3  <0> d          -4.883   6.572  -2.008  0.00  0.00    -0.388 OA
ATOM     31  C24 <0> d          -3.652   5.956  -1.619  0.00  0.00     0.198 C 
ATOM     32  C23 <0> d          -3.074   6.700  -0.413  0.00  0.00     0.299 C 
ENDBRANCH  20  27
ENDBRANCH  19  20
ENDBRANCH  17  19
ENDBRANCH   5  15
BRANCH   1  33
ATOM     33  C4  <0> d          -0.452  -1.014   2.704  0.00  0.00     0.121 A 
ATOM     34  N1  <0> d          -0.322  -2.342   2.347  0.00  0.00    -0.340 N 
ATOM     35  C1  <0> d          -0.717  -3.503   3.149  0.00  0.00     0.157 C 
ATOM     36  C2  <0> d           0.231  -2.369   1.121  0.00  0.00     0.209 A 
ATOM     37  N2  <0> d           0.446  -1.142   0.720  0.00  0.00    -0.253 NA
ATOM     38  C3  <0> d           0.045  -0.286   1.660  0.00  0.00     0.153 A 
ENDBRANCH   1  33
TORSDOF 6
