REMARK  3 active torsions:
REMARK  status: ('A' for Active; 'I' for Inactive)
REMARK    1  A    between atoms: C3_4  and  N3_18 
REMARK    2  A    between atoms: C5_6  and  C6_7 
REMARK    3  A    between atoms: C6_7  and  N2_8 
ROOT
ATOM      1  C6  <0> d          -1.282  -0.792   0.011  0.00  0.00     0.311 C 
ENDROOT
BRANCH   1   2
ATOM      2  C5  <0> d           0.002  -0.004   0.002  0.00  0.00    -0.025 A 
ATOM      3  C1  <0> d          -0.017   1.384   0.010  0.00  0.00     0.026 A 
ATOM      4  C2  <0> d           1.178   2.077   0.002  0.00  0.00     0.090 A 
ATOM      5  N1  <0> d           2.331   1.436  -0.013  0.00  0.00    -0.353 N 
ATOM      6  C3  <0> d           2.391   0.113  -0.021  0.00  0.00     0.099 A 
ATOM      7  H22 <0> d           3.156   1.947  -0.018  0.00  0.00     0.166 HD
ATOM      8  C4  <0> d           1.226  -0.648  -0.014  0.00  0.00     0.057 A 
BRANCH   6   9
ATOM      9  N3  <0> d           3.628  -0.520  -0.036  0.00  0.00    -0.385 N 
ATOM     10  H20 <0> d           4.442   0.006  -0.041  0.00  0.00     0.157 HD
ATOM     11  H21 <0> d           3.677  -1.489  -0.042  0.00  0.00     0.157 HD
ENDBRANCH   6   9
ENDBRANCH   1   2
BRANCH   1  12
ATOM     12  N2  <0> d          -1.714  -1.041  -1.372  0.00  0.00     0.101 N 
ATOM     13  C10 <0> d          -2.827  -2.003  -1.412  0.00  0.00     0.252 C 
ATOM     14  C9  <0> d          -3.190  -2.279  -2.873  0.00  0.00     0.154 C 
ATOM     15  C11 <0> d          -4.034  -1.399  -0.691  0.00  0.00     0.038 C 
ATOM     16  O1  <0> d          -3.529  -1.049  -3.516  0.00  0.00    -0.382 OA
ATOM     17  C14 <0> d          -4.377  -3.240  -2.932  0.00  0.00     0.034 C 
ATOM     18  C8  <0> d          -2.477  -0.080  -3.491  0.00  0.00     0.198 C 
ATOM     19  C7  <0> d          -2.091   0.214  -2.039  0.00  0.00     0.299 C 
ATOM     20  C13 <0> d          -5.577  -2.633  -2.218  0.00  0.00     0.003 C 
ATOM     21  C12 <0> d          -5.211  -2.374  -0.755  0.00  0.00     0.002 C 
ENDBRANCH   1  12
TORSDOF 3
