REMARK  6 active torsions:
REMARK  status: ('A' for Active; 'I' for Inactive)
REMARK    1  A    between atoms: C2_2  and  C4_4 
REMARK    2  A    between atoms: C4_4  and  C5_5 
REMARK    3  A    between atoms: C4_4  and  N3_18 
REMARK    4  A    between atoms: C5_5  and  N1_6 
REMARK       I    between atoms: N1_6  and  C6_7 
REMARK       I    between atoms: C6_7  and  N2_9 
REMARK    5  A    between atoms: N2_9  and  C7_10 
REMARK    6  A    between atoms: C7_10  and  C8_11 
ROOT
ATOM      1  N1  <0> d          -2.310  -2.812   0.025  0.00  0.00    -0.341 N 
ATOM      2  C6  <0> d          -2.279  -4.152   0.166  0.00  0.00     0.316 C 
ATOM      3  O1  <0> d          -1.241  -4.707   0.472  0.00  0.00    -0.247 OA
ATOM      4  N2  <0> d          -3.398  -4.877  -0.030  0.00  0.00    -0.343 N 
ATOM      5  H12 <0> d          -3.138  -2.369  -0.219  0.00  0.00     0.164 HD
ATOM      6  H13 <0> d          -4.226  -4.434  -0.274  0.00  0.00     0.164 HD
ENDROOT
BRANCH   1   7
ATOM      7  C5  <0> d          -1.093  -2.024   0.238  0.00  0.00     0.160 C 
BRANCH   7   8
ATOM      8  C4  <0> d          -1.383  -0.550  -0.052  0.00  0.00     0.244 C 
BRANCH   8   9
ATOM      9  C2  <0> d          -0.082   0.250   0.029  0.00  0.00     0.012 C 
ATOM     10  C1  <0> d          -0.390   1.741  -0.123  0.00  0.00     0.012 C 
ATOM     11  C3  <0> d           0.585   0.004   1.384  0.00  0.00     0.012 C 
ENDBRANCH   8   9
BRANCH   8  12
ATOM     12  N3  <0> d          -1.954  -0.420  -1.399  0.00  0.00     0.099 N 
ATOM     13  C15 <0> d          -2.724   0.827  -1.526  0.00  0.00     0.299 C 
ATOM     14  C14 <0> d          -3.350   0.893  -2.921  0.00  0.00     0.198 C 
ATOM     15  O4  <0> d          -2.318   0.791  -3.907  0.00  0.00    -0.388 OA
ATOM     16  C13 <0> d          -1.549  -0.411  -3.812  0.00  0.00     0.198 C 
ATOM     17  C12 <0> d          -0.905  -0.491  -2.426  0.00  0.00     0.299 C 
ENDBRANCH   8  12
ENDBRANCH   7   8
ENDBRANCH   1   7
BRANCH   4  18
ATOM     18  C7  <0> d          -3.364  -6.333   0.124  0.00  0.00     0.130 C 
BRANCH  18  19
ATOM     19  C8  <0> d          -4.755  -6.908  -0.153  0.00  0.00     0.018 C 
ATOM     20  C11 <0> d          -4.698  -8.462  -0.117  0.00  0.00     0.146 C 
ATOM     21  S1  <0> d          -6.478  -8.858   0.143  0.00  0.00     0.144 S 
ATOM     22  C10 <0> d          -7.047  -7.259   0.851  0.00  0.00     0.141 C 
ATOM     23  O2  <0> d          -7.099  -9.051  -1.121  0.00  0.00    -0.228 OA
ATOM     24  O3  <0> d          -6.587  -9.868   1.137  0.00  0.00    -0.228 OA
ATOM     25  C9  <0> d          -5.736  -6.439   0.934  0.00  0.00     0.022 C 
ENDBRANCH  18  19
ENDBRANCH   4  18
TORSDOF 6
