REMARK  3 active torsions:
REMARK  status: ('A' for Active; 'I' for Inactive)
REMARK    1  A    between atoms: C5_6  and  C9_10 
REMARK    2  A    between atoms: C10_12  and  C11_15 
REMARK    3  A    between atoms: C15_19  and  C17_21 
ROOT
ATOM      1  C9  <0> d           3.639  -2.760  -1.304  0.00  0.00     0.281 A 
ATOM      2  N2  <0> d           3.067  -4.112  -1.393  0.00  0.00    -0.342 N 
ATOM      3  C10 <0> d           2.319  -4.154  -2.556  0.00  0.00     0.163 A 
ATOM      4  N3  <0> d           2.358  -3.022  -3.178  0.00  0.00    -0.113 NA
ATOM      5  O1  <0> d           3.159  -2.085  -2.477  0.00  0.00    -0.226 OA
ATOM      6  H9  <0> d           3.191  -4.836  -0.759  0.00  0.00     0.164 HD
ENDROOT
BRANCH   3   7
ATOM      7  C11 <0> d           1.570  -5.341  -3.027  0.00  0.00     0.013 A 
ATOM      8  C16 <0> d           0.844  -5.283  -4.213  0.00  0.00     0.029 A 
ATOM      9  C15 <0> d           0.148  -6.407  -4.653  0.00  0.00    -0.007 A 
ATOM     10  C14 <0> d           0.172  -7.579  -3.896  0.00  0.00     0.014 A 
ATOM     11  C13 <0> d           0.889  -7.628  -2.717  0.00  0.00     0.002 A 
ATOM     12  C12 <0> d           1.586  -6.520  -2.279  0.00  0.00     0.015 A 
BRANCH   9  13
ATOM     13  C17 <0> d          -0.620  -6.355  -5.917  0.00  0.00     0.061 A 
ATOM     14  N5  <0> d          -0.732  -5.284  -6.751  0.00  0.00    -0.278 N 
ATOM     15  N4  <0> d          -1.544  -5.663  -7.827  0.00  0.00    -0.187 NA
ATOM     16  H3  <0> d          -0.321  -4.414  -6.624  0.00  0.00     0.189 HD
ATOM     17  C19 <0> d          -1.915  -6.906  -7.649  0.00  0.00     0.141 A 
ATOM     18  C18 <0> d          -1.354  -7.372  -6.460  0.00  0.00     0.053 A 
ENDBRANCH   9  13
ENDBRANCH   3   7
BRANCH   1  19
ATOM     19  C5  <0> d           3.143  -2.053  -0.041  0.00  0.00     0.157 A 
ATOM     20  N1  <0> d           3.587  -0.654  -0.037  0.00  0.00    -0.377 N 
ATOM     21  C4  <0> d           2.529   0.120  -0.022  0.00  0.00     0.038 A 
ATOM     22  H16 <0> d           4.509  -0.353  -0.045  0.00  0.00     0.160 HD
ATOM     23  C3  <0> d           2.391   1.535  -0.013  0.00  0.00     0.030 A 
ATOM     24  C7  <0> d           1.295  -0.698  -0.014  0.00  0.00    -0.011 A 
ATOM     25  C2  <0> d           1.166   2.101   0.002  0.00  0.00     0.002 A 
ATOM     26  C1  <0> d          -0.016   1.348   0.009  0.00  0.00     0.001 A 
ATOM     27  C8  <0> d           0.002  -0.004   0.002  0.00  0.00     0.013 A 
ATOM     28  C6  <0> d           1.631  -2.008  -0.025  0.00  0.00     0.016 A 
ENDBRANCH   1  19
TORSDOF 3
