REMARK  5 active torsions:
REMARK  status: ('A' for Active; 'I' for Inactive)
REMARK    1  A    between atoms: C3_5  and  N3_7 
REMARK    2  A    between atoms: C4_8  and  C14_22 
REMARK    3  A    between atoms: C6_10  and  C7_11 
REMARK    4  A    between atoms: C17_25  and  O5_30 
REMARK    5  A    between atoms: C18_26  and  O4_28 
ROOT
ATOM      1  N3  <0> d          -0.352   2.261  -0.349  0.00  0.00    -0.274 N 
ATOM      2  C4  <0> d           0.349   1.541   0.717  0.00  0.00     0.169 A 
ATOM      3  C5  <0> d          -0.441   1.768   1.986  0.00  0.00     0.063 A 
ATOM      4  C6  <0> d          -0.151   1.279   3.240  0.00  0.00     0.130 C 
ATOM      5  O1  <0> d          -0.894   1.659   4.301  0.00  0.00    -0.190 OA
ATOM      6  C12 <0> d          -1.532   2.582   1.624  0.00  0.00     0.251 A 
ATOM      7  O2  <0> d          -2.402   2.984   2.374  0.00  0.00    -0.282 OA
ATOM      8  C13 <0> d          -1.437   2.863   0.167  0.00  0.00     0.301 A 
ATOM      9  O3  <0> d          -2.224   3.538  -0.465  0.00  0.00    -0.263 OA
ENDROOT
BRANCH   2  10
ATOM     10  C14 <0> d           1.746   2.084   0.875  0.00  0.00    -0.027 A 
ATOM     11  C19 <0> d           1.951   3.449   0.949  0.00  0.00     0.049 A 
ATOM     12  C18 <0> d           3.235   3.949   1.094  0.00  0.00     0.101 A 
ATOM     13  C17 <0> d           4.316   3.075   1.164  0.00  0.00     0.099 A 
ATOM     14  C16 <0> d           4.103   1.708   1.089  0.00  0.00     0.040 A 
ATOM     15  C15 <0> d           2.819   1.215   0.950  0.00  0.00     0.012 A 
BRANCH  12  16
ATOM     16  O4  <0> d           3.439   5.292   1.167  0.00  0.00    -0.353 OA
ATOM     17  C20 <0> d           2.277   6.123   1.213  0.00  0.00     0.210 C 
ENDBRANCH  12  16
BRANCH  13  18
ATOM     18  O5  <0> d           5.577   3.562   1.307  0.00  0.00    -0.358 OA
ATOM     19  H15 <0> d           5.745   4.647   1.366  0.00  0.00     0.217 HD
ENDBRANCH  13  18
ENDBRANCH   2  10
BRANCH   1  20
ATOM     20  C3  <0> d           0.042   2.314  -1.680  0.00  0.00     0.200 A 
ATOM     21  N2  <0> d           1.086   1.761  -2.283  0.00  0.00    -0.123 NA
ATOM     22  N1  <0> d           1.298   1.913  -3.517  0.00  0.00    -0.145 NA
ATOM     23  C2  <0> d           0.499   2.628  -4.284  0.00  0.00     0.097 A 
ATOM     24  C1  <0> d           0.582   2.924  -5.760  0.00  0.00     0.081 C 
ATOM     25  S1  <0> d          -0.717   3.143  -3.074  0.00  0.00    -0.033 SA
ENDBRANCH   1  20
BRANCH   4  26
ATOM     26  C7  <0> d           0.972   0.339   3.424  0.00  0.00     0.004 A 
ATOM     27  C11 <0> d           1.922   0.541   4.433  0.00  0.00     0.033 A 
ATOM     28  C10 <0> d           2.956  -0.364   4.569  0.00  0.00     0.117 A 
ATOM     29  N4  <0> d           3.055  -1.405   3.766  0.00  0.00    -0.273 NA
ATOM     30  C9  <0> d           2.184  -1.633   2.803  0.00  0.00     0.117 A 
ATOM     31  C8  <0> d           1.115  -0.784   2.598  0.00  0.00     0.033 A 
ENDBRANCH   4  26
TORSDOF 5
