REMARK  3 active torsions:
REMARK  status: ('A' for Active; 'I' for Inactive)
REMARK    1  A    between atoms: N1_6  and  C6_7 
REMARK    2  A    between atoms: N3_10  and  C9_12 
REMARK    3  A    between atoms: C15_18  and  N4_19 
ROOT
ATOM      1  C1  <0> d          -0.018   1.503   0.010  0.00  0.00     0.068 C 
ATOM      2  C2  <0> d           0.002  -0.004   0.002  0.00  0.00     0.014 A 
ATOM      3  C3  <0> d           0.008  -0.790  -1.098  0.00  0.00     0.036 A 
ATOM      4  C4  <0> d           0.029  -2.121  -0.658  0.00  0.00    -0.003 A 
ATOM      5  C5  <0> d           0.034  -2.107   0.695  0.00  0.00     0.025 A 
ATOM      6  N1  <0> d           0.024  -0.810   1.105  0.00  0.00    -0.316 N 
ATOM      7  C12 <0> d           0.051  -3.348   1.553  0.00  0.00     0.058 C 
ATOM      8  C13 <0> d          -0.352  -4.544   0.682  0.00  0.00     0.008 C 
ATOM      9  C14 <0> d           0.481  -4.545  -0.603  0.00  0.00     0.038 C 
ATOM     10  C15 <0> d           0.047  -3.375  -1.495  0.00  0.00     0.218 C 
ENDROOT
BRANCH   6  11
ATOM     11  C6  <0> d           0.031  -0.372   2.444  0.00  0.00     0.075 A 
ATOM     12  C8  <0> d          -0.966   0.304   3.070  0.00  0.00     0.144 A 
ATOM     13  N3  <0> d          -0.570   0.534   4.341  0.00  0.00    -0.275 N 
ATOM     14  N2  <0> d           0.712  -0.008   4.500  0.00  0.00    -0.183 NA
ATOM     15  C7  <0> d           1.073  -0.551   3.366  0.00  0.00     0.170 A 
BRANCH  13  16
ATOM     16  C9  <0> d          -1.343   1.233   5.371  0.00  0.00     0.101 C 
ATOM     17  C10 <0> d          -1.127   2.742   5.235  0.00  0.00     0.034 C 
ATOM     18  C11 <0> d          -2.829   0.913   5.198  0.00  0.00     0.034 C 
ENDBRANCH  13  16
ENDBRANCH   6  11
BRANCH  10  19
ATOM     19  N4  <0> d           0.998  -3.218  -2.603  0.00  0.00    -0.071 N 
ATOM     20  H21 <0> d           1.922  -3.051  -2.232  0.00  0.00     0.275 HD
ATOM     21  H22 <0> d           1.007  -4.059  -3.160  0.00  0.00     0.275 HD
ATOM     22  H23 <0> d           0.720  -2.437  -3.177  0.00  0.00     0.275 HD
ENDBRANCH  10  19
TORSDOF 3
