REMARK  3 active torsions:
REMARK  status: ('A' for Active; 'I' for Inactive)
REMARK    1  A    between atoms: C4_6  and  C9_16 
REMARK    2  A    between atoms: N2_7  and  C7_12 
REMARK    3  A    between atoms: C7_12  and  C8_13 
REMARK       I    between atoms: C8_13  and  N3_15 
ROOT
ATOM      1  C1  <0> d          -0.725   1.484  -0.385  0.00  0.00     0.162 C 
ATOM      2  N1  <0> d          -0.502   0.041  -0.267  0.00  0.00    -0.290 N 
ATOM      3  C2  <0> d          -1.514  -0.886  -0.263  0.00  0.00     0.235 C 
ATOM      4  O1  <0> d          -2.675  -0.714  -0.565  0.00  0.00    -0.272 OA
ATOM      5  C3  <0> d          -0.891  -2.113   0.177  0.00  0.00     0.143 C 
ATOM      6  C4  <0> d          -1.126  -3.565   0.114  0.00  0.00     0.137 C 
ATOM      7  N2  <0> d           0.253  -4.125   0.323  0.00  0.00    -0.177 NA
ATOM      8  O2  <0> d           1.186  -2.962   0.390  0.00  0.00    -0.286 OA
ATOM      9  C5  <0> d           0.550  -1.988  -0.459  0.00  0.00     0.253 C 
ATOM     10  C6  <0> d           0.734  -0.526  -0.154  0.00  0.00     0.258 C 
ATOM     11  O3  <0> d           1.770   0.033   0.135  0.00  0.00    -0.270 OA
ENDROOT
BRANCH   6  12
ATOM     12  C9  <0> d          -2.059  -4.005   1.213  0.00  0.00    -0.015 A 
ATOM     13  C18 <0> d          -2.380  -5.353   1.363  0.00  0.00    -0.015 A 
ATOM     14  C17 <0> d          -3.283  -5.782   2.436  0.00  0.00    -0.003 A 
ATOM     15  C19 <0> d          -1.843  -6.330   0.497  0.00  0.00     0.013 A 
ATOM     16  C16 <0> d          -3.836  -4.842   3.305  0.00  0.00     0.056 A 
ATOM     17  C22 <0> d          -3.581  -7.155   2.563  0.00  0.00     0.014 A 
ATOM     18  C15 <0> d          -3.520  -3.492   3.151  0.00  0.00    -0.003 A 
ATOM     19 Cl1  <0> d          -4.911  -5.348   4.571  0.00  0.00    -0.082 Cl
ATOM     20  C10 <0> d          -2.611  -3.065   2.082  0.00  0.00    -0.015 A 
ATOM     21  C14 <0> d          -4.060  -2.514   4.013  0.00  0.00     0.014 A 
ATOM     22  C11 <0> d          -2.312  -1.691   1.955  0.00  0.00     0.013 A 
ATOM     23  C12 <0> d          -2.868  -0.802   2.817  0.00  0.00     0.001 A 
ATOM     24  C13 <0> d          -3.731  -1.209   3.835  0.00  0.00     0.001 A 
ATOM     25  C21 <0> d          -3.041  -8.042   1.688  0.00  0.00     0.001 A 
ATOM     26  C20 <0> d          -2.177  -7.634   0.671  0.00  0.00     0.001 A 
ENDBRANCH   6  12
BRANCH   7  27
ATOM     27  C7  <0> d           0.316  -4.922   1.555  0.00  0.00     0.224 C 
BRANCH  27  28
ATOM     28  C8  <0> d           1.692  -5.521   1.695  0.00  0.00     0.230 C 
ATOM     29  O4  <0> d           2.536  -5.305   0.852  0.00  0.00    -0.272 OA
ATOM     30  N3  <0> d           1.984  -6.297   2.758  0.00  0.00    -0.369 N 
ATOM     31  H9  <0> d           1.309  -6.470   3.432  0.00  0.00     0.159 HD
ATOM     32  H10 <0> d           2.869  -6.683   2.848  0.00  0.00     0.159 HD
ENDBRANCH  27  28
ENDBRANCH   7  27
TORSDOF 3
