REMARK  5 active torsions:
REMARK  status: ('A' for Active; 'I' for Inactive)
REMARK    1  A    between atoms: C2_2  and  C3_3 
REMARK    2  A    between atoms: C3_3  and  C4_4 
REMARK    3  A    between atoms: C4_4  and  C5_5 
REMARK    4  A    between atoms: C6_8  and  N3_10 
REMARK       I    between atoms: N3_10  and  C7_11 
REMARK    5  A    between atoms: C7_11  and  C8_13 
ROOT
ATOM      1  N3  <0> d          -4.592  -4.470  -3.198  0.00  0.00    -0.304 N 
ATOM      2  C7  <0> d          -4.721  -5.799  -3.381  0.00  0.00     0.238 C 
ATOM      3  O1  <0> d          -4.299  -6.570  -2.546  0.00  0.00    -0.272 OA
ATOM      4  H13 <0> d          -4.929  -3.853  -3.866  0.00  0.00     0.171 HD
ENDROOT
BRANCH   1   5
ATOM      5  C6  <0> d          -3.973  -3.983  -2.050  0.00  0.00     0.189 A 
ATOM      6  N2  <0> d          -3.469  -4.659  -1.066  0.00  0.00    -0.152 NA
ATOM      7  N1  <0> d          -2.876  -4.073   0.030  0.00  0.00    -0.297 N 
ATOM      8  C5  <0> d          -2.848  -2.593   0.015  0.00  0.00     0.170 A 
ATOM      9  H12 <0> d          -2.504  -4.593   0.759  0.00  0.00     0.183 HD
ATOM     10  S1  <0> d          -3.690  -2.279  -1.591  0.00  0.00    -0.063 SA
BRANCH   8  11
ATOM     11  C4  <0> d          -1.413  -2.063   0.004  0.00  0.00     0.038 C 
BRANCH  11  12
ATOM     12  C3  <0> d          -1.433  -0.534   0.013  0.00  0.00     0.002 C 
BRANCH  12  13
ATOM     13  C2  <0> d           0.002  -0.004   0.002  0.00  0.00    -0.004 C 
ATOM     14  C1  <0> d          -0.019   1.526   0.010  0.00  0.00     0.005 C 
ENDBRANCH  12  13
ENDBRANCH  11  12
ENDBRANCH   8  11
ENDBRANCH   1   5
BRANCH   2  15
ATOM     15  C8  <0> d          -5.391  -6.326  -4.624  0.00  0.00     0.164 A 
ATOM     16  C12 <0> d          -6.777  -5.720  -4.703  0.00  0.00     0.117 A 
ATOM     17  N4  <0> d          -7.829  -6.546  -4.739  0.00  0.00    -0.253 NA
ATOM     18  S2  <0> d          -6.993  -4.022  -4.744  0.00  0.00    -0.062 SA
ATOM     19  C11 <0> d          -7.704  -7.844  -4.710  0.00  0.00     0.117 A 
ATOM     20  C10 <0> d          -6.469  -8.518  -4.637  0.00  0.00     0.016 A 
ATOM     21  C9  <0> d          -5.313  -7.840  -4.593  0.00  0.00    -0.004 A 
ENDBRANCH   2  15
TORSDOF 5
