REMARK  1 active torsions:
REMARK  status: ('A' for Active; 'I' for Inactive)
REMARK    1  A    between atoms: C4_4  and  N2_15 
ROOT
ATOM      1  C1  <0> d          -0.018   1.503   0.010  0.00  0.00     0.051 C 
ATOM      2  C2  <0> d           0.002  -0.004   0.002  0.00  0.00    -0.024 A 
ATOM      3  C3  <0> d           0.006  -0.689  -1.200  0.00  0.00     0.039 A 
ATOM      4  C4  <0> d           0.025  -2.077  -1.212  0.00  0.00     0.039 A 
ATOM      5  C5  <0> d           0.043  -2.782  -0.015  0.00  0.00    -0.006 A 
ATOM      6  C6  <0> d           0.041  -2.096   1.188  0.00  0.00     0.077 A 
ATOM      7  C7  <0> d           0.023  -0.702   1.197  0.00  0.00     0.102 A 
ATOM      8  O1  <0> d           0.014  -0.036   2.383  0.00  0.00    -0.348 OA
ATOM      9  C8  <0> d          -1.210  -0.021   3.112  0.00  0.00     0.185 C 
ATOM     10  C9  <0> d          -1.850  -1.408   3.111  0.00  0.00     0.130 C 
ATOM     11  C10 <0> d          -0.804  -2.459   3.377  0.00  0.00     0.224 C 
ATOM     12  O2  <0> d          -0.750  -3.006   4.458  0.00  0.00    -0.273 OA
ATOM     13  N1  <0> d           0.064  -2.791   2.404  0.00  0.00    -0.324 N 
ATOM     14  C11 <0> d           0.065  -4.289  -0.026  0.00  0.00     0.053 C 
ATOM     15  H9  <0> d           0.707  -3.503   2.550  0.00  0.00     0.169 HD
ENDROOT
BRANCH   4  16
ATOM     16  N2  <0> d           0.026  -2.766  -2.430  0.00  0.00    -0.377 N 
ATOM     17  C15 <0> d           1.288  -3.121  -3.097  0.00  0.00     0.150 C 
ATOM     18  C14 <0> d           1.218  -2.665  -4.553  0.00  0.00     0.252 C 
ATOM     19  N3  <0> d           0.018  -3.228  -5.186  0.00  0.00    -0.072 N 
ATOM     20  C13 <0> d          -1.186  -2.688  -4.543  0.00  0.00     0.252 C 
ATOM     21  H17 <0> d           0.029  -4.232  -5.090  0.00  0.00     0.277 HD
ATOM     22  H22 <0> d           0.012  -2.987  -6.166  0.00  0.00     0.277 HD
ATOM     23  C12 <0> d          -1.235  -3.150  -3.083  0.00  0.00     0.150 C 
ENDBRANCH   4  16
TORSDOF 1
