REMARK  2 active torsions:
REMARK  status: ('A' for Active; 'I' for Inactive)
REMARK    1  A    between atoms: C4_4  and  C7_7 
REMARK    2  A    between atoms: C8_9  and  C16_20 
ROOT
ATOM      1  C7  <0> d           1.615   2.853  -0.064  0.00  0.00     0.052 C 
ATOM      2  N1  <0> d           1.359   1.593  -0.029  0.00  0.00    -0.367 N 
ATOM      3  C8  <0> d          -0.012   1.084  -0.021  0.00  0.00     0.276 C 
ATOM      4  C9  <0> d          -0.695   1.544   1.238  0.00  0.00     0.255 C 
ATOM      5  O1  <0> d          -1.068   0.717   2.043  0.00  0.00    -0.270 OA
ATOM      6  N2  <0> d          -0.901   2.833   1.491  0.00  0.00    -0.324 N 
ATOM      7  C10 <0> d          -0.577   3.876   0.636  0.00  0.00     0.047 A 
ATOM      8  C11 <0> d           0.601   3.918  -0.107  0.00  0.00     0.019 A 
ATOM      9  C12 <0> d           0.848   5.018  -0.942  0.00  0.00     0.040 A 
ATOM     10  C13 <0> d          -0.062   6.047  -1.030  0.00  0.00     0.035 A 
ATOM     11  C14 <0> d          -1.234   6.002  -0.291  0.00  0.00     0.026 A 
ATOM     12  C15 <0> d          -1.489   4.928   0.533  0.00  0.00     0.032 A 
ATOM     13 Cl1  <0> d           0.258   7.402  -2.068  0.00  0.00    -0.084 Cl
ATOM     14  H7  <0> d          -1.363   3.140   2.441  0.00  0.00     0.169 HD
ATOM     15  H11 <0> d           2.182   0.865  -0.004  0.00  0.00     0.161 HD
ENDROOT
BRANCH   1  16
ATOM     16  C4  <0> d           3.039   3.262  -0.060  0.00  0.00    -0.009 A 
ATOM     17  C3  <0> d           3.401   4.532   0.390  0.00  0.00     0.014 A 
ATOM     18  C2  <0> d           4.729   4.907   0.391  0.00  0.00     0.001 A 
ATOM     19  C1  <0> d           5.700   4.028  -0.053  0.00  0.00     0.000 A 
ATOM     20  C6  <0> d           5.347   2.767  -0.500  0.00  0.00     0.001 A 
ATOM     21  C5  <0> d           4.023   2.378  -0.502  0.00  0.00     0.014 A 
ENDBRANCH   1  16
BRANCH   3  22
ATOM     22  C16 <0> d          -0.754   1.613  -1.222  0.00  0.00     0.206 C 
ATOM     23  O2  <0> d          -0.347   2.593  -1.800  0.00  0.00    -0.646 OA
ATOM     24  O3  <0> d          -1.866   0.996  -1.649  0.00  0.00    -0.646 OA
ENDBRANCH   3  22
TORSDOF 2
