REMARK  4 active torsions:
REMARK  status: ('A' for Active; 'I' for Inactive)
REMARK    1  A    between atoms: C5_5  and  C8_8 
REMARK    2  A    between atoms: C15_15  and  C18_18 
REMARK       I    between atoms: C18_18  and  N1_20 
REMARK    3  A    between atoms: N1_20  and  C19_21 
REMARK    4  A    between atoms: C19_21  and  C20_22 
ROOT
ATOM      1  C8  <0> d           0.059  -4.275  -0.021  0.00  0.00    -0.011 C 
ATOM      2  C9  <0> d          -1.187  -4.798  -0.739  0.00  0.00     0.019 C 
ATOM      3  C10 <0> d          -1.167  -6.327  -0.747  0.00  0.00    -0.012 C 
ATOM      4  C11 <0> d           0.084  -6.817  -1.478  0.00  0.00     0.009 C 
ATOM      5  C12 <0> d           1.331  -6.295  -0.761  0.00  0.00    -0.012 C 
ATOM      6  C13 <0> d           1.311  -4.765  -0.752  0.00  0.00     0.019 C 
ATOM      7  C14 <0> d           1.345  -6.813   0.679  0.00  0.00     0.024 C 
ATOM      8  C15 <0> d           0.094  -6.323   1.410  0.00  0.00     0.043 C 
ATOM      9  C16 <0> d          -1.153  -6.845   0.693  0.00  0.00     0.024 C 
ATOM     10  C17 <0> d           0.074  -4.793   1.418  0.00  0.00     0.033 C 
ENDROOT
BRANCH   8  11
ATOM     11  C18 <0> d           0.108  -6.833   2.828  0.00  0.00     0.226 C 
ATOM     12  O1  <0> d           0.103  -6.050   3.754  0.00  0.00    -0.273 OA
ATOM     13  N1  <0> d           0.127  -8.159   3.067  0.00  0.00    -0.353 N 
ATOM     14  H22 <0> d           0.131  -8.786   2.326  0.00  0.00     0.162 HD
BRANCH  13  15
ATOM     15  C19 <0> d           0.141  -8.655   4.445  0.00  0.00     0.203 C 
BRANCH  15  16
ATOM     16  C20 <0> d           0.160 -10.162   4.437  0.00  0.00     0.146 A 
ATOM     17  N4  <0> d           0.176 -10.967   5.549  0.00  0.00    -0.312 N 
ATOM     18  C21 <0> d           0.187 -12.252   5.143  0.00  0.00     0.195 A 
ATOM     19  C22 <0> d           0.179 -10.507   6.940  0.00  0.00     0.160 C 
ATOM     20  N3  <0> d           0.187 -12.248   3.793  0.00  0.00    -0.251 N 
ATOM     21  S1  <0> d           0.205 -13.635   6.152  0.00  0.00    -0.039 SA
ATOM     22  N2  <0> d           0.170 -10.909   3.380  0.00  0.00    -0.157 NA
ATOM     23  H28 <0> d           0.197 -13.028   3.216  0.00  0.00     0.191 HD
ENDBRANCH  15  16
ENDBRANCH  13  15
ENDBRANCH   8  11
BRANCH   1  24
ATOM     24  C5  <0> d           0.040  -2.768  -0.013  0.00  0.00    -0.049 A 
ATOM     25  C4  <0> d           0.025  -2.071  -1.206  0.00  0.00     0.008 A 
ATOM     26  C3  <0> d           0.006  -0.689  -1.199  0.00  0.00     0.007 A 
ATOM     27  C2  <0> d           0.002  -0.004   0.002  0.00  0.00    -0.062 A 
ATOM     28  C1  <0> d          -0.018   1.503   0.010  0.00  0.00     0.048 C 
ATOM     29  C7  <0> d           0.023  -0.702   1.195  0.00  0.00     0.007 A 
ATOM     30  C6  <0> d           0.037  -2.084   1.188  0.00  0.00     0.008 A 
ENDBRANCH   1  24
TORSDOF 4
