REMARK  3 active torsions:
REMARK  status: ('A' for Active; 'I' for Inactive)
REMARK    1  A    between atoms: C3_3  and  C10_12 
REMARK    2  A    between atoms: C11_14  and  C12_17 
REMARK    3  A    between atoms: C12_17  and  N5_18 
ROOT
ATOM      1  C10 <0> d          -0.013   0.052  -2.497  0.00  0.00     0.191 A 
ATOM      2  N3  <0> d          -0.028   1.390  -2.631  0.00  0.00    -0.202 NA
ATOM      3  C11 <0> d          -0.041   1.712  -3.893  0.00  0.00     0.201 A 
ATOM      4  O1  <0> d          -0.034   0.587  -4.618  0.00  0.00    -0.194 OA
ATOM      5  N4  <0> d          -0.011  -0.488  -3.690  0.00  0.00    -0.105 NA
ENDROOT
BRANCH   1   6
ATOM      6  C3  <0> d           0.006  -0.689  -1.211  0.00  0.00     0.045 A 
ATOM      7  C2  <0> d           0.002  -0.004   0.002  0.00  0.00     0.045 A 
ATOM      8  C1  <0> d          -0.018   1.503   0.010  0.00  0.00     0.071 C 
ATOM      9  N1  <0> d           0.022  -0.664   1.142  0.00  0.00    -0.264 NA
ATOM     10  C6  <0> d           0.037  -1.982   1.184  0.00  0.00     0.126 A 
ATOM     11  C5  <0> d           0.044  -2.735   0.020  0.00  0.00    -0.008 A 
ATOM     12  C4  <0> d           0.026  -2.087  -1.196  0.00  0.00    -0.031 A 
ATOM     13  C7  <0> d           0.074  -4.236   0.115  0.00  0.00     0.272 C 
ATOM     14  C9  <0> d           0.028  -2.845  -2.496  0.00  0.00     0.068 C 
ATOM     15  C8  <0> d           0.453  -4.293  -2.247  0.00  0.00     0.237 C 
ATOM     16  N2  <0> d          -0.359  -4.840  -1.149  0.00  0.00    -0.071 N 
ATOM     17  H7  <0> d          -0.236  -5.840  -1.105  0.00  0.00     0.277 HD
ATOM     18  H24 <0> d          -1.331  -4.625  -1.310  0.00  0.00     0.277 HD
ENDBRANCH   1   6
BRANCH   3  19
ATOM     19  C12 <0> d          -0.061   3.115  -4.444  0.00  0.00     0.361 C 
BRANCH  19  20
ATOM     20  N5  <0> d           1.318   3.586  -4.633  0.00  0.00     0.102 N 
ATOM     21  C21 <0> d           1.345   5.021  -4.941  0.00  0.00     0.314 C 
ATOM     22  C20 <0> d           2.646   5.606  -4.427  0.00  0.00     0.003 A 
ATOM     23  C15 <0> d           3.836   5.248  -5.032  0.00  0.00     0.076 A 
ATOM     24  C19 <0> d           2.637   6.509  -3.384  0.00  0.00     0.012 A 
ATOM     25  O2  <0> d           3.837   4.330  -6.038  0.00  0.00    -0.349 OA
ATOM     26  C16 <0> d           5.027   5.822  -4.610  0.00  0.00     0.037 A 
ATOM     27  C14 <0> d           3.511   2.991  -5.646  0.00  0.00     0.206 C 
ATOM     28  C13 <0> d           2.012   2.784  -5.636  0.00  0.00     0.299 C 
ATOM     29  C17 <0> d           5.016   6.736  -3.573  0.00  0.00     0.003 A 
ATOM     30  C18 <0> d           3.825   7.075  -2.958  0.00  0.00     0.001 A 
ENDBRANCH  19  20
ENDBRANCH   3  19
TORSDOF 3
