REMARK  5 active torsions:
REMARK  status: ('A' for Active; 'I' for Inactive)
REMARK    1  A    between atoms: C9_9  and  O4_24 
REMARK    2  A    between atoms: N1_10  and  C11_14 
REMARK    3  A    between atoms: C11_14  and  C12_15 
REMARK    4  A    between atoms: C12_15  and  C13_16 
REMARK    5  A    between atoms: C12_15  and  O3_22 
ROOT
ATOM      1  C1  <0> d           2.738  -2.518   4.085  0.00  0.00     0.046 C 
ATOM      2  C2  <0> d           3.182  -1.127   4.550  0.00  0.00     0.122 C 
ATOM      3  C3  <0> d           2.752  -0.072   3.528  0.00  0.00     0.082 C 
ATOM      4  C4  <0> d           1.274   0.253   3.652  0.00  0.00     0.126 A 
ATOM      5  C5  <0> d           0.951   0.702   5.073  0.00  0.00     0.082 C 
ATOM      6  C6  <0> d           1.379  -0.333   6.107  0.00  0.00     0.122 C 
ATOM      7  C7  <0> d           0.354  -1.472   6.166  0.00  0.00     0.046 C 
ATOM      8  C8  <0> d           1.357   0.362   7.489  0.00  0.00     0.046 C 
ATOM      9  C9  <0> d           0.846   1.352   2.665  0.00  0.00     0.166 A 
ATOM     10  N1  <0> d          -0.197   0.707   1.847  0.00  0.00    -0.290 N 
ATOM     11  C10 <0> d          -0.348  -0.558   2.259  0.00  0.00     0.366 A 
ATOM     12  O1  <0> d          -1.139  -1.331   1.757  0.00  0.00    -0.238 OA
ATOM     13  O2  <0> d           0.455  -0.888   3.276  0.00  0.00    -0.287 OA
ATOM     14  C19 <0> d           1.994   1.824   1.775  0.00  0.00     0.074 C 
ATOM     15  C20 <0> d           4.729  -1.132   4.575  0.00  0.00     0.046 C 
ATOM     16  N2  <0> d           2.763  -0.855   5.949  0.00  0.00    -0.059 N 
ATOM     17  H30 <0> d           3.410  -0.164   6.346  0.00  0.00     0.279 HD
ATOM     18  H31 <0> d           2.833  -1.733   6.478  0.00  0.00     0.279 HD
ENDROOT
BRANCH   9  19
ATOM     19  O4  <0> d           0.286   2.465   3.373  0.00  0.00    -0.368 OA
ATOM     20  H26 <0> d          -0.067   3.159   2.799  0.00  0.00     0.212 HD
ENDBRANCH   9  19
BRANCH  10  21
ATOM     21  C11 <0> d          -0.941   1.347   0.760  0.00  0.00     0.168 C 
BRANCH  21  22
ATOM     22  C12 <0> d          -2.230   1.957   1.315  0.00  0.00     0.169 C 
BRANCH  22  23
ATOM     23  C13 <0> d          -2.930   2.729   0.226  0.00  0.00    -0.028 A 
ATOM     24  C18 <0> d          -2.728   4.091   0.106  0.00  0.00     0.010 A 
ATOM     25  C17 <0> d          -3.369   4.800  -0.893  0.00  0.00     0.001 A 
ATOM     26  C16 <0> d          -4.213   4.146  -1.771  0.00  0.00     0.000 A 
ATOM     27  C15 <0> d          -4.415   2.784  -1.651  0.00  0.00     0.001 A 
ATOM     28  C14 <0> d          -3.769   2.075  -0.655  0.00  0.00     0.010 A 
ENDBRANCH  22  23
BRANCH  22  29
ATOM     29  O3  <0> d          -3.087   0.914   1.785  0.00  0.00    -0.389 OA
ATOM     30  H22 <0> d          -3.267   0.228   1.128  0.00  0.00     0.210 HD
ENDBRANCH  22  29
ENDBRANCH  21  22
ENDBRANCH  10  21
TORSDOF 5
