REMARK  5 active torsions:
REMARK  status: ('A' for Active; 'I' for Inactive)
REMARK    1  A    between atoms: C4_4  and  N4_9 
REMARK    2  A    between atoms: C5_6  and  N3_8 
REMARK    3  A    between atoms: N4_9  and  C6_10 
REMARK    4  A    between atoms: C6_10  and  C8_12 
REMARK    5  A    between atoms: C8_12  and  N5_13 
ROOT
ATOM      1  N4  <0> d           0.030  -2.826  -2.330  0.00  0.00    -0.368 N 
ATOM      2  H10 <0> d           0.043  -3.795  -2.296  0.00  0.00     0.161 HD
ENDROOT
BRANCH   1   3
ATOM      3  C4  <0> d           0.026  -2.091  -1.156  0.00  0.00     0.144 A 
ATOM      4  C3  <0> d           0.006  -0.696  -1.194  0.00  0.00     0.076 A 
ATOM      5  C2  <0> d           0.002  -0.004   0.002  0.00  0.00     0.026 A 
ATOM      6  C1  <0> d          -0.018   1.503   0.010  0.00  0.00     0.069 C 
ATOM      7  N2  <0> d           0.022  -0.680   1.141  0.00  0.00    -0.194 N 
ATOM      8  C5  <0> d           0.035  -2.005   1.148  0.00  0.00     0.700 A 
ATOM      9  H29 <0> d           0.023  -0.198   1.983  0.00  0.00     0.184 HD
ATOM     10  N1  <0> d           0.040  -2.705   0.023  0.00  0.00    -0.048 NA
BRANCH   8  11
ATOM     11  N3  <0> d           0.051  -2.674   2.359  0.00  0.00    -0.233 N 
ATOM     12  H8  <0> d           0.064  -3.643   2.377  0.00  0.00     0.174 HD
ATOM     13  H9  <0> d           0.048  -2.173   3.190  0.00  0.00     0.174 HD
ENDBRANCH   8  11
ENDBRANCH   1   3
BRANCH   1  14
ATOM     14  C6  <0> d           0.013  -2.139  -3.624  0.00  0.00     0.105 C 
ATOM     15  C7  <0> d          -1.430  -1.809  -4.008  0.00  0.00     0.034 C 
BRANCH  14  16
ATOM     16  C8  <0> d           0.630  -3.046  -4.691  0.00  0.00     0.259 C 
BRANCH  16  17
ATOM     17  N5  <0> d           1.974  -3.460  -4.264  0.00  0.00    -0.069 N 
ATOM     18  C13 <0> d           2.516  -4.424  -5.229  0.00  0.00     0.239 C 
ATOM     19  C12 <0> d           3.881  -4.920  -4.748  0.00  0.00     0.008 C 
ATOM     20  C11 <0> d           4.836  -3.729  -4.622  0.00  0.00     0.011 C 
ATOM     21  C14 <0> d           4.446  -5.923  -5.756  0.00  0.00     0.011 C 
ATOM     22  C10 <0> d           4.225  -2.696  -3.670  0.00  0.00     0.008 C 
ATOM     23  C9  <0> d           2.847  -2.283  -4.192  0.00  0.00     0.239 C 
ATOM     24  C15 <0> d           5.133  -1.468  -3.597  0.00  0.00     0.011 C 
ATOM     25  H28 <0> d           1.918  -3.892  -3.354  0.00  0.00     0.280 HD
ENDBRANCH  16  17
ENDBRANCH  14  16
ENDBRANCH   1  14
TORSDOF 5
