REMARK  6 active torsions:
REMARK  status: ('A' for Active; 'I' for Inactive)
REMARK    1  A    between atoms: C2_2  and  N1_12 
REMARK       I    between atoms: N1_12  and  C9_13 
REMARK    2  A    between atoms: C9_13  and  C10_15 
REMARK    3  A    between atoms: C10_15  and  S1_16 
REMARK    4  A    between atoms: S1_16  and  C11_17 
REMARK    5  A    between atoms: C12_19  and  C14_22 
REMARK    6  A    between atoms: C14_22  and  C15_23 
ROOT
ATOM      1  N1  <0> d          -0.288   1.272  -2.443  0.00  0.00    -0.325 N 
ATOM      2  C9  <0> d          -0.739   1.590  -1.213  0.00  0.00     0.231 C 
ATOM      3  O3  <0> d          -1.735   2.271  -1.089  0.00  0.00    -0.272 OA
ATOM      4  H7  <0> d           0.544   0.784  -2.544  0.00  0.00     0.169 HD
ENDROOT
BRANCH   1   5
ATOM      5  C2  <0> d          -1.023   1.647  -3.576  0.00  0.00     0.059 A 
ATOM      6  C1  <0> d          -1.723   2.845  -3.586  0.00  0.00     0.071 A 
ATOM      7  C6  <0> d          -2.449   3.216  -4.707  0.00  0.00     0.104 A 
ATOM      8  C5  <0> d          -2.473   2.387  -5.822  0.00  0.00     0.103 A 
ATOM      9  O1  <0> d          -3.133   4.393  -4.698  0.00  0.00    -0.346 OA
ATOM     10  C4  <0> d          -1.774   1.190  -5.810  0.00  0.00     0.065 A 
ATOM     11  O2  <0> d          -3.177   2.737  -6.934  0.00  0.00    -0.346 OA
ATOM     12  C3  <0> d          -1.046   0.822  -4.694  0.00  0.00     0.063 A 
ATOM     13 Cl1  <0> d          -0.165  -0.674  -4.686  0.00  0.00    -0.082 Cl
ATOM     14  C8  <0> d          -4.167   3.759  -6.774  0.00  0.00     0.202 C 
ATOM     15  C7  <0> d          -3.545   4.908  -5.969  0.00  0.00     0.202 C 
ENDBRANCH   1   5
BRANCH   2  16
ATOM     16  C10 <0> d          -0.003   1.101   0.008  0.00  0.00     0.184 C 
BRANCH  16  17
ATOM     17  S1  <0> d          -0.848   1.690   1.497  0.00  0.00    -0.094 SA
BRANCH  17  18
ATOM     18  C11 <0> d           0.194   0.992   2.735  0.00  0.00     0.135 A 
ATOM     19  S2  <0> d           1.619   0.020   2.541  0.00  0.00    -0.073 SA
ATOM     20  C13 <0> d           1.982  -0.210   4.276  0.00  0.00     0.080 A 
ATOM     21  C12 <0> d           0.967   0.486   4.840  0.00  0.00     0.053 A 
ATOM     22  N2  <0> d           0.093   1.080   4.049  0.00  0.00    -0.238 NA
BRANCH  21  23
ATOM     23  C14 <0> d           0.840   0.586   6.339  0.00  0.00     0.173 C 
BRANCH  23  24
ATOM     24  C15 <0> d           0.783   2.036   6.743  0.00  0.00     0.178 C 
ATOM     25  O4  <0> d           0.839   2.901   5.901  0.00  0.00    -0.648 OA
ATOM     26  O5  <0> d           0.670   2.368   8.039  0.00  0.00    -0.648 OA
ENDBRANCH  23  24
ENDBRANCH  21  23
ENDBRANCH  17  18
ENDBRANCH  16  17
ENDBRANCH   2  16
TORSDOF 6
