REMARK  3 active torsions:
REMARK  status: ('A' for Active; 'I' for Inactive)
REMARK    1  A    between atoms: C2_2  and  C3_3 
REMARK    2  A    between atoms: C2_2  and  N1_13 
REMARK    3  A    between atoms: C11_14  and  N3_19 
ROOT
ATOM      1  C1  <0> d          -0.019   1.526   0.010  0.00  0.00     0.040 C 
ATOM      2  C2  <0> d           0.002  -0.004   0.002  0.00  0.00     0.141 C 
ENDROOT
BRANCH   2   3
ATOM      3  C3  <0> d           0.731  -0.503   1.223  0.00  0.00    -0.031 A 
ATOM      4  C8  <0> d           0.078  -1.312   2.134  0.00  0.00     0.049 A 
ATOM      5  C7  <0> d           0.748  -1.777   3.256  0.00  0.00     0.102 A 
ATOM      6  C6  <0> d           2.075  -1.421   3.465  0.00  0.00     0.102 A 
ATOM      7  O1  <0> d           0.091  -2.571   4.144  0.00  0.00    -0.346 OA
ATOM      8  C5  <0> d           2.722  -0.604   2.550  0.00  0.00     0.040 A 
ATOM      9  O2  <0> d           2.751  -1.867   4.559  0.00  0.00    -0.346 OA
ATOM     10  C4  <0> d           2.050  -0.147   1.433  0.00  0.00     0.012 A 
ATOM     11  C10 <0> d           1.962  -2.372   5.642  0.00  0.00     0.202 C 
ATOM     12  C9  <0> d           0.899  -3.316   5.062  0.00  0.00     0.202 C 
ENDBRANCH   2   3
BRANCH   2  13
ATOM     13  N1  <0> d           0.688  -0.476  -1.203  0.00  0.00    -0.244 N 
ATOM     14  N2  <0> d           2.013  -0.198  -1.562  0.00  0.00    -0.181 NA
ATOM     15  C13 <0> d           2.268  -0.794  -2.698  0.00  0.00     0.162 A 
ATOM     16  C12 <0> d           1.116  -1.467  -3.113  0.00  0.00     0.075 A 
ATOM     17  C11 <0> d           0.150  -1.258  -2.175  0.00  0.00     0.137 A 
ATOM     18 Br1  <0> d           0.930  -2.486  -4.695  0.00  0.00    -0.045 Br
BRANCH  17  19
ATOM     19  N3  <0> d          -1.150  -1.756  -2.207  0.00  0.00    -0.383 N 
ATOM     20  H13 <0> d          -1.766  -1.550  -1.486  0.00  0.00     0.157 HD
ATOM     21  H14 <0> d          -1.440  -2.309  -2.950  0.00  0.00     0.157 HD
ENDBRANCH  17  19
ENDBRANCH   2  13
TORSDOF 3
