REMARK  2 active torsions:
REMARK  status: ('A' for Active; 'I' for Inactive)
REMARK    1  A    between atoms: O1_2  and  P1_3 
REMARK    2  A    between atoms: C5_10  and  O4_19 
ROOT
ATOM      1  P1  <0> d           0.678  -0.865  -1.179  0.00  0.00     0.444 P 
ATOM      2  O2  <0> d           0.329  -0.290  -2.497  0.00  0.00    -0.233 OA
ATOM      3  N1  <0> d           2.316  -0.913  -0.986  0.00  0.00    -0.255 N 
ATOM      4  N2  <0> d           3.006  -1.931  -1.613  0.00  0.00    -0.219 NA
ATOM      5  C2  <0> d           4.423  -1.798  -1.231  0.00  0.00     0.123 C 
ATOM      6  C3  <0> d           5.276  -2.859  -1.910  0.00  0.00     0.033 C 
ATOM      7  C4  <0> d           5.217  -2.712  -3.407  0.00  0.00     0.017 C 
ATOM      8  C5  <0> d           5.513  -3.760  -4.181  0.00  0.00     0.078 C 
ATOM      9  C6  <0> d           5.903  -5.037  -3.551  0.00  0.00     0.035 C 
ATOM     10  C7  <0> d           5.558  -5.286  -2.292  0.00  0.00    -0.001 C 
ATOM     11  C8  <0> d           4.763  -4.252  -1.532  0.00  0.00     0.020 C 
ATOM     12  C9  <0> d           3.290  -4.354  -1.929  0.00  0.00     0.033 C 
ATOM     13  C10 <0> d           2.471  -3.248  -1.253  0.00  0.00     0.104 C 
ATOM     14  C11 <0> d           1.020  -3.412  -1.722  0.00  0.00     0.201 C 
ATOM     15  O3  <0> d           0.193  -2.416  -1.094  0.00  0.00    -0.296 OA
ATOM     16  I1  <0> d           6.997  -6.455  -4.640  0.00  0.00    -0.042 I 
ATOM     17  H7  <0> d           2.778  -0.248  -0.452  0.00  0.00     0.186 HD
ENDROOT
BRANCH   1  18
ATOM     18  O1  <0> d           0.002  -0.004   0.002  0.00  0.00    -0.302 OA
ATOM     19  C1  <0> d          -0.017   1.425   0.010  0.00  0.00     0.214 C 
ENDBRANCH   1  18
BRANCH   8  20
ATOM     20  O4  <0> d           5.454  -3.652  -5.534  0.00  0.00    -0.360 OA
ATOM     21  H16 <0> d           5.686  -4.465  -6.004  0.00  0.00     0.217 HD
ENDBRANCH   8  20
TORSDOF 2
