REMARK  5 active torsions:
REMARK  status: ('A' for Active; 'I' for Inactive)
REMARK    1  A    between atoms: C9_11  and  C10_12 
REMARK    2  A    between atoms: C10_12  and  C11_13 
REMARK    3  A    between atoms: C11_13  and  N2_14 
REMARK       I    between atoms: N2_14  and  C12_15 
REMARK    4  A    between atoms: C12_15  and  C13_17 
REMARK       I    between atoms: N3_19  and  C21_27 
REMARK    5  A    between atoms: C21_27  and  C22_29 
ROOT
ATOM      1  C13 <0> d           2.682  -8.419   3.948  0.00  0.00     0.106 C 
ATOM      2  C14 <0> d           2.247  -8.264   5.422  0.00  0.00     0.141 C 
ATOM      3  N3  <0> d           3.149  -9.167   6.176  0.00  0.00    -0.346 N 
ATOM      4  C15 <0> d           4.468  -9.003   5.518  0.00  0.00     0.136 C 
ATOM      5  C16 <0> d           4.140  -8.903   4.015  0.00  0.00    -0.007 C 
ATOM      6  C17 <0> d           4.273 -10.272   3.354  0.00  0.00     0.039 C 
ATOM      7  C18 <0> d           5.741 -10.707   3.383  0.00  0.00     0.233 C 
ATOM      8  N4  <0> d           6.561  -9.716   2.674  0.00  0.00    -0.075 N 
ATOM      9  C19 <0> d           6.500  -8.425   3.369  0.00  0.00     0.233 C 
ATOM     10  C20 <0> d           5.064  -7.894   3.340  0.00  0.00     0.039 C 
ATOM     11  C21 <0> d           2.840  -9.958   7.222  0.00  0.00     0.255 C 
ATOM     12  O2  <0> d           3.717 -10.575   7.797  0.00  0.00    -0.267 OA
ATOM     13  H23 <0> d           7.518 -10.035   2.641  0.00  0.00     0.277 HD
ATOM     14  H33 <0> d           6.213  -9.607   1.733  0.00  0.00     0.277 HD
ENDROOT
BRANCH   1  15
ATOM     15  C12 <0> d           2.602  -7.093   3.235  0.00  0.00     0.224 C 
ATOM     16  N2  <0> d           2.362  -7.055   1.909  0.00  0.00    -0.360 N 
ATOM     17  H14 <0> d           2.240  -7.880   1.414  0.00  0.00     0.162 HD
ATOM     18  O1  <0> d           2.753  -6.062   3.854  0.00  0.00    -0.273 OA
BRANCH  16  19
ATOM     19  C11 <0> d           2.283  -5.766   1.217  0.00  0.00     0.127 C 
BRANCH  19  20
ATOM     20  C10 <0> d           2.004  -6.002  -0.269  0.00  0.00     0.060 C 
BRANCH  20  21
ATOM     21  C9  <0> d           1.924  -4.676  -0.982  0.00  0.00    -0.029 A 
ATOM     22  C6  <0> d           3.049  -3.905  -1.515  0.00  0.00    -0.001 A 
ATOM     23  C5  <0> d           4.430  -4.100  -1.549  0.00  0.00     0.014 A 
ATOM     24  C7  <0> d           2.489  -2.745  -2.084  0.00  0.00     0.049 A 
ATOM     25  C4  <0> d           5.234  -3.164  -2.139  0.00  0.00     0.002 A 
ATOM     26  C3  <0> d           4.686  -2.022  -2.705  0.00  0.00     0.009 A 
ATOM     27  C2  <0> d           3.325  -1.809  -2.683  0.00  0.00    -0.034 A 
ATOM     28  C1  <0> d           2.745  -0.564  -3.302  0.00  0.00     0.050 C 
ATOM     29  N1  <0> d           1.127  -2.819  -1.900  0.00  0.00    -0.364 N 
ATOM     30  H1  <0> d           0.487  -2.153  -2.196  0.00  0.00     0.165 HD
ATOM     31  C8  <0> d           0.809  -3.973  -1.236  0.00  0.00     0.096 A 
ENDBRANCH  20  21
ENDBRANCH  19  20
ENDBRANCH  16  19
ENDBRANCH   1  15
BRANCH  11  32
ATOM     32  C22 <0> d           1.446 -10.075   7.668  0.00  0.00     0.050 A 
ATOM     33  C25 <0> d           0.927 -11.338   8.198  0.00  0.00    -0.003 A 
ATOM     34  C24 <0> d          -0.427 -11.252   8.577  0.00  0.00     0.016 A 
ATOM     35  C26 <0> d           1.570 -12.577   8.379  0.00  0.00     0.014 A 
ATOM     36  S1  <0> d          -0.865  -9.578   8.197  0.00  0.00    -0.100 SA
ATOM     37  C29 <0> d          -1.104 -12.330   9.105  0.00  0.00     0.019 A 
ATOM     38  C23 <0> d           0.597  -9.017   7.596  0.00  0.00     0.068 A 
ATOM     39  C28 <0> d          -0.450 -13.537   9.260  0.00  0.00     0.001 A 
ATOM     40  C27 <0> d           0.885 -13.646   8.899  0.00  0.00     0.001 A 
ENDBRANCH  11  32
TORSDOF 5
