REMARK  3 active torsions:
REMARK  status: ('A' for Active; 'I' for Inactive)
REMARK    1  A    between atoms: C7_9  and  C10_12 
REMARK       I    between atoms: C10_12  and  N2_14 
REMARK    2  A    between atoms: N2_14  and  C11_15 
REMARK    3  A    between atoms: C14_18  and  N4_21 
ROOT
ATOM      1  C10 <0> d           0.067  -1.528   4.877  0.00  0.00     0.256 C 
ATOM      2  O1  <0> d           0.060  -0.396   5.321  0.00  0.00    -0.267 OA
ATOM      3  N2  <0> d           0.089  -2.581   5.718  0.00  0.00    -0.322 N 
ATOM      4  H8  <0> d           0.026  -3.483   5.367  0.00  0.00     0.169 HD
ENDROOT
BRANCH   1   5
ATOM      5  C7  <0> d           0.049  -1.749   3.417  0.00  0.00     0.033 A 
ATOM      6  C6  <0> d           0.025  -0.661   2.549  0.00  0.00     0.031 A 
ATOM      7  C5  <0> d           0.010  -0.883   1.175  0.00  0.00    -0.001 A 
ATOM      8  C2  <0> d          -0.016  -0.004   0.002  0.00  0.00    -0.027 A 
ATOM      9  C4  <0> d           0.015  -2.200   0.674  0.00  0.00     0.043 A 
ATOM     10  C1  <0> d          -0.033   1.503   0.011  0.00  0.00     0.051 C 
ATOM     11  C3  <0> d          -0.016  -0.797  -1.080  0.00  0.00     0.012 A 
ATOM     12  N1  <0> d           0.002  -2.111  -0.697  0.00  0.00    -0.359 N 
ATOM     13  C20 <0> d          -0.035  -0.312  -2.507  0.00  0.00     0.068 C 
ATOM     14  H1  <0> d           0.006  -2.867  -1.304  0.00  0.00     0.166 HD
ATOM     15  C9  <0> d           0.034  -3.274   1.561  0.00  0.00     0.031 A 
ATOM     16  C8  <0> d           0.057  -3.054   2.906  0.00  0.00     0.019 A 
ENDBRANCH   1   5
BRANCH   3  17
ATOM     17  C11 <0> d           0.205  -2.373   7.097  0.00  0.00     0.052 A 
ATOM     18  C15 <0> d           0.918  -3.265   7.885  0.00  0.00     0.148 A 
ATOM     19  N3  <0> d           1.036  -3.072   9.184  0.00  0.00    -0.241 NA
ATOM     20  C14 <0> d           0.475  -2.037   9.787  0.00  0.00     0.135 A 
ATOM     21  C13 <0> d          -0.259  -1.105   9.064  0.00  0.00     0.053 A 
ATOM     22  C12 <0> d          -0.400  -1.270   7.698  0.00  0.00     0.035 A 
BRANCH  20  23
ATOM     23  N4  <0> d           0.624  -1.878  11.169  0.00  0.00    -0.293 N 
ATOM     24  C18 <0> d           1.308  -2.700  12.008  0.00  0.00     0.107 A 
ATOM     25  N5  <0> d           1.223  -2.221  13.219  0.00  0.00    -0.246 NA
ATOM     26  C19 <0> d           2.045  -3.952  11.606  0.00  0.00     0.091 C 
ATOM     27  C17 <0> d           0.486  -1.101  13.204  0.00  0.00     0.136 A 
ATOM     28  C16 <0> d           0.102  -0.867  11.935  0.00  0.00     0.119 A 
ENDBRANCH  20  23
ENDBRANCH   3  17
TORSDOF 3
