REMARK  4 active torsions:
REMARK  status: ('A' for Active; 'I' for Inactive)
REMARK    1  A    between atoms: C6_6  and  C11_15 
REMARK    2  A    between atoms: N1_10  and  S1_11 
REMARK       I    between atoms: C11_15  and  N2_17 
REMARK    3  A    between atoms: N2_17  and  C12_18 
REMARK    4  A    between atoms: C15_21  and  N4_24 
ROOT
ATOM      1  C11 <0> d           2.498  -2.665  -0.138  0.00  0.00     0.256 C 
ATOM      2  O3  <0> d           3.522  -2.010  -0.144  0.00  0.00    -0.267 OA
ATOM      3  N2  <0> d           1.305  -2.049  -0.022  0.00  0.00    -0.322 N 
ATOM      4  H13 <0> d           0.385  -2.645   0.071  0.00  0.00     0.169 HD
ENDROOT
BRANCH   1   5
ATOM      5  C6  <0> d           2.561  -4.134  -0.258  0.00  0.00     0.033 A 
ATOM      6  C5  <0> d           3.795  -4.777  -0.385  0.00  0.00     0.026 A 
ATOM      7  C4  <0> d           3.849  -6.149  -0.493  0.00  0.00    -0.028 A 
ATOM      8  C3  <0> d           5.028  -7.085  -0.635  0.00  0.00     0.067 A 
ATOM      9  C9  <0> d           2.684  -6.906  -0.486  0.00  0.00     0.051 A 
ATOM     10  C2  <0> d           4.399  -8.486  -0.710  0.00  0.00     0.102 A 
ATOM     11  C1  <0> d           4.742  -9.151  -2.045  0.00  0.00     0.034 C 
ATOM     12  N1  <0> d           2.954  -8.264  -0.610  0.00  0.00    -0.271 N 
ATOM     13  C8  <0> d           1.448  -6.259  -0.364  0.00  0.00     0.032 A 
ATOM     14  C7  <0> d           1.386  -4.892  -0.252  0.00  0.00     0.019 A 
BRANCH  12  15
ATOM     15  S1  <0> d           1.808  -9.459  -0.639  0.00  0.00     0.229 S 
ATOM     16  O1  <0> d           2.480 -10.617  -0.164  0.00  0.00    -0.206 OA
ATOM     17  O2  <0> d           0.703  -8.919   0.073  0.00  0.00    -0.206 OA
ATOM     18  C10 <0> d           1.386  -9.657  -2.392  0.00  0.00     0.186 C 
ENDBRANCH  12  15
ENDBRANCH   1   5
BRANCH   3  19
ATOM     19  C12 <0> d           1.236  -0.651  -0.019  0.00  0.00     0.052 A 
ATOM     20  C16 <0> d           0.265   0.004   0.726  0.00  0.00     0.148 A 
ATOM     21  N3  <0> d           0.196   1.321   0.733  0.00  0.00    -0.241 NA
ATOM     22  C15 <0> d           1.039   2.066   0.038  0.00  0.00     0.134 A 
ATOM     23  C14 <0> d           2.038   1.481  -0.731  0.00  0.00     0.053 A 
ATOM     24  C13 <0> d           2.143   0.102  -0.764  0.00  0.00     0.035 A 
BRANCH  22  25
ATOM     25  N4  <0> d           0.925   3.460   0.079  0.00  0.00    -0.300 N 
ATOM     26  C19 <0> d           1.715   4.354  -0.571  0.00  0.00     0.215 A 
ATOM     27  N5  <0> d           1.297   5.558  -0.291  0.00  0.00    -0.254 NA
ATOM     28  C18 <0> d           0.248   5.482   0.541  0.00  0.00     0.135 A 
ATOM     29  C17 <0> d          -0.002   4.182   0.786  0.00  0.00     0.118 A 
ENDBRANCH  22  25
ENDBRANCH   3  19
TORSDOF 4
