REMARK  5 active torsions:
REMARK  status: ('A' for Active; 'I' for Inactive)
REMARK    1  A    between atoms: C2_2  and  C3_3 
REMARK    2  A    between atoms: C2_2  and  N3_9 
REMARK    3  A    between atoms: C3_3  and  N1_4 
REMARK       I    between atoms: N3_9  and  C7_10 
REMARK    4  A    between atoms: C7_10  and  C8_12 
REMARK    5  A    between atoms: C12_16  and  O2_18 
ROOT
ATOM      1  C8  <0> d           0.697  -1.084  -3.573  0.00  0.00     0.037 A 
ATOM      2  C9  <0> d          -0.006  -1.216  -4.772  0.00  0.00     0.057 A 
ATOM      3  C10 <0> d           0.642  -1.661  -5.911  0.00  0.00     0.105 A 
ATOM      4  C11 <0> d           1.996  -1.977  -5.862  0.00  0.00     0.135 A 
ATOM      5  C12 <0> d           2.699  -1.848  -4.665  0.00  0.00     0.105 A 
ATOM      6  C13 <0> d           2.057  -1.399  -3.527  0.00  0.00     0.057 A 
ATOM      7  O3  <0> d           2.650  -2.409  -6.974  0.00  0.00    -0.344 OA
ATOM      8  C15 <0> d           1.840  -2.881  -8.055  0.00  0.00     0.202 C 
ATOM      9  C16 <0> d           0.703  -1.876  -8.278  0.00  0.00     0.202 C 
ATOM     10  O4  <0> d          -0.060  -1.787  -7.070  0.00  0.00    -0.346 OA
ENDROOT
BRANCH   1  11
ATOM     11  C7  <0> d           0.006  -0.608  -2.358  0.00  0.00     0.252 C 
ATOM     12  N3  <0> d           0.688  -0.476  -1.203  0.00  0.00    -0.351 N 
ATOM     13  H10 <0> d           1.632  -0.695  -1.170  0.00  0.00     0.163 HD
ATOM     14  O1  <0> d          -1.178  -0.335  -2.400  0.00  0.00    -0.268 OA
BRANCH  12  15
ATOM     15  C2  <0> d           0.002  -0.004   0.002  0.00  0.00     0.100 C 
ATOM     16  C1  <0> d          -0.019   1.526   0.010  0.00  0.00     0.034 C 
BRANCH  15  17
ATOM     17  C3  <0> d           0.742  -0.511   1.242  0.00  0.00     0.175 C 
BRANCH  17  18
ATOM     18  N1  <0> d           0.659  -1.972   1.296  0.00  0.00    -0.279 N 
ATOM     19  N2  <0> d          -0.517  -2.733   1.271  0.00  0.00    -0.185 NA
ATOM     20  C6  <0> d          -0.188  -3.998   1.333  0.00  0.00     0.140 A 
ATOM     21  C5  <0> d           1.206  -4.083   1.410  0.00  0.00     0.040 A 
ATOM     22  C4  <0> d           1.702  -2.824   1.385  0.00  0.00     0.113 A 
ENDBRANCH  17  18
ENDBRANCH  15  17
ENDBRANCH  12  15
ENDBRANCH   1  11
BRANCH   5  23
ATOM     23  O2  <0> d           4.022  -2.160  -4.619  0.00  0.00    -0.353 OA
ATOM     24  C14 <0> d           4.682  -2.005  -3.361  0.00  0.00     0.210 C 
ENDBRANCH   5  23
TORSDOF 5
