REMARK  3 active torsions:
REMARK  status: ('A' for Active; 'I' for Inactive)
REMARK    1  A    between atoms: C5_7  and  C8_13 
REMARK    2  A    between atoms: C7_10  and  O1_12 
REMARK    3  A    between atoms: C12_17  and  O2_19 
ROOT
ATOM      1  C1  <0> d          -0.018   1.461   0.010  0.00  0.00     0.182 C 
ATOM      2  N1  <0> d           0.002  -0.004   0.002  0.00  0.00    -0.256 N 
ATOM      3  C2  <0> d           0.008  -0.807  -1.120  0.00  0.00     0.157 A 
ATOM      4  C3  <0> d           0.019  -2.101  -0.674  0.00  0.00     0.027 A 
ATOM      5  C4  <0> d           0.029  -2.070   0.732  0.00  0.00     0.151 A 
ATOM      6  N2  <0> d           0.024  -0.828   1.127  0.00  0.00    -0.183 NA
ATOM      7  C5  <0> d           0.014  -3.384  -1.450  0.00  0.00     0.119 C 
ATOM      8  S1  <0> d           0.904  -3.258  -3.006  0.00  0.00    -0.146 SA
ATOM      9  C6  <0> d          -0.041  -2.114  -4.021  0.00  0.00     0.161 C 
ATOM     10  C7  <0> d           0.013  -0.721  -3.530  0.00  0.00     0.149 C 
ATOM     11  N3  <0> d           0.009  -0.282  -2.357  0.00  0.00    -0.208 NA
ENDROOT
BRANCH   7  12
ATOM     12  C8  <0> d           0.652  -4.462  -0.613  0.00  0.00    -0.034 A 
ATOM     13  C13 <0> d           1.960  -4.321  -0.189  0.00  0.00     0.048 A 
ATOM     14  C12 <0> d           2.549  -5.310   0.586  0.00  0.00     0.104 A 
ATOM     15  C11 <0> d           1.826  -6.448   0.926  0.00  0.00     0.135 A 
ATOM     16  C10 <0> d           0.514  -6.587   0.495  0.00  0.00     0.105 A 
ATOM     17  O3  <0> d           2.420  -7.417   1.677  0.00  0.00    -0.344 OA
ATOM     18  C9  <0> d          -0.070  -5.591  -0.276  0.00  0.00     0.048 A 
ATOM     19  O4  <0> d          -0.214  -7.690   0.821  0.00  0.00    -0.346 OA
ATOM     20  C16 <0> d           0.519  -8.834   1.274  0.00  0.00     0.202 C 
ATOM     21  C15 <0> d           1.551  -8.365   2.308  0.00  0.00     0.202 C 
BRANCH  14  22
ATOM     22  O2  <0> d           3.834  -5.168   1.008  0.00  0.00    -0.353 OA
ATOM     23  C14 <0> d           4.516  -3.974   0.621  0.00  0.00     0.210 C 
ENDBRANCH  14  22
ENDBRANCH   7  12
BRANCH  10  24
ATOM     24  O1  <0> d           0.074   0.222  -4.492  0.00  0.00    -0.347 OA
ATOM     25  H8  <0> d           0.108   1.127  -4.154  0.00  0.00     0.219 HD
ENDBRANCH  10  24
TORSDOF 3
