REMARK  6 active torsions:
REMARK  status: ('A' for Active; 'I' for Inactive)
REMARK    1  A    between atoms: O1_2  and  C2_3 
REMARK    2  A    between atoms: C4_5  and  C9_12 
REMARK    3  A    between atoms: C7_8  and  O2_9 
REMARK    4  A    between atoms: C9_12  and  N1_13 
REMARK    5  A    between atoms: N1_13  and  C10_14 
REMARK    6  A    between atoms: C10_14  and  C11_15 
ROOT
ATOM      1  C2  <0> d           0.606  -0.608  -1.057  0.00  0.00     0.102 A 
ATOM      2  C3  <0> d           1.173   0.159  -2.062  0.00  0.00     0.049 A 
ATOM      3  C4  <0> d           1.787  -0.456  -3.138  0.00  0.00    -0.013 A 
ATOM      4  C5  <0> d           1.837  -1.836  -3.213  0.00  0.00     0.021 A 
ATOM      5  C6  <0> d           1.273  -2.607  -2.212  0.00  0.00     0.059 A 
ATOM      6  C7  <0> d           0.662  -1.996  -1.129  0.00  0.00     0.102 A 
ATOM      7 Br1  <0> d           2.678  -2.671  -4.686  0.00  0.00    -0.050 Br
ENDROOT
BRANCH   3   8
ATOM      8  C9  <0> d           2.402   0.380  -4.231  0.00  0.00     0.272 C 
BRANCH   8   9
ATOM      9  N1  <0> d           3.865   0.360  -4.098  0.00  0.00    -0.067 N 
ATOM     10  H11 <0> d           4.126   0.737  -3.199  0.00  0.00     0.277 HD
ATOM     11  H18 <0> d           4.196  -0.590  -4.173  0.00  0.00     0.277 HD
BRANCH   9  12
ATOM     12  C10 <0> d           4.464   1.175  -5.163  0.00  0.00     0.272 C 
BRANCH  12  13
ATOM     13  C11 <0> d           5.965   1.154  -5.027  0.00  0.00    -0.015 A 
ATOM     14  C15 <0> d           6.713   0.185  -5.668  0.00  0.00     0.124 A 
ATOM     15  N2  <0> d           8.027   0.164  -5.559  0.00  0.00    -0.273 NA
ATOM     16  C14 <0> d           8.676   1.051  -4.830  0.00  0.00     0.116 A 
ATOM     17  C13 <0> d           7.994   2.046  -4.155  0.00  0.00     0.020 A 
ATOM     18  C12 <0> d           6.612   2.104  -4.251  0.00  0.00     0.012 A 
ENDBRANCH  12  13
ENDBRANCH   9  12
ENDBRANCH   8   9
ENDBRANCH   3   8
BRANCH   1  19
ATOM     19  O1  <0> d           0.002  -0.004   0.002  0.00  0.00    -0.353 OA
ATOM     20  C1  <0> d          -0.017   1.425   0.010  0.00  0.00     0.210 C 
ENDBRANCH   1  19
BRANCH   6  21
ATOM     21  O2  <0> d           0.112  -2.752  -0.141  0.00  0.00    -0.353 OA
ATOM     22  C8  <0> d           0.207  -4.171  -0.282  0.00  0.00     0.210 C 
ENDBRANCH   6  21
TORSDOF 6
