REMARK  8 active torsions:
REMARK  status: ('A' for Active; 'I' for Inactive)
REMARK    1  A    between atoms: C6_6  and  O1_8 
REMARK    2  A    between atoms: O1_8  and  C8_9 
REMARK    3  A    between atoms: C8_9  and  C9_10 
REMARK    4  A    between atoms: C9_10  and  C10_11 
REMARK    5  A    between atoms: C9_10  and  O4_23 
REMARK    6  A    between atoms: C10_11  and  N1_12 
REMARK       I    between atoms: N1_12  and  C11_13 
REMARK    7  A    between atoms: C11_13  and  C12_15 
REMARK    8  A    between atoms: C17_20  and  O3_21 
ROOT
ATOM      1  C10 <0> d           0.228  -6.317   3.594  0.00  0.00     0.156 C 
ENDROOT
BRANCH   1   2
ATOM      2  C9  <0> d           0.083  -4.796   3.683  0.00  0.00     0.160 C 
BRANCH   2   3
ATOM      3  C8  <0> d           0.069  -4.202   2.274  0.00  0.00     0.209 C 
BRANCH   3   4
ATOM      4  O1  <0> d           0.050  -2.776   2.358  0.00  0.00    -0.349 OA
BRANCH   4   5
ATOM      5  C6  <0> d           0.035  -2.088   1.186  0.00  0.00     0.069 A 
ATOM      6  C5  <0> d           0.039  -2.772  -0.020  0.00  0.00     0.037 A 
ATOM      7  C4  <0> d           0.024  -2.071  -1.211  0.00  0.00     0.003 A 
ATOM      8  C3  <0> d           0.006  -0.688  -1.200  0.00  0.00     0.007 A 
ATOM      9  C2  <0> d           0.002  -0.004   0.002  0.00  0.00    -0.059 A 
ATOM     10  C1  <0> d          -0.018   1.503   0.010  0.00  0.00     0.048 C 
ATOM     11  C7  <0> d           0.023  -0.700   1.195  0.00  0.00     0.043 A 
ENDBRANCH   4   5
ENDBRANCH   3   4
ENDBRANCH   2   3
BRANCH   2  12
ATOM     12  O4  <0> d          -1.140  -4.473   4.349  0.00  0.00    -0.392 OA
ATOM     13  H21 <0> d          -1.930  -4.810   3.905  0.00  0.00     0.210 HD
ENDBRANCH   2  12
ENDBRANCH   1   2
BRANCH   1  14
ATOM     14  N1  <0> d           0.242  -6.886   4.944  0.00  0.00    -0.354 N 
ATOM     15  C11 <0> d           0.362  -8.218   5.113  0.00  0.00     0.254 C 
ATOM     16  O2  <0> d           0.459  -8.947   4.144  0.00  0.00    -0.268 OA
ATOM     17  H13 <0> d           0.165  -6.304   5.717  0.00  0.00     0.162 HD
BRANCH  15  18
ATOM     18  C12 <0> d           0.376  -8.791   6.472  0.00  0.00     0.065 A 
ATOM     19  C17 <0> d           0.501 -10.175   6.652  0.00  0.00     0.081 A 
ATOM     20  C16 <0> d           0.517 -10.703   7.935  0.00  0.00     0.038 A 
ATOM     21  C15 <0> d           0.401  -9.868   9.028  0.00  0.00     0.009 A 
ATOM     22  C14 <0> d           0.272  -8.499   8.854  0.00  0.00    -0.061 A 
ATOM     23  C13 <0> d           0.259  -7.958   7.587  0.00  0.00     0.026 A 
ATOM     24  C18 <0> d           0.146  -7.599  10.056  0.00  0.00     0.048 C 
BRANCH  19  25
ATOM     25  O3  <0> d           0.610 -10.995   5.577  0.00  0.00    -0.360 OA
ATOM     26  H17 <0> d           1.521 -11.150   5.291  0.00  0.00     0.217 HD
ENDBRANCH  19  25
ENDBRANCH  15  18
ENDBRANCH   1  14
TORSDOF 8
