REMARK  7 active torsions:
REMARK  status: ('A' for Active; 'I' for Inactive)
REMARK    1  A    between atoms: C2_2  and  C3_3 
REMARK    2  A    between atoms: C3_3  and  N1_4 
REMARK    3  A    between atoms: N1_4  and  C4_5 
REMARK    4  A    between atoms: C4_5  and  C6_7 
REMARK    5  A    between atoms: C4_5  and  C13_16 
REMARK    6  A    between atoms: C6_7  and  S1_8 
REMARK    7  A    between atoms: S1_8  and  C7_9 
ROOT
ATOM      1  C4  <0> d           1.436  -2.366   2.480  0.00  0.00     0.217 C 
ATOM      2  C5  <0> d           0.683  -2.035   3.770  0.00  0.00     0.059 C 
ENDROOT
BRANCH   1   3
ATOM      3  N1  <0> d           0.693  -1.835   1.330  0.00  0.00    -0.056 N 
ATOM      4  H8  <0> d           1.166  -2.092   0.476  0.00  0.00     0.278 HD
ATOM      5  H18 <0> d           0.643  -0.830   1.396  0.00  0.00     0.278 HD
BRANCH   3   6
ATOM      6  C3  <0> d          -0.666  -2.393   1.324  0.00  0.00     0.233 C 
BRANCH   6   7
ATOM      7  C2  <0> d          -1.434  -1.854   0.116  0.00  0.00     0.023 C 
ATOM      8  C1  <0> d          -2.849  -2.435   0.110  0.00  0.00     0.007 C 
ENDBRANCH   6   7
ENDBRANCH   3   6
ENDBRANCH   1   3
BRANCH   1   9
ATOM      9  C6  <0> d           1.571  -3.884   2.344  0.00  0.00     0.129 C 
BRANCH   9  10
ATOM     10  S1  <0> d           2.590  -4.273   0.894  0.00  0.00    -0.127 SA
BRANCH  10  11
ATOM     11  C7  <0> d           2.649  -6.034   0.875  0.00  0.00     0.002 A 
ATOM     12  C12 <0> d           3.359  -6.695  -0.120  0.00  0.00     0.037 A 
ATOM     13  C11 <0> d           3.408  -8.076  -0.129  0.00  0.00     0.012 A 
ATOM     14  C10 <0> d           2.742  -8.800   0.845  0.00  0.00     0.019 A 
ATOM     15 Br1  <0> d           4.379  -8.979  -1.477  0.00  0.00    -0.051 Br
ATOM     16  C9  <0> d           2.030  -8.144   1.833  0.00  0.00     0.003 A 
ATOM     17  C8  <0> d           1.982  -6.764   1.851  0.00  0.00     0.018 A 
ENDBRANCH  10  11
ENDBRANCH   9  10
ENDBRANCH   1   9
BRANCH   1  18
ATOM     18  C13 <0> d           2.807  -1.742   2.525  0.00  0.00     0.211 C 
ATOM     19  O1  <0> d           3.153  -0.968   1.648  0.00  0.00    -0.646 OA
ATOM     20  O2  <0> d           3.570  -2.011   3.437  0.00  0.00    -0.646 OA
ENDBRANCH   1  18
TORSDOF 7
