REMARK  5 active torsions:
REMARK  status: ('A' for Active; 'I' for Inactive)
REMARK    1  A    between atoms: C3_5  and  C4_7 
REMARK    2  A    between atoms: C4_7  and  N3_9 
REMARK    3  A    between atoms: N3_9  and  C7_11 
REMARK    4  A    between atoms: C7_11  and  C8_12 
REMARK       I    between atoms: C8_12  and  N4_14 
REMARK    5  A    between atoms: N4_14  and  C9_15 
ROOT
ATOM      1  C7  <0> d          -0.886  -5.512   1.712  0.00  0.00     0.338 C 
ENDROOT
BRANCH   1   2
ATOM      2  N3  <0> d          -0.910  -4.286   0.904  0.00  0.00    -0.055 N 
ATOM      3  C6  <0> d          -2.255  -3.696   0.949  0.00  0.00     0.271 C 
ATOM      4  H17 <0> d          -0.672  -4.508  -0.051  0.00  0.00     0.281 HD
BRANCH   2   5
ATOM      5  C4  <0> d           0.064  -3.326   1.441  0.00  0.00     0.262 C 
ATOM      6  C5  <0> d           1.464  -3.941   1.395  0.00  0.00     0.049 C 
BRANCH   5   7
ATOM      7  C3  <0> d           0.039  -2.068   0.612  0.00  0.00     0.199 A 
ATOM      8  N2  <0> d           0.023  -2.002  -0.689  0.00  0.00    -0.125 NA
ATOM      9  N1  <0> d           0.005  -0.769  -1.054  0.00  0.00    -0.127 NA
ATOM     10  C2  <0> d           0.008  -0.005   0.002  0.00  0.00     0.165 A 
ATOM     11  C1  <0> d          -0.009   1.501   0.013  0.00  0.00     0.102 C 
ATOM     12  O1  <0> d           0.035  -0.808   1.079  0.00  0.00    -0.276 OA
ENDBRANCH   5   7
ENDBRANCH   2   5
ENDBRANCH   1   2
BRANCH   1  13
ATOM     13  C8  <0> d          -1.794  -6.542   1.090  0.00  0.00     0.248 C 
ATOM     14  O2  <0> d          -2.401  -6.279   0.073  0.00  0.00    -0.271 OA
ATOM     15  N4  <0> d          -1.932  -7.754   1.663  0.00  0.00    -0.326 N 
ATOM     16  H13 <0> d          -1.396  -7.987   2.437  0.00  0.00     0.169 HD
BRANCH  15  17
ATOM     17  C9  <0> d          -2.847  -8.675   1.141  0.00  0.00     0.040 A 
ATOM     18  C14 <0> d          -3.066  -8.737  -0.228  0.00  0.00     0.072 A 
ATOM     19  C13 <0> d          -3.966  -9.653  -0.743  0.00  0.00     0.121 A 
ATOM     20  C12 <0> d          -4.658 -10.499   0.108  0.00  0.00     0.084 A 
ATOM     21  F1  <0> d          -4.175  -9.718  -2.076  0.00  0.00    -0.206 F 
ATOM     22  C11 <0> d          -4.445 -10.434   1.475  0.00  0.00     0.121 A 
ATOM     23  C10 <0> d          -3.541  -9.524   1.993  0.00  0.00     0.072 A 
ATOM     24  F2  <0> d          -5.121 -11.260   2.303  0.00  0.00    -0.206 F 
ENDBRANCH  15  17
ENDBRANCH   1  13
TORSDOF 5
