REMARK  7 active torsions:
REMARK  status: ('A' for Active; 'I' for Inactive)
REMARK    1  A    between atoms: C2_2  and  C3_3 
REMARK    2  A    between atoms: N1_6  and  N3_10 
REMARK       I    between atoms: N3_10  and  C6_11 
REMARK    3  A    between atoms: C6_11  and  C7_13 
REMARK    4  A    between atoms: C7_13  and  N4_14 
REMARK    5  A    between atoms: N4_14  and  C9_16 
REMARK    6  A    between atoms: C9_16  and  C10_17 
REMARK       I    between atoms: C10_17  and  N5_19 
REMARK    7  A    between atoms: N5_19  and  C11_20 
ROOT
ATOM      1  C7  <0> d          -0.018   1.501  -0.001  0.00  0.00     0.338 C 
ENDROOT
BRANCH   1   2
ATOM      2  C6  <0> d           0.004  -0.006  -0.005  0.00  0.00     0.262 C 
ATOM      3  N3  <0> d          -1.153  -0.697  -0.003  0.00  0.00    -0.255 N 
ATOM      4  H7  <0> d          -2.114  -0.162   0.001  0.00  0.00     0.191 HD
ATOM      5  O3  <0> d           1.063  -0.597  -0.009  0.00  0.00    -0.270 OA
BRANCH   3   6
ATOM      6  N1  <0> d          -1.132  -2.098  -0.007  0.00  0.00    -0.167 N 
ATOM      7  C4  <0> d          -1.418  -2.857  -1.084  0.00  0.00     0.275 A 
ATOM      8  C3  <0> d          -1.266  -4.293  -0.625  0.00  0.00     0.114 A 
ATOM      9  O1  <0> d          -1.729  -2.470  -2.190  0.00  0.00    -0.268 OA
ATOM     10  N2  <0> d          -0.885  -4.166   0.792  0.00  0.00    -0.323 N 
ATOM     11  C17 <0> d          -0.166  -5.003  -1.417  0.00  0.00     0.049 C 
ATOM     12  C5  <0> d          -0.832  -2.848   1.060  0.00  0.00     0.345 A 
ATOM     13  H6  <0> d          -0.707  -5.067   1.398  0.00  0.00     0.165 HD
ATOM     14  O2  <0> d          -0.544  -2.390   2.148  0.00  0.00    -0.245 OA
BRANCH   8  15
ATOM     15  C2  <0> d          -2.593  -5.043  -0.759  0.00  0.00     0.036 C 
ATOM     16  C1  <0> d          -2.479  -6.408  -0.078  0.00  0.00     0.008 C 
ENDBRANCH   8  15
ENDBRANCH   3   6
ENDBRANCH   1   2
BRANCH   1  17
ATOM     17  N4  <0> d           1.359   2.011  -0.003  0.00  0.00    -0.058 N 
ATOM     18  C8  <0> d           2.050   1.668   1.248  0.00  0.00     0.270 C 
ATOM     19  H22 <0> d           1.898   1.526  -0.830  0.00  0.00     0.280 HD
BRANCH  17  20
ATOM     20  C9  <0> d           1.383   3.461  -0.237  0.00  0.00     0.337 C 
BRANCH  20  21
ATOM     21  C10 <0> d           2.802   3.908  -0.477  0.00  0.00     0.248 C 
ATOM     22  O4  <0> d           3.705   3.098  -0.456  0.00  0.00    -0.271 OA
ATOM     23  N5  <0> d           3.068   5.207  -0.717  0.00  0.00    -0.326 N 
ATOM     24  H15 <0> d           2.244   5.929  -0.812  0.00  0.00     0.169 HD
BRANCH  23  25
ATOM     25  C11 <0> d           4.394   5.638  -0.844  0.00  0.00     0.036 A 
ATOM     26  C16 <0> d           5.340   4.813  -1.436  0.00  0.00     0.055 A 
ATOM     27  C15 <0> d           6.648   5.241  -1.560  0.00  0.00     0.058 A 
ATOM     28  C14 <0> d           7.015   6.492  -1.093  0.00  0.00     0.055 A 
ATOM     29 Cl1  <0> d           7.832   4.210  -2.300  0.00  0.00    -0.082 Cl
ATOM     30  C13 <0> d           6.074   7.316  -0.502  0.00  0.00     0.028 A 
ATOM     31 Cl2  <0> d           8.659   7.028  -1.250  0.00  0.00    -0.083 Cl
ATOM     32  C12 <0> d           4.764   6.895  -0.382  0.00  0.00     0.031 A 
ENDBRANCH  23  25
ENDBRANCH  20  21
ENDBRANCH  17  20
ENDBRANCH   1  17
TORSDOF 7
