REMARK  7 active torsions:
REMARK  status: ('A' for Active; 'I' for Inactive)
REMARK    1  A    between atoms: N1_5  and  C5_7 
REMARK    2  A    between atoms: C8_10  and  N3_14 
REMARK       I    between atoms: N3_14  and  C11_15 
REMARK    3  A    between atoms: C11_15  and  C12_17 
REMARK       I    between atoms: C12_17  and  N4_19 
REMARK    4  A    between atoms: N4_19  and  C13_20 
REMARK    5  A    between atoms: C13_20  and  C14_21 
REMARK    6  A    between atoms: C14_21  and  C15_22 
REMARK    7  A    between atoms: C15_22  and  N5_23 
ROOT
ATOM      1  N3  <0> d           0.321  -6.673   3.837  0.00  0.00    -0.319 N 
ATOM      2  C11 <0> d           0.149  -6.569   5.170  0.00  0.00     0.313 C 
ATOM      3  O1  <0> d           0.030  -5.475   5.683  0.00  0.00    -0.262 OA
ATOM      4  H8  <0> d           0.491  -7.540   3.437  0.00  0.00     0.169 HD
ENDROOT
BRANCH   1   5
ATOM      5  C8  <0> d           0.255  -5.533   3.033  0.00  0.00     0.038 A 
ATOM      6  C7  <0> d           1.048  -5.437   1.896  0.00  0.00     0.032 A 
ATOM      7  C6  <0> d           0.983  -4.311   1.100  0.00  0.00     0.037 A 
ATOM      8  C5  <0> d           0.125  -3.272   1.435  0.00  0.00     0.097 A 
ATOM      9  C10 <0> d          -0.665  -3.364   2.576  0.00  0.00     0.147 A 
ATOM     10  C9  <0> d          -0.604  -4.494   3.369  0.00  0.00     0.074 A 
ATOM     11  F1  <0> d          -1.496  -2.351   2.905  0.00  0.00    -0.204 F 
BRANCH   8  12
ATOM     12  N1  <0> d           0.060  -2.128   0.627  0.00  0.00    -0.235 N 
ATOM     13  C4  <0> d          -0.075  -2.111  -0.718  0.00  0.00     0.035 A 
ATOM     14  C3  <0> d          -0.097  -0.816  -1.114  0.00  0.00     0.055 A 
ATOM     15  C20 <0> d          -0.182  -3.316  -1.616  0.00  0.00     0.070 C 
ATOM     16  C2  <0> d           0.029  -0.016   0.026  0.00  0.00     0.053 A 
ATOM     17  C1  <0> d           0.052   1.491   0.049  0.00  0.00     0.072 C 
ATOM     18  N2  <0> d           0.129  -0.800   1.069  0.00  0.00    -0.172 NA
ENDBRANCH   8  12
ENDBRANCH   1   5
BRANCH   2  19
ATOM     19  C12 <0> d           0.105  -7.799   6.016  0.00  0.00     0.309 C 
ATOM     20  O2  <0> d           0.225  -8.893   5.503  0.00  0.00    -0.262 OA
ATOM     21  N4  <0> d          -0.066  -7.694   7.348  0.00  0.00    -0.353 N 
ATOM     22  H9  <0> d          -0.162  -6.821   7.758  0.00  0.00     0.162 HD
BRANCH  21  23
ATOM     23  C13 <0> d          -0.109  -8.901   8.178  0.00  0.00     0.125 C 
BRANCH  23  24
ATOM     24  C14 <0> d          -0.312  -8.506   9.642  0.00  0.00     0.040 C 
BRANCH  24  25
ATOM     25  C15 <0> d          -0.357  -9.766  10.509  0.00  0.00     0.131 C 
BRANCH  25  26
ATOM     26  N5  <0> d          -0.552  -9.388  11.911  0.00  0.00    -0.346 N 
ATOM     27  C18 <0> d          -1.733  -9.144  12.519  0.00  0.00     0.079 A 
ATOM     28  N6  <0> d          -1.506  -8.839  13.767  0.00  0.00    -0.355 N 
ATOM     29  C19 <0> d          -3.088  -9.215  11.865  0.00  0.00     0.089 C 
ATOM     30  C17 <0> d          -0.184  -8.869  13.996  0.00  0.00     0.106 A 
ATOM     31  H24 <0> d          -2.185  -8.621  14.424  0.00  0.00     0.166 HD
ATOM     32  C16 <0> d           0.430  -9.211  12.848  0.00  0.00     0.109 A 
ENDBRANCH  25  26
ENDBRANCH  24  25
ENDBRANCH  23  24
ENDBRANCH  21  23
ENDBRANCH   2  19
TORSDOF 7
