REMARK  3 active torsions:
REMARK  status: ('A' for Active; 'I' for Inactive)
REMARK    1  A    between atoms: C2_2  and  C3_3 
REMARK    2  A    between atoms: C3_3  and  C4_4 
REMARK    3  A    between atoms: C5_8  and  C6_10 
ROOT
ATOM      1  C4  <0> d           0.739  -2.004  -1.265  0.00  0.00     0.122 A 
ATOM      2  N1  <0> d          -0.239  -2.804  -1.725  0.00  0.00    -0.263 N 
ATOM      3  H1  <0> d          -1.084  -2.527  -2.112  0.00  0.00     0.190 HD
ATOM      4  N2  <0> d           0.207  -4.123  -1.536  0.00  0.00    -0.157 NA
ATOM      5  C5  <0> d           1.392  -4.045  -0.989  0.00  0.00     0.158 A 
ATOM      6  N3  <0> d           1.713  -2.762  -0.831  0.00  0.00    -0.216 NA
ENDROOT
BRANCH   5   7
ATOM      7  C6  <0> d           2.257  -5.218  -0.603  0.00  0.00     0.044 C 
ATOM      8  C10 <0> d           1.535  -6.521  -0.952  0.00  0.00     0.249 C 
ATOM      9  N4  <0> d           2.374  -7.665  -0.575  0.00  0.00    -0.074 N 
ATOM     10  C9  <0> d           2.581  -7.675   0.878  0.00  0.00     0.232 C 
ATOM     11  H15 <0> d           3.267  -7.594  -1.040  0.00  0.00     0.277 HD
ATOM     12  H21 <0> d           1.919  -8.521  -0.854  0.00  0.00     0.277 HD
ATOM     13  C8  <0> d           3.343  -6.415   1.297  0.00  0.00     0.029 C 
ATOM     14  C7  <0> d           2.530  -5.179   0.903  0.00  0.00     0.020 C 
ATOM     15  C11 <0> d           3.582  -5.148  -1.365  0.00  0.00     0.025 C 
ENDBRANCH   5   7
BRANCH   1  16
ATOM     16  C3  <0> d           0.718  -0.497  -1.257  0.00  0.00     0.080 C 
BRANCH  16  17
ATOM     17  C2  <0> d           0.002  -0.004   0.002  0.00  0.00     0.003 C 
ATOM     18  C1  <0> d          -0.019   1.526   0.010  0.00  0.00     0.005 C 
ENDBRANCH  16  17
ENDBRANCH   1  16
TORSDOF 3
