REMARK  5 active torsions:
REMARK  status: ('A' for Active; 'I' for Inactive)
REMARK    1  A    between atoms: C2_2  and  N1_3 
REMARK    2  A    between atoms: N2_6  and  C7_9 
REMARK    3  A    between atoms: C12_16  and  S2_18 
REMARK    4  A    between atoms: S2_18  and  C13_19 
REMARK    5  A    between atoms: C13_19  and  C14_20 
REMARK       I    between atoms: C14_20  and  N5_22 
ROOT
ATOM      1  C7  <0> d          -4.306  -2.858   1.717  0.00  0.00     0.142 A 
ATOM      2  C8  <0> d          -4.434  -4.229   1.357  0.00  0.00     0.053 A 
ATOM      3  C9  <0> d          -3.865  -4.934   0.210  0.00  0.00    -0.023 A 
ATOM      4  C10 <0> d          -4.142  -6.250   0.097  0.00  0.00     0.016 A 
ATOM      5  S1  <0> d          -5.164  -6.628   1.492  0.00  0.00    -0.071 SA
ATOM      6  C11 <0> d          -5.220  -5.013   2.227  0.00  0.00     0.115 A 
ATOM      7  N3  <0> d          -5.791  -4.497   3.297  0.00  0.00    -0.215 NA
ATOM      8  C12 <0> d          -5.637  -3.211   3.582  0.00  0.00     0.191 A 
ATOM      9  N4  <0> d          -4.905  -2.417   2.809  0.00  0.00    -0.204 NA
ATOM     10  C15 <0> d          -3.671  -7.165  -0.991  0.00  0.00     0.215 C 
ATOM     11  O2  <0> d          -3.147  -6.354  -2.054  0.00  0.00    -0.376 OA
ATOM     12  C16 <0> d          -2.234  -5.348  -1.606  0.00  0.00     0.058 C 
ATOM     13  C17 <0> d          -2.988  -4.256  -0.841  0.00  0.00     0.078 C 
ATOM     14  C18 <0> d          -1.190  -5.983  -0.687  0.00  0.00     0.046 C 
ATOM     15  C19 <0> d          -1.532  -4.726  -2.815  0.00  0.00     0.046 C 
ENDROOT
BRANCH   1  16
ATOM     16  N2  <0> d          -3.556  -1.998   0.935  0.00  0.00    -0.362 N 
ATOM     17  C4  <0> d          -4.142  -1.345  -0.246  0.00  0.00     0.152 C 
ATOM     18  C3  <0> d          -3.854   0.158  -0.162  0.00  0.00     0.254 C 
ATOM     19  N1  <0> d          -2.409   0.370  -0.007  0.00  0.00    -0.068 N 
ATOM     20  C6  <0> d          -1.956  -0.191   1.273  0.00  0.00     0.254 C 
ATOM     21  H28 <0> d          -1.921  -0.085  -0.763  0.00  0.00     0.280 HD
ATOM     22  C5  <0> d          -2.151  -1.710   1.260  0.00  0.00     0.152 C 
BRANCH  19  23
ATOM     23  C2  <0> d          -2.122   1.810  -0.037  0.00  0.00     0.230 C 
ATOM     24  C1  <0> d          -2.478   2.373  -1.415  0.00  0.00     0.034 C 
ENDBRANCH  19  23
ENDBRANCH   1  16
BRANCH   8  25
ATOM     25  S2  <0> d          -6.412  -2.544   5.018  0.00  0.00    -0.081 SA
BRANCH  25  26
ATOM     26  C13 <0> d          -7.275  -3.963   5.749  0.00  0.00     0.184 C 
BRANCH  26  27
ATOM     27  C14 <0> d          -7.990  -3.525   7.002  0.00  0.00     0.225 C 
ATOM     28  O1  <0> d          -7.923  -2.370   7.365  0.00  0.00    -0.273 OA
ATOM     29  N5  <0> d          -8.703  -4.417   7.717  0.00  0.00    -0.369 N 
ATOM     30  H16 <0> d          -8.756  -5.340   7.426  0.00  0.00     0.159 HD
ATOM     31  H17 <0> d          -9.162  -4.135   8.524  0.00  0.00     0.159 HD
ENDBRANCH  26  27
ENDBRANCH  25  26
ENDBRANCH   8  25
TORSDOF 5
