REMARK  4 active torsions:
REMARK  status: ('A' for Active; 'I' for Inactive)
REMARK    1  A    between atoms: C4_4  and  N4_9 
REMARK    2  A    between atoms: C5_6  and  N3_8 
REMARK    3  A    between atoms: N4_9  and  C6_10 
REMARK    4  A    between atoms: C6_10  and  C8_12 
ROOT
ATOM      1  C1  <0> d          -0.018   1.503   0.010  0.00  0.00     0.069 C 
ATOM      2  C2  <0> d           0.002  -0.004   0.002  0.00  0.00     0.026 A 
ATOM      3  C3  <0> d           0.006  -0.696  -1.194  0.00  0.00     0.076 A 
ATOM      4  C4  <0> d           0.026  -2.091  -1.156  0.00  0.00     0.145 A 
ATOM      5  N1  <0> d           0.040  -2.705   0.023  0.00  0.00    -0.048 NA
ATOM      6  C5  <0> d           0.035  -2.005   1.148  0.00  0.00     0.700 A 
ATOM      7  N2  <0> d           0.022  -0.680   1.141  0.00  0.00    -0.194 N 
ATOM      8  H16 <0> d           0.023  -0.198   1.983  0.00  0.00     0.184 HD
ENDROOT
BRANCH   4   9
ATOM      9  N4  <0> d           0.030  -2.826  -2.330  0.00  0.00    -0.366 N 
ATOM     10  H8  <0> d           0.043  -3.795  -2.296  0.00  0.00     0.161 HD
BRANCH   9  11
ATOM     11  C6  <0> d           0.013  -2.139  -3.624  0.00  0.00     0.113 C 
ATOM     12  C7  <0> d          -1.430  -1.809  -4.008  0.00  0.00     0.037 C 
BRANCH  11  13
ATOM     13  C8  <0> d           0.621  -3.033  -4.675  0.00  0.00    -0.018 A 
ATOM     14  C13 <0> d           1.189  -2.480  -5.809  0.00  0.00     0.019 A 
ATOM     15  C12 <0> d           1.751  -3.300  -6.770  0.00  0.00     0.019 A 
ATOM     16 Br1  <0> d           1.204  -0.603  -6.040  0.00  0.00    -0.050 Br
ATOM     17  C11 <0> d           1.735  -4.672  -6.603  0.00  0.00     0.001 A 
ATOM     18  C10 <0> d           1.162  -5.224  -5.472  0.00  0.00     0.001 A 
ATOM     19  C9  <0> d           0.606  -4.405  -4.508  0.00  0.00     0.010 A 
ENDBRANCH  11  13
ENDBRANCH   9  11
ENDBRANCH   4   9
BRANCH   6  20
ATOM     20  N3  <0> d           0.051  -2.674   2.359  0.00  0.00    -0.233 N 
ATOM     21  H6  <0> d           0.064  -3.643   2.377  0.00  0.00     0.174 HD
ATOM     22  H7  <0> d           0.048  -2.173   3.190  0.00  0.00     0.174 HD
ENDBRANCH   6  20
TORSDOF 4
