REMARK  6 active torsions:
REMARK  status: ('A' for Active; 'I' for Inactive)
REMARK    1  A    between atoms: C7_7  and  N1_8 
REMARK    2  A    between atoms: C10_11  and  C13_14 
REMARK    3  A    between atoms: C14_15  and  C16_18 
REMARK       I    between atoms: C16_18  and  N3_20 
REMARK    4  A    between atoms: N3_20  and  C17_21 
REMARK    5  A    between atoms: C17_21  and  C18_22 
REMARK    6  A    between atoms: C18_22  and  S1_23 
ROOT
ATOM      1  C13 <0> d           1.566   1.635   5.211  0.00  0.00     0.041 C 
ATOM      2  C14 <0> d           1.123   1.758   6.514  0.00  0.00     0.113 C 
ATOM      3  C15 <0> d           1.939   2.417   7.488  0.00  0.00     0.105 C 
ATOM      4  N2  <0> d           2.587   2.940   8.262  0.00  0.00    -0.191 NA
ENDROOT
BRANCH   2   5
ATOM      5  C16 <0> d          -0.185   1.211   6.899  0.00  0.00     0.262 C 
ATOM      6  O1  <0> d          -0.828   0.554   6.103  0.00  0.00    -0.267 OA
ATOM      7  N3  <0> d          -0.672   1.438   8.135  0.00  0.00    -0.355 N 
ATOM      8  H13 <0> d          -0.159   1.962   8.770  0.00  0.00     0.162 HD
BRANCH   7   9
ATOM      9  C17 <0> d          -1.976   0.893   8.520  0.00  0.00     0.138 C 
BRANCH   9  10
ATOM     10  C18 <0> d          -2.291   1.293   9.963  0.00  0.00     0.159 C 
BRANCH  10  11
ATOM     11  S1  <0> d          -3.906   0.618  10.438  0.00  0.00     0.142 S 
ATOM     12  O2  <0> d          -4.906   1.242   9.644  0.00  0.00    -0.228 OA
ATOM     13  O3  <0> d          -3.816  -0.800  10.448  0.00  0.00    -0.228 OA
ATOM     14  C19 <0> d          -4.092   1.193  12.149  0.00  0.00     0.161 C 
ENDBRANCH  10  11
ENDBRANCH   9  10
ENDBRANCH   7   9
ENDBRANCH   2   5
BRANCH   1  15
ATOM     15  C10 <0> d           0.684   1.169   4.203  0.00  0.00    -0.010 A 
ATOM     16  C9  <0> d          -0.715   1.570   3.996  0.00  0.00     0.038 A 
ATOM     17  C8  <0> d          -1.155   0.878   2.932  0.00  0.00     0.014 A 
ATOM     18  N1  <0> d          -0.145   0.083   2.464  0.00  0.00    -0.319 N 
ATOM     19  C20 <0> d          -2.541   0.965   2.347  0.00  0.00     0.068 C 
ATOM     20  C11 <0> d           0.963   0.239   3.215  0.00  0.00     0.023 A 
ATOM     21  C12 <0> d           2.276  -0.472   3.014  0.00  0.00     0.069 C 
BRANCH  18  22
ATOM     22  C7  <0> d          -0.250  -0.776   1.362  0.00  0.00     0.045 A 
ATOM     23  C2  <0> d           0.066  -0.318   0.090  0.00  0.00    -0.035 A 
ATOM     24  C1  <0> d           0.521   1.105  -0.108  0.00  0.00     0.050 C 
ATOM     25  C3  <0> d          -0.033  -1.170  -0.993  0.00  0.00     0.009 A 
ATOM     26  C4  <0> d          -0.450  -2.475  -0.812  0.00  0.00     0.001 A 
ATOM     27  C5  <0> d          -0.771  -2.933   0.453  0.00  0.00     0.002 A 
ATOM     28  C6  <0> d          -0.675  -2.086   1.539  0.00  0.00     0.030 A 
ENDBRANCH  18  22
ENDBRANCH   1  15
TORSDOF 6
