REMARK  8 active torsions:
REMARK  status: ('A' for Active; 'I' for Inactive)
REMARK    1  A    between atoms: C2_2  and  C3_3 
REMARK    2  A    between atoms: C3_3  and  C4_4 
REMARK    3  A    between atoms: C4_4  and  C5_5 
REMARK    4  A    between atoms: C5_5  and  C6_6 
REMARK    5  A    between atoms: C5_5  and  C19_25 
REMARK    6  A    between atoms: C8_9  and  N3_14 
REMARK    7  A    between atoms: N3_14  and  C10_15 
REMARK    8  A    between atoms: C13_18  and  C16_21 
ROOT
ATOM      1  C6  <0> d          -1.264   6.126   0.346  0.00  0.00     0.050 A 
ATOM      2  C7  <0> d          -0.097   5.428   0.233  0.00  0.00     0.062 A 
ATOM      3  N1  <0> d          -0.120   4.101   0.128  0.00  0.00    -0.069 NA
ATOM      4  C8  <0> d          -1.255   3.433   0.130  0.00  0.00     0.708 A 
ATOM      5  N2  <0> d          -2.450   4.075   0.236  0.00  0.00    -0.154 N 
ATOM      6  H2  <0> d          -3.277   3.568   0.232  0.00  0.00     0.187 HD
ATOM      7  C9  <0> d          -2.480   5.420   0.350  0.00  0.00     0.268 A 
ATOM      8  O1  <0> d          -3.543   6.012   0.449  0.00  0.00    -0.267 OA
ATOM      9  C18 <0> d           1.220   6.160   0.226  0.00  0.00     0.072 C 
ENDROOT
BRANCH   4  10
ATOM     10  N3  <0> d          -1.233   2.066   0.019  0.00  0.00    -0.190 N 
ATOM     11  H12 <0> d          -2.055   1.559   0.103  0.00  0.00     0.184 HD
BRANCH  10  12
ATOM     12  C10 <0> d          -0.029   1.406  -0.214  0.00  0.00     0.049 A 
ATOM     13  C15 <0> d           0.188   0.144   0.333  0.00  0.00     0.031 A 
ATOM     14  C14 <0> d           1.365  -0.509   0.103  0.00  0.00     0.017 A 
ATOM     15  C13 <0> d           2.355   0.093  -0.685  0.00  0.00     0.009 A 
ATOM     16  C12 <0> d           2.132   1.362  -1.233  0.00  0.00     0.017 A 
ATOM     17  C11 <0> d           0.952   2.008  -0.998  0.00  0.00     0.031 A 
BRANCH  15  18
ATOM     18  C16 <0> d           3.622  -0.605  -0.935  0.00  0.00     0.155 C 
ATOM     19  O2  <0> d           3.813  -1.704  -0.459  0.00  0.00    -0.293 OA
ATOM     20  C17 <0> d           4.685   0.044  -1.783  0.00  0.00     0.096 C 
ENDBRANCH  15  18
ENDBRANCH  10  12
ENDBRANCH   4  10
BRANCH   1  21
ATOM     21  C5  <0> d          -1.250   7.628   0.465  0.00  0.00     0.127 C 
BRANCH  21  22
ATOM     22  C4  <0> d          -2.027   8.239  -0.703  0.00  0.00     0.020 C 
BRANCH  22  23
ATOM     23  C3  <0> d          -1.908   9.764  -0.653  0.00  0.00     0.001 C 
BRANCH  23  24
ATOM     24  C2  <0> d          -2.685  10.375  -1.820  0.00  0.00    -0.005 C 
ATOM     25  C1  <0> d          -2.566  11.900  -1.770  0.00  0.00     0.005 C 
ENDBRANCH  23  24
ENDBRANCH  22  23
ENDBRANCH  21  22
BRANCH  21  26
ATOM     26  C19 <0> d          -1.894   8.036   1.765  0.00  0.00     0.181 C 
ATOM     27  O3  <0> d          -2.321   7.193   2.518  0.00  0.00    -0.647 OA
ATOM     28  O4  <0> d          -1.994   9.335   2.086  0.00  0.00    -0.647 OA
ENDBRANCH  21  26
ENDBRANCH   1  21
TORSDOF 8
