REMARK  5 active torsions:
REMARK  status: ('A' for Active; 'I' for Inactive)
REMARK    1  A    between atoms: C3_3  and  S1_10 
REMARK    2  A    between atoms: C6_6  and  N1_7 
REMARK    3  A    between atoms: S1_10  and  C7_11 
REMARK    4  A    between atoms: C10_14  and  C13_18 
REMARK    5  A    between atoms: C13_18  and  N2_19 
ROOT
ATOM      1  C7  <0> d           5.133   1.060   0.107  0.00  0.00     0.027 A 
ATOM      2  C8  <0> d           4.770  -0.284   0.078  0.00  0.00     0.021 A 
ATOM      3  C9  <0> d           5.734  -1.261   0.180  0.00  0.00     0.017 A 
ATOM      4  C10 <0> d           7.079  -0.903   0.313  0.00  0.00     0.009 A 
ATOM      5  C11 <0> d           7.441   0.446   0.342  0.00  0.00     0.040 A 
ATOM      6  C12 <0> d           6.473   1.420   0.234  0.00  0.00     0.052 A 
ATOM      7 Cl1  <0> d           6.923   3.096   0.264  0.00  0.00    -0.083 Cl
ENDROOT
BRANCH   1   8
ATOM      8  S1  <0> d           3.896   2.308  -0.023  0.00  0.00    -0.089 SA
BRANCH   8   9
ATOM      9  C3  <0> d           2.381   1.410  -0.009  0.00  0.00     0.005 A 
ATOM     10  C2  <0> d           1.794   1.053   1.200  0.00  0.00     0.021 A 
ATOM     11  C1  <0> d           0.606   0.349   1.207  0.00  0.00     0.037 A 
ATOM     12  C6  <0> d           0.000  -0.001   0.014  0.00  0.00     0.102 A 
ATOM     13  C5  <0> d           0.581   0.352  -1.190  0.00  0.00     0.037 A 
ATOM     14  C4  <0> d           1.769   1.056  -1.205  0.00  0.00     0.021 A 
BRANCH  12  15
ATOM     15  N1  <0> d          -1.273  -0.756   0.026  0.00  0.00    -0.116 N 
ATOM     16  O1  <0> d          -1.782  -1.066   1.079  0.00  0.00    -0.532 OA
ATOM     17  O2  <0> d          -1.804  -1.062  -1.015  0.00  0.00    -0.532 OA
ENDBRANCH  12  15
ENDBRANCH   8   9
ENDBRANCH   1   8
BRANCH   4  18
ATOM     18  C13 <0> d           8.114  -1.950   0.424  0.00  0.00     0.102 C 
ATOM     19  N3  <0> d           7.768  -3.237   0.396  0.00  0.00    -0.385 N 
ATOM     20  H9  <0> d           6.835  -3.485   0.304  0.00  0.00     0.157 HD
ATOM     21  H10 <0> d           8.448  -3.924   0.469  0.00  0.00     0.157 HD
BRANCH  18  22
ATOM     22  N2  <0> d           9.397  -1.608   0.551  0.00  0.00    -0.385 N 
ATOM     23  H8  <0> d           9.649  -0.671   0.571  0.00  0.00     0.157 HD
ATOM     24  H11 <0> d          10.077  -2.295   0.623  0.00  0.00     0.157 HD
ENDBRANCH  18  22
ENDBRANCH   4  18
TORSDOF 5
