REMARK  4 active torsions:
REMARK  status: ('A' for Active; 'I' for Inactive)
REMARK    1  A    between atoms: N1_2  and  C2_3 
REMARK    2  A    between atoms: N1_2  and  S1_9 
REMARK    3  A    between atoms: C5_7  and  O1_8 
REMARK    4  A    between atoms: S1_9  and  C6_12 
ROOT
ATOM      1  C1  <0> d          -0.018   1.461   0.010  0.00  0.00     0.163 C 
ATOM      2  N1  <0> d           0.002  -0.004   0.002  0.00  0.00    -0.302 N 
ENDROOT
BRANCH   2   3
ATOM      3  C2  <0> d           0.024  -0.743   1.267  0.00  0.00     0.151 C 
ATOM      4  C5  <0> d           1.261  -0.346   2.098  0.00  0.00     0.168 C 
ATOM      5  C4  <0> d           0.689   0.254   3.403  0.00  0.00     0.266 C 
ATOM      6  N2  <0> d          -0.666  -0.344   3.527  0.00  0.00    -0.071 N 
ATOM      7  C3  <0> d          -1.190  -0.353   2.137  0.00  0.00     0.261 C 
ATOM      8  H8  <0> d          -1.250   0.226   4.121  0.00  0.00     0.277 HD
ATOM      9  H15 <0> d          -0.605  -1.284   3.888  0.00  0.00     0.277 HD
BRANCH   4  10
ATOM     10  O1  <0> d           2.056  -1.498   2.387  0.00  0.00    -0.392 OA
ATOM     11  H11 <0> d           2.849  -1.308   2.908  0.00  0.00     0.210 HD
ENDBRANCH   4  10
ENDBRANCH   2   3
BRANCH   2  12
ATOM     12  S1  <0> d          -0.000  -0.824  -1.437  0.00  0.00     0.262 S 
ATOM     13  O2  <0> d          -0.531  -2.115  -1.167  0.00  0.00    -0.200 OA
ATOM     14  O3  <0> d          -0.572   0.049  -2.401  0.00  0.00    -0.200 OA
BRANCH  12  15
ATOM     15  C6  <0> d           1.682  -1.059  -1.905  0.00  0.00     0.097 A 
ATOM     16  C11 <0> d           2.474   0.033  -2.208  0.00  0.00     0.037 A 
ATOM     17  C10 <0> d           3.796  -0.150  -2.571  0.00  0.00     0.062 A 
ATOM     18 Br1  <0> d           1.752   1.779  -2.118  0.00  0.00    -0.049 Br
ATOM     19  C9  <0> d           4.322  -1.429  -2.642  0.00  0.00     0.117 A 
ATOM     20  C8  <0> d           3.526  -2.522  -2.343  0.00  0.00     0.044 A 
ATOM     21  F1  <0> d           5.612  -1.610  -3.001  0.00  0.00    -0.206 F 
ATOM     22  C7  <0> d           2.207  -2.336  -1.976  0.00  0.00     0.029 A 
ENDBRANCH  12  15
ENDBRANCH   2  12
TORSDOF 4
