REMARK  1 active torsions:
REMARK  status: ('A' for Active; 'I' for Inactive)
REMARK    1  A    between atoms: N1_2  and  C2_3 
ROOT
ATOM      1  C2  <0> d          -1.368  -0.509   0.012  0.00  0.00     0.221 C 
ATOM      2  C3  <0> d          -2.113  -0.170   1.285  0.00  0.00     0.038 C 
ATOM      3  C4  <0> d          -1.333  -0.486   2.555  0.00  0.00     0.003 C 
ATOM      4  C5  <0> d          -0.486  -1.753   2.379  0.00  0.00     0.005 C 
ATOM      5  C6  <0> d          -1.470  -2.875   1.997  0.00  0.00     0.041 C 
ATOM      6  C7  <0> d          -1.506  -3.016   0.493  0.00  0.00    -0.025 A 
ATOM      7  C8  <0> d          -1.444  -1.957  -0.380  0.00  0.00     0.016 A 
ATOM      8  C9  <0> d          -1.464  -2.215  -1.754  0.00  0.00     0.111 A 
ATOM      9  C10 <0> d          -1.565  -3.509  -2.236  0.00  0.00     0.104 A 
ATOM     10  C11 <0> d          -1.637  -4.569  -1.353  0.00  0.00     0.064 A 
ATOM     11  C12 <0> d          -1.608  -4.317   0.005  0.00  0.00     0.043 A 
ATOM     12 Cl1  <0> d          -1.703  -5.647   1.118  0.00  0.00    -0.084 Cl
ATOM     13  O1  <0> d          -1.606  -3.724  -3.584  0.00  0.00    -0.348 OA
ATOM     14  C13 <0> d          -2.793  -3.272  -4.243  0.00  0.00     0.178 C 
ATOM     15  C14 <0> d          -2.682  -1.800  -4.603  0.00  0.00     0.053 C 
ATOM     16  C15 <0> d          -2.587  -0.906  -3.377  0.00  0.00     0.178 C 
ATOM     17  O2  <0> d          -1.395  -1.177  -2.638  0.00  0.00    -0.348 OA
ENDROOT
BRANCH   1  18
ATOM     18  N1  <0> d           0.002  -0.004   0.002  0.00  0.00    -0.071 N 
ATOM     19  C1  <0> d          -0.009   1.445   0.244  0.00  0.00     0.267 C 
ATOM     20  H5  <0> d           0.423  -0.192  -0.895  0.00  0.00     0.277 HD
ATOM     21  H21 <0> d           0.535  -0.462   0.726  0.00  0.00     0.277 HD
ENDBRANCH   1  18
TORSDOF 1
