REMARK  4 active torsions:
REMARK  status: ('A' for Active; 'I' for Inactive)
REMARK    1  A    between atoms: C5_6  and  C7_9 
REMARK       I    between atoms: C7_9  and  N2_11 
REMARK    2  A    between atoms: N2_11  and  C9_13 
REMARK    3  A    between atoms: C9_13  and  C10_14 
REMARK    4  A    between atoms: C11_16  and  C12_19 
ROOT
ATOM      1  C7  <0> d           0.087  -4.243   0.162  0.00  0.00     0.258 C 
ATOM      2  O2  <0> d           0.184  -4.806   1.236  0.00  0.00    -0.267 OA
ATOM      3  N2  <0> d          -0.036  -4.966  -0.969  0.00  0.00    -0.348 N 
ATOM      4  C8  <0> d          -0.052  -4.293  -2.270  0.00  0.00     0.153 C 
ENDROOT
BRANCH   3   5
ATOM      5  C9  <0> d          -0.155  -6.424  -0.897  0.00  0.00     0.181 C 
BRANCH   5   6
ATOM      6  C10 <0> d          -1.631  -6.812  -0.792  0.00  0.00     0.270 A 
ATOM      7  O3  <0> d          -2.231  -6.183   0.352  0.00  0.00    -0.251 OA
ATOM      8  N4  <0> d          -3.262  -5.360  -0.175  0.00  0.00    -0.252 N 
ATOM      9  C11 <0> d          -3.281  -5.486  -1.533  0.00  0.00     0.103 A 
ATOM     10  H12 <0> d          -3.857  -4.799   0.347  0.00  0.00     0.196 HD
ATOM     11  N3  <0> d          -2.375  -6.301  -1.950  0.00  0.00    -0.348 N 
ATOM     12  H21 <0> d          -2.211  -6.537  -2.876  0.00  0.00     0.163 HD
BRANCH   9  13
ATOM     13  C12 <0> d          -4.246  -4.761  -2.436  0.00  0.00     0.047 C 
ATOM     14  C13 <0> d          -5.510  -4.406  -1.652  0.00  0.00     0.017 C 
ATOM     15  C14 <0> d          -3.592  -3.479  -2.957  0.00  0.00     0.017 C 
ENDBRANCH   9  13
ENDBRANCH   5   6
ENDBRANCH   3   5
BRANCH   1  16
ATOM     16  C5  <0> d           0.105  -2.772   0.098  0.00  0.00     0.097 A 
ATOM     17  C4  <0> d          -1.098  -1.988   0.417  0.00  0.00     0.190 A 
ATOM     18  C3  <0> d          -1.010  -0.576   0.335  0.00  0.00     0.080 A 
ATOM     19  O1  <0> d          -2.139  -2.536   0.743  0.00  0.00    -0.287 OA
ATOM     20  C2  <0> d           0.158  -0.007  -0.029  0.00  0.00     0.008 A 
ATOM     21  C1  <0> d           0.246   1.495  -0.115  0.00  0.00     0.068 C 
ATOM     22  N1  <0> d           1.253  -0.750  -0.324  0.00  0.00    -0.368 N 
ATOM     23  C6  <0> d           1.250  -2.092  -0.264  0.00  0.00     0.109 A 
ATOM     24  H20 <0> d           2.069  -0.296  -0.585  0.00  0.00     0.165 HD
ENDBRANCH   1  16
TORSDOF 4
