REMARK  4 active torsions:
REMARK  status: ('A' for Active; 'I' for Inactive)
REMARK    1  A    between atoms: C2_2  and  C5_5 
REMARK    2  A    between atoms: C11_11  and  C12_13 
REMARK       I    between atoms: C12_13  and  N1_15 
REMARK    3  A    between atoms: N1_15  and  N2_16 
REMARK       I    between atoms: N2_16  and  C13_17 
REMARK    4  A    between atoms: C13_17  and  C14_19 
ROOT
ATOM      1  C12 <0> d          -7.304   4.046   0.096  0.00  0.00     0.277 C 
ATOM      2  O1  <0> d          -7.249   5.262   0.102  0.00  0.00    -0.265 OA
ATOM      3  N1  <0> d          -6.169   3.320   0.081  0.00  0.00    -0.263 N 
ATOM      4  H17 <0> d          -6.214   2.350   0.076  0.00  0.00     0.190 HD
ENDROOT
BRANCH   3   5
ATOM      5  N2  <0> d          -4.925   3.964   0.072  0.00  0.00    -0.262 N 
ATOM      6  C13 <0> d          -3.790   3.237   0.057  0.00  0.00     0.291 C 
ATOM      7  O2  <0> d          -3.846   2.023   0.051  0.00  0.00    -0.264 OA
ATOM      8  H18 <0> d          -4.881   4.933   0.077  0.00  0.00     0.190 HD
BRANCH   6   9
ATOM      9  C14 <0> d          -2.479   3.916   0.047  0.00  0.00     0.157 A 
ATOM     10  N4  <0> d          -2.410   5.225   0.054  0.00  0.00    -0.166 NA
ATOM     11  N3  <0> d          -1.316   5.888   0.047  0.00  0.00    -0.242 N 
ATOM     12  C21 <0> d          -0.096   5.313   0.032  0.00  0.00     0.272 A 
ATOM     13  H2  <0> d          -1.367   6.857   0.053  0.00  0.00     0.192 HD
ATOM     14  C20 <0> d          -0.014   3.846   0.023  0.00  0.00     0.046 A 
ATOM     15  O3  <0> d           0.913   5.994   0.026  0.00  0.00    -0.266 OA
ATOM     16  C15 <0> d          -1.234   3.131   0.031  0.00  0.00     0.016 A 
ATOM     17  C19 <0> d           1.194   3.157   0.008  0.00  0.00     0.018 A 
ATOM     18  C16 <0> d          -1.221   1.740   0.017  0.00  0.00     0.015 A 
ATOM     19  C17 <0> d          -0.013   1.076   0.008  0.00  0.00     0.001 A 
ATOM     20  C18 <0> d           1.185   1.778   0.000  0.00  0.00     0.001 A 
ENDBRANCH   6   9
ENDBRANCH   3   5
BRANCH   1  21
ATOM     21  C11 <0> d          -8.606   3.372   0.105  0.00  0.00     0.075 A 
ATOM     22  C10 <0> d          -9.874   3.924   0.121  0.00  0.00     0.033 A 
ATOM     23  C9  <0> d         -10.961   3.065   0.126  0.00  0.00    -0.043 A 
ATOM     24  C8  <0> d         -10.688   1.727   0.116  0.00  0.00    -0.010 A 
ATOM     25  C22 <0> d         -12.404   3.562   0.142  0.00  0.00     0.045 C 
ATOM     26  C7  <0> d         -11.678   0.604   0.120  0.00  0.00     0.047 C 
ATOM     27  S1  <0> d          -8.969   1.625   0.092  0.00  0.00    -0.089 SA
ATOM     28  C6  <0> d         -13.051   1.169   0.513  0.00  0.00     0.011 C 
ATOM     29  C5  <0> d         -13.321   2.427  -0.317  0.00  0.00    -0.003 C 
BRANCH  29  30
ATOM     30  C2  <0> d         -14.780   2.849  -0.140  0.00  0.00    -0.048 C 
ATOM     31  C1  <0> d         -15.055   4.099  -0.978  0.00  0.00     0.015 C 
ATOM     32  C3  <0> d         -15.699   1.715  -0.599  0.00  0.00     0.015 C 
ATOM     33  C4  <0> d         -15.047   3.156   1.335  0.00  0.00     0.015 C 
ENDBRANCH  29  30
ENDBRANCH   1  21
TORSDOF 4
