REMARK  5 active torsions:
REMARK  status: ('A' for Active; 'I' for Inactive)
REMARK    1  A    between atoms: C5_5  and  C7_7 
REMARK    2  A    between atoms: C9_14  and  C10_15 
REMARK    3  A    between atoms: C9_14  and  O4_23 
REMARK    4  A    between atoms: C10_15  and  C11_16 
REMARK    5  A    between atoms: C11_16  and  C12_18 
ROOT
ATOM      1  C1  <0> d          -3.194   3.642   0.050  0.00  0.00     0.002 A 
ATOM      2  C2  <0> d          -1.866   4.033   0.039  0.00  0.00     0.013 A 
ATOM      3  C3  <0> d          -0.870   3.082   0.025  0.00  0.00     0.013 A 
ATOM      4  C4  <0> d          -1.180   1.728   0.017  0.00  0.00     0.059 A 
ATOM      5  C5  <0> d          -2.519   1.342   0.033  0.00  0.00     0.075 A 
ATOM      6  C6  <0> d          -3.514   2.297   0.046  0.00  0.00     0.018 A 
ATOM      7  N1  <0> d          -0.011   0.966   0.007  0.00  0.00    -0.323 N 
ATOM      8  C8  <0> d           1.094   1.730   0.001  0.00  0.00     0.262 A 
ATOM      9  O1  <0> d           2.242   1.337  -0.012  0.00  0.00    -0.269 OA
ATOM     10  C9  <0> d           0.638   3.174   0.012  0.00  0.00     0.174 A 
ATOM     11  H4  <0> d           0.002  -0.004   0.002  0.00  0.00     0.169 HD
ENDROOT
BRANCH  10  12
ATOM     12  C10 <0> d           1.123   3.899  -1.245  0.00  0.00     0.139 C 
BRANCH  12  13
ATOM     13  C11 <0> d           2.623   3.786  -1.343  0.00  0.00     0.186 C 
ATOM     14  O2  <0> d           3.244   3.185  -0.489  0.00  0.00    -0.290 OA
BRANCH  13  15
ATOM     15  C12 <0> d           3.307   4.381  -2.427  0.00  0.00     0.120 A 
ATOM     16  O3  <0> d           2.743   5.070  -3.442  0.00  0.00    -0.319 OA
ATOM     17  C15 <0> d           3.698   5.488  -4.281  0.00  0.00     0.142 A 
ATOM     18  C14 <0> d           4.901   5.067  -3.826  0.00  0.00     0.027 A 
ATOM     19  C13 <0> d           4.671   4.357  -2.640  0.00  0.00     0.043 A 
ENDBRANCH  13  15
ENDBRANCH  12  13
ENDBRANCH  10  12
BRANCH  10  20
ATOM     20  O4  <0> d           1.110   3.838   1.186  0.00  0.00    -0.375 OA
ATOM     21  H10 <0> d           2.074   3.872   1.258  0.00  0.00     0.211 HD
ENDBRANCH  10  20
BRANCH   5  22
ATOM     22  C7  <0> d          -2.880  -0.121   0.029  0.00  0.00     0.419 C 
ATOM     23  F1  <0> d          -4.272  -0.258   0.040  0.00  0.00    -0.166 F 
ATOM     24  F2  <0> d          -2.361  -0.726  -1.121  0.00  0.00    -0.166 F 
ATOM     25  F3  <0> d          -2.341  -0.737   1.163  0.00  0.00    -0.166 F 
ENDBRANCH   5  22
TORSDOF 5
