REMARK  7 active torsions:
REMARK  status: ('A' for Active; 'I' for Inactive)
REMARK    1  A    between atoms: N2_5  and  C6_8 
REMARK    2  A    between atoms: C6_8  and  C7_9 
REMARK    3  A    between atoms: C6_8  and  C17_24 
REMARK    4  A    between atoms: C7_9  and  N3_10 
REMARK       I    between atoms: N3_10  and  C8_11 
REMARK    5  A    between atoms: C8_11  and  C9_13 
REMARK       I    between atoms: C9_13  and  N4_15 
REMARK    6  A    between atoms: N4_15  and  C10_16 
REMARK    7  A    between atoms: C15_21  and  O3_22 
ROOT
ATOM      1  N3  <0> d          -2.790  -1.896   1.668  0.00  0.00    -0.350 N 
ATOM      2  C8  <0> d          -3.329  -2.140   2.879  0.00  0.00     0.309 C 
ATOM      3  O1  <0> d          -2.781  -1.731   3.881  0.00  0.00    -0.262 OA
ATOM      4  H15 <0> d          -3.287  -2.267   0.759  0.00  0.00     0.162 HD
ENDROOT
BRANCH   1   5
ATOM      5  C7  <0> d          -1.543  -1.135   1.562  0.00  0.00     0.164 C 
BRANCH   5   6
ATOM      6  C6  <0> d          -1.087  -1.104   0.101  0.00  0.00     0.274 C 
BRANCH   6   7
ATOM      7  N2  <0> d          -2.188  -0.624  -0.745  0.00  0.00     0.102 N 
ATOM      8  C3  <0> d          -3.009   0.364  -0.030  0.00  0.00     0.301 C 
ATOM      9  C2  <0> d          -4.187   0.780  -0.914  0.00  0.00     0.264 C 
ATOM     10  N1  <0> d          -3.678   1.336  -2.176  0.00  0.00    -0.072 N 
ATOM     11  C1  <0> d          -4.778   1.816  -3.022  0.00  0.00     0.269 C 
ATOM     12  C5  <0> d          -2.857   0.348  -2.890  0.00  0.00     0.264 C 
ATOM     13  H27 <0> d          -3.038   2.197  -1.934  0.00  0.00     0.279 HD
ATOM     14  C4  <0> d          -1.679  -0.068  -2.006  0.00  0.00     0.301 C 
ENDBRANCH   6   7
BRANCH   6  15
ATOM     15  C17 <0> d           0.094  -0.179  -0.037  0.00  0.00    -0.017 A 
ATOM     16  C20 <0> d          -0.077   1.165   0.002  0.00  0.00     0.058 A 
ATOM     17  S1  <0> d           1.594   1.757  -0.204  0.00  0.00    -0.113 SA
ATOM     18  C19 <0> d           2.408   0.173  -0.328  0.00  0.00     0.050 A 
ATOM     19  C18 <0> d           1.368  -0.687  -0.207  0.00  0.00     0.017 A 
ENDBRANCH   6  15
ENDBRANCH   5   6
ENDBRANCH   1   5
BRANCH   2  20
ATOM     20  C9  <0> d          -4.601  -2.916   2.987  0.00  0.00     0.314 C 
ATOM     21  O2  <0> d          -5.150  -3.325   1.985  0.00  0.00    -0.262 OA
ATOM     22  N4  <0> d          -5.140  -3.160   4.198  0.00  0.00    -0.317 N 
ATOM     23  H16 <0> d          -4.697  -2.710   5.098  0.00  0.00     0.169 HD
BRANCH  22  24
ATOM     24  C10 <0> d          -6.263  -3.986   4.310  0.00  0.00     0.068 A 
ATOM     25  C15 <0> d          -7.179  -3.785   5.341  0.00  0.00     0.095 A 
ATOM     26  C14 <0> d          -8.290  -4.606   5.446  0.00  0.00     0.039 A 
ATOM     27  C13 <0> d          -8.489  -5.622   4.529  0.00  0.00     0.003 A 
ATOM     28  C12 <0> d          -7.581  -5.822   3.505  0.00  0.00     0.002 A 
ATOM     29  C11 <0> d          -6.473  -5.005   3.390  0.00  0.00     0.032 A 
BRANCH  25  30
ATOM     30  O3  <0> d          -6.983  -2.786   6.242  0.00  0.00    -0.354 OA
ATOM     31  C16 <0> d          -7.962  -2.639   7.272  0.00  0.00     0.210 C 
ENDBRANCH  25  30
ENDBRANCH  22  24
ENDBRANCH   2  20
TORSDOF 7
