REMARK  6 active torsions:
REMARK  status: ('A' for Active; 'I' for Inactive)
REMARK    1  A    between atoms: O1_2  and  C2_3 
REMARK    2  A    between atoms: C2_3  and  C3_4 
REMARK    3  A    between atoms: C3_4  and  C4_5 
REMARK    4  A    between atoms: C4_5  and  N1_6 
REMARK       I    between atoms: N1_6  and  C5_7 
REMARK    5  A    between atoms: C5_7  and  C6_9 
REMARK    6  A    between atoms: C6_9  and  N2_10 
ROOT
ATOM      1  N2  <0> d          -0.016   1.347   0.009  0.00  0.00    -0.223 N 
ATOM      2  C7  <0> d           0.002  -0.004   0.002  0.00  0.00     0.291 A 
ATOM      3  O3  <0> d          -1.033  -0.645   0.008  0.00  0.00    -0.264 OA
ATOM      4  C8  <0> d           1.310  -0.679  -0.014  0.00  0.00     0.111 A 
ATOM      5  C9  <0> d           1.665  -1.989  -0.025  0.00  0.00     0.049 A 
ATOM      6  C10 <0> d           3.079  -2.053  -0.039  0.00  0.00    -0.004 A 
ATOM      7  C11 <0> d           3.993  -3.115  -0.054  0.00  0.00     0.056 A 
ATOM      8  C12 <0> d           5.334  -2.857  -0.066  0.00  0.00     0.117 A 
ATOM      9  C13 <0> d           5.803  -1.546  -0.063  0.00  0.00     0.044 A 
ATOM     10  C14 <0> d           4.924  -0.487  -0.048  0.00  0.00     0.034 A 
ATOM     11  C15 <0> d           3.552  -0.726  -0.036  0.00  0.00     0.051 A 
ATOM     12  N3  <0> d           2.454   0.105  -0.021  0.00  0.00    -0.299 N 
ATOM     13  C16 <0> d           2.334   1.481  -0.013  0.00  0.00     0.237 A 
ATOM     14  N4  <0> d           1.185   2.063   0.002  0.00  0.00    -0.164 NA
ATOM     15  F1  <0> d           6.214  -3.882  -0.081  0.00  0.00    -0.206 F 
ENDROOT
BRANCH   1  16
ATOM     16  C6  <0> d          -1.295   2.062   0.019  0.00  0.00     0.257 C 
BRANCH  16  17
ATOM     17  C5  <0> d          -1.727   2.300   1.444  0.00  0.00     0.237 C 
ATOM     18  N1  <0> d          -2.882   2.945   1.699  0.00  0.00    -0.360 N 
ATOM     19  H10 <0> d          -3.510   3.299   0.868  0.00  0.00     0.162 HD
ATOM     20  O2  <0> d          -1.034   1.910   2.360  0.00  0.00    -0.272 OA
BRANCH  18  21
ATOM     21  C4  <0> d          -3.301   3.176   3.083  0.00  0.00     0.125 C 
BRANCH  21  22
ATOM     22  C3  <0> d          -4.637   3.923   3.094  0.00  0.00     0.046 C 
BRANCH  22  23
ATOM     23  C2  <0> d          -5.075   4.164   4.540  0.00  0.00     0.168 C 
BRANCH  23  24
ATOM     24  O1  <0> d          -6.322   4.862   4.549  0.00  0.00    -0.396 OA
ATOM     25  C1  <0> d          -6.824   5.138   5.859  0.00  0.00     0.201 C 
ENDBRANCH  23  24
ENDBRANCH  22  23
ENDBRANCH  21  22
ENDBRANCH  18  21
ENDBRANCH  16  17
ENDBRANCH   1  16
TORSDOF 6
