REMARK  10 active torsions:
REMARK  status: ('A' for Active; 'I' for Inactive)
REMARK    1  A    between atoms: C2_2  and  C3_3 
REMARK    2  A    between atoms: C3_3  and  C4_4 
REMARK    3  A    between atoms: C4_4  and  C5_5 
REMARK    4  A    between atoms: C5_5  and  C7_7 
REMARK       I    between atoms: C7_7  and  N1_9 
REMARK    5  A    between atoms: C9_11  and  C16_19 
REMARK       I    between atoms: C16_19  and  N3_21 
REMARK    6  A    between atoms: N3_21  and  C17_22 
REMARK    7  A    between atoms: C17_22  and  C18_23 
REMARK    8  A    between atoms: C18_23  and  N4_24 
REMARK    9  A    between atoms: N4_24  and  C19_25 
REMARK   10  A    between atoms: N4_24  and  C21_27 
ROOT
ATOM      1  C7  <0> d          -2.415  -2.427  -0.764  0.00  0.00     0.223 C 
ATOM      2  O1  <0> d          -1.310  -2.928  -0.778  0.00  0.00    -0.273 OA
ATOM      3  N1  <0> d          -3.504  -3.202  -0.590  0.00  0.00    -0.350 N 
ATOM      4  C8  <0> d          -4.923  -2.779  -0.551  0.00  0.00     0.140 C 
ATOM      5  C9  <0> d          -5.683  -3.889  -1.312  0.00  0.00     0.106 C 
ATOM      6  C10 <0> d          -4.779  -5.128  -1.204  0.00  0.00    -0.007 C 
ATOM      7  C11 <0> d          -3.552  -4.672  -0.401  0.00  0.00     0.136 C 
ATOM      8  C12 <0> d          -4.349  -5.591  -2.593  0.00  0.00     0.039 C 
ATOM      9  C13 <0> d          -3.499  -6.858  -2.463  0.00  0.00     0.233 C 
ATOM     10  N2  <0> d          -4.278  -7.907  -1.794  0.00  0.00    -0.075 N 
ATOM     11  C14 <0> d          -4.608  -7.490  -0.426  0.00  0.00     0.233 C 
ATOM     12  C15 <0> d          -5.506  -6.250  -0.470  0.00  0.00     0.039 C 
ATOM     13  H23 <0> d          -5.130  -8.070  -2.309  0.00  0.00     0.277 HD
ATOM     14  H43 <0> d          -3.738  -8.758  -1.764  0.00  0.00     0.277 HD
ENDROOT
BRANCH   5  15
ATOM     15  C16 <0> d          -5.873  -3.499  -2.756  0.00  0.00     0.224 C 
ATOM     16  O2  <0> d          -5.050  -2.800  -3.308  0.00  0.00    -0.273 OA
ATOM     17  N3  <0> d          -6.957  -3.927  -3.432  0.00  0.00    -0.359 N 
ATOM     18  H28 <0> d          -7.616  -4.486  -2.990  0.00  0.00     0.162 HD
BRANCH  17  19
ATOM     19  C17 <0> d          -7.142  -3.548  -4.835  0.00  0.00     0.150 C 
BRANCH  19  20
ATOM     20  C18 <0> d          -8.442  -4.160  -5.362  0.00  0.00     0.254 C 
BRANCH  20  21
ATOM     21  N4  <0> d          -8.693  -3.677  -6.726  0.00  0.00    -0.070 N 
ATOM     22  H44 <0> d          -8.685  -2.668  -6.732  0.00  0.00     0.279 HD
BRANCH  21  23
ATOM     23  C19 <0> d          -7.645  -4.180  -7.624  0.00  0.00     0.230 C 
ATOM     24  C20 <0> d          -7.836  -3.577  -9.018  0.00  0.00     0.034 C 
ENDBRANCH  21  23
BRANCH  21  25
ATOM     25  C21 <0> d         -10.003  -4.160  -7.183  0.00  0.00     0.230 C 
ATOM     26  C22 <0> d         -11.105  -3.529  -6.328  0.00  0.00     0.034 C 
ENDBRANCH  21  25
ENDBRANCH  20  21
ENDBRANCH  19  20
ENDBRANCH  17  19
ENDBRANCH   5  15
BRANCH   1  27
ATOM     27  C5  <0> d          -2.570  -0.939  -0.942  0.00  0.00     0.074 C 
ATOM     28  C6  <0> d          -3.252  -0.346   0.293  0.00  0.00     0.020 C 
BRANCH  27  29
ATOM     29  C4  <0> d          -1.192  -0.300  -1.119  0.00  0.00     0.013 C 
BRANCH  29  30
ATOM     30  C3  <0> d          -1.355   1.191  -1.423  0.00  0.00     0.000 C 
BRANCH  30  31
ATOM     31  C2  <0> d           0.023   1.830  -1.600  0.00  0.00    -0.005 C 
ATOM     32  C1  <0> d          -0.141   3.320  -1.904  0.00  0.00     0.005 C 
ENDBRANCH  30  31
ENDBRANCH  29  30
ENDBRANCH  27  29
ENDBRANCH   1  27
TORSDOF 10
