REMARK  5 active torsions:
REMARK  status: ('A' for Active; 'I' for Inactive)
REMARK    1  A    between atoms: C8_11  and  C9_13 
REMARK    2  A    between atoms: C9_13  and  C10_14 
REMARK    3  A    between atoms: C10_14  and  C11_15 
REMARK    4  A    between atoms: C11_15  and  C12_16 
REMARK       I    between atoms: C12_16  and  N3_18 
REMARK    5  A    between atoms: N3_18  and  C13_19 
ROOT
ATOM      1  C9  <0> d           4.999  -2.586  -0.063  0.00  0.00     0.079 C 
ENDROOT
BRANCH   1   2
ATOM      2  C8  <0> d           3.650  -1.914  -0.045  0.00  0.00     0.107 A 
ATOM      3  N1  <0> d           2.540  -2.697  -0.038  0.00  0.00    -0.311 N 
ATOM      4  C7  <0> d           1.306  -2.142  -0.022  0.00  0.00     0.259 A 
ATOM      5  H1  <0> d           2.633  -3.663  -0.045  0.00  0.00     0.170 HD
ATOM      6  C5  <0> d           1.224  -0.674  -0.013  0.00  0.00     0.061 A 
ATOM      7  O1  <0> d           0.302  -2.832  -0.017  0.00  0.00    -0.267 OA
ATOM      8  C4  <0> d           2.432   0.058  -0.021  0.00  0.00     0.074 A 
ATOM      9  C6  <0> d           0.002  -0.004   0.002  0.00  0.00     0.019 A 
ATOM     10  C3  <0> d           2.387   1.453  -0.013  0.00  0.00     0.032 A 
ATOM     11  N2  <0> d           3.609  -0.616  -0.037  0.00  0.00    -0.235 NA
ATOM     12  C2  <0> d           1.169   2.096   0.002  0.00  0.00     0.002 A 
ATOM     13  C1  <0> d          -0.017   1.373   0.010  0.00  0.00     0.001 A 
ENDBRANCH   1   2
BRANCH   1  14
ATOM     14  C10 <0> d           6.099  -1.523  -0.069  0.00  0.00     0.017 C 
BRANCH  14  15
ATOM     15  C11 <0> d           7.468  -2.205  -0.087  0.00  0.00     0.103 C 
BRANCH  15  16
ATOM     16  C12 <0> d           8.552  -1.158  -0.093  0.00  0.00     0.217 C 
ATOM     17  O2  <0> d           8.257   0.019  -0.083  0.00  0.00    -0.274 OA
ATOM     18  N3  <0> d           9.847  -1.528  -0.108  0.00  0.00    -0.356 N 
ATOM     19  H13 <0> d          10.082  -2.469  -0.116  0.00  0.00     0.162 HD
BRANCH  18  20
ATOM     20  C13 <0> d          10.900  -0.510  -0.114  0.00  0.00     0.099 C 
ATOM     21  C16 <0> d          12.176  -1.093  -0.768  0.00  0.00     0.165 C 
ATOM     22  S1  <0> d          13.525  -0.221   0.126  0.00  0.00     0.146 S 
ATOM     23  C15 <0> d          12.518   0.750   1.325  0.00  0.00     0.142 C 
ATOM     24  O3  <0> d          14.299  -1.176   0.838  0.00  0.00    -0.228 OA
ATOM     25  O4  <0> d          14.170   0.676  -0.769  0.00  0.00    -0.228 OA
ATOM     26  C14 <0> d          11.203  -0.082   1.332  0.00  0.00     0.041 C 
ENDBRANCH  18  20
ENDBRANCH  15  16
ENDBRANCH  14  15
ENDBRANCH   1  14
TORSDOF 5
