REMARK  4 active torsions:
REMARK  status: ('A' for Active; 'I' for Inactive)
REMARK    1  A    between atoms: C3_3  and  C5_6 
REMARK    2  A    between atoms: C9_10  and  C13_18 
REMARK    3  A    between atoms: C11_12  and  O1_17 
REMARK    4  A    between atoms: C18_23  and  O2_24 
ROOT
ATOM      1  C5  <0> d           3.761   1.845  -0.024  0.00  0.00     0.038 C 
ATOM      2  C6  <0> d           4.481   1.337  -1.274  0.00  0.00     0.067 C 
ATOM      3  C7  <0> d           5.914   1.830  -1.274  0.00  0.00     0.018 C 
ATOM      4  C8  <0> d           6.571   2.001  -0.107  0.00  0.00     0.023 C 
ATOM      5  C9  <0> d           8.020   2.462  -0.050  0.00  0.00     0.097 C 
ATOM      6  C10 <0> d           8.391   2.907  -1.433  0.00  0.00     0.033 A 
ATOM      7  C11 <0> d           9.087   3.909  -1.923  0.00  0.00     0.190 A 
ATOM      8  N1  <0> d           9.004   3.920  -3.281  0.00  0.00    -0.127 NA
ATOM      9  N2  <0> d           8.349   2.986  -3.761  0.00  0.00    -0.160 NA
ATOM     10  C12 <0> d           7.913   2.125  -2.660  0.00  0.00     0.264 A 
ATOM     11  N3  <0> d           6.457   2.085  -2.509  0.00  0.00    -0.365 N 
ATOM     12  C19 <0> d           5.942   1.765   1.127  0.00  0.00     0.159 C 
ATOM     13  O3  <0> d           6.573   1.922   2.154  0.00  0.00    -0.293 OA
ATOM     14  C20 <0> d           4.507   1.323   1.208  0.00  0.00     0.094 C 
ATOM     15  H9  <0> d           5.881   2.238  -3.274  0.00  0.00     0.162 HD
ENDROOT
BRANCH   5  16
ATOM     16  C13 <0> d           8.906   1.322   0.381  0.00  0.00    -0.011 A 
ATOM     17  C18 <0> d           9.667   1.432   1.535  0.00  0.00     0.073 A 
ATOM     18  C17 <0> d          10.478   0.379   1.932  0.00  0.00     0.038 A 
ATOM     19  C16 <0> d          10.534  -0.773   1.172  0.00  0.00     0.022 A 
ATOM     20  C15 <0> d           9.778  -0.879   0.018  0.00  0.00     0.011 A 
ATOM     21  C14 <0> d           8.965   0.168  -0.377  0.00  0.00     0.030 A 
ATOM     22 Br1  <0> d           9.857  -2.457  -1.021  0.00  0.00    -0.051 Br
BRANCH  17  23
ATOM     23  O2  <0> d           9.614   2.568   2.279  0.00  0.00    -0.360 OA
ATOM     24  H14 <0> d           8.933   2.558   2.965  0.00  0.00     0.217 HD
ENDBRANCH  17  23
ENDBRANCH   5  16
BRANCH   7  25
ATOM     25  O1  <0> d           9.789   4.806  -1.179  0.00  0.00    -0.343 OA
ATOM     26  H10 <0> d          10.244   5.480  -1.702  0.00  0.00     0.219 HD
ENDBRANCH   7  25
BRANCH   1  27
ATOM     27  C3  <0> d           2.343   1.336  -0.013  0.00  0.00    -0.013 A 
ATOM     28  C2  <0> d           1.183   2.038   0.002  0.00  0.00     0.015 A 
ATOM     29  C1  <0> d          -0.016   1.351   0.009  0.00  0.00     0.008 A 
ATOM     30  C4  <0> d           0.002  -0.004   0.002  0.00  0.00     0.050 A 
ATOM     31  S1  <0> d           1.754  -0.349  -0.017  0.00  0.00    -0.106 SA
ENDBRANCH   1  27
TORSDOF 4
