REMARK  3 active torsions:
REMARK  status: ('A' for Active; 'I' for Inactive)
REMARK    1  A    between atoms: C4_4  and  C7_7 
REMARK    2  A    between atoms: C7_7  and  C18_20 
REMARK    3  A    between atoms: C23_25  and  C24_26 
ROOT
ATOM      1  C7  <0> d           1.966  -0.617   1.779  0.00  0.00     0.236 C 
ATOM      2  C8  <0> d           1.118  -1.835   2.153  0.00  0.00     0.160 A 
ATOM      3  C9  <0> d           1.657  -2.998   1.327  0.00  0.00    -0.040 A 
ATOM      4  C10 <0> d           1.944  -3.967   2.186  0.00  0.00    -0.005 A 
ATOM      5  C11 <0> d           2.411  -5.348   1.987  0.00  0.00     0.014 A 
ATOM      6  C12 <0> d           2.622  -6.078   3.114  0.00  0.00     0.001 A 
ATOM      7  C13 <0> d           2.418  -5.578   4.404  0.00  0.00     0.002 A 
ATOM      8  C14 <0> d           1.984  -4.322   4.680  0.00  0.00     0.030 A 
ATOM      9  C15 <0> d           1.722  -3.461   3.575  0.00  0.00     0.039 A 
ATOM     10  N1  <0> d           1.274  -2.220   3.555  0.00  0.00    -0.378 N 
ATOM     11  C16 <0> d           1.864  -2.882  -0.164  0.00  0.00     0.067 C 
ATOM     12  C17 <0> d           2.615  -1.557  -0.391  0.00  0.00     0.276 C 
ATOM     13  N2  <0> d           1.939  -0.466   0.316  0.00  0.00     0.105 N 
ATOM     14  H15 <0> d           0.995  -0.349  -0.018  0.00  0.00     0.317 HD
ATOM     15  H20 <0> d           1.083  -1.658   4.322  0.00  0.00     0.160 HD
ENDROOT
BRANCH   1  16
ATOM     16  C4  <0> d           1.394   0.618   2.428  0.00  0.00    -0.013 A 
ATOM     17  C3  <0> d           0.997   1.687   1.647  0.00  0.00     0.010 A 
ATOM     18  C2  <0> d           0.471   2.819   2.242  0.00  0.00     0.001 A 
ATOM     19  C1  <0> d           0.342   2.881   3.617  0.00  0.00     0.000 A 
ATOM     20  C6  <0> d           0.739   1.811   4.397  0.00  0.00     0.001 A 
ATOM     21  C5  <0> d           1.266   0.680   3.803  0.00  0.00     0.010 A 
ENDBRANCH   1  16
BRANCH   1  22
ATOM     22  C18 <0> d           3.385  -0.823   2.243  0.00  0.00     0.004 A 
ATOM     23  C23 <0> d           4.290   0.241   2.220  0.00  0.00     0.050 A 
ATOM     24  C22 <0> d           5.602   0.043   2.658  0.00  0.00     0.019 A 
ATOM     25  C21 <0> d           5.998  -1.203   3.097  0.00  0.00     0.001 A 
ATOM     26  C20 <0> d           5.097  -2.254   3.112  0.00  0.00     0.001 A 
ATOM     27  C19 <0> d           3.795  -2.063   2.686  0.00  0.00     0.011 A 
BRANCH  23  28
ATOM     28  C24 <0> d           3.861   1.569   1.742  0.00  0.00     0.210 C 
ATOM     29  O1  <0> d           4.006   2.552   2.456  0.00  0.00    -0.644 OA
ATOM     30  O2  <0> d           3.361   1.688   0.633  0.00  0.00    -0.644 OA
ENDBRANCH  23  28
ENDBRANCH   1  22
TORSDOF 3
