REMARK  1 active torsions:
REMARK  status: ('A' for Active; 'I' for Inactive)
REMARK    1  A    between atoms: N1_2  and  C3_4 
ROOT
ATOM      1  C3  <0> d          -1.310  -0.488   0.012  0.00  0.00     0.249 C 
ATOM      2  C4  <0> d          -1.778  -1.173  -1.038  0.00  0.00     0.153 C 
ATOM      3  N2  <0> d          -0.919  -1.496  -2.090  0.00  0.00    -0.310 N 
ATOM      4  C5  <0> d          -1.397  -2.074  -3.206  0.00  0.00     0.234 C 
ATOM      5  O1  <0> d          -0.628  -2.389  -4.088  0.00  0.00    -0.272 OA
ATOM      6  C6  <0> d          -2.860  -2.336  -3.381  0.00  0.00     0.140 C 
ATOM      7  C7  <0> d          -3.614  -2.143  -2.091  0.00  0.00     0.061 C 
ATOM      8  N3  <0> d          -3.081  -1.552  -1.065  0.00  0.00    -0.233 NA
ATOM      9  C8  <0> d          -4.994  -2.664  -2.023  0.00  0.00    -0.004 A 
ATOM     10  C9  <0> d          -5.830  -2.280  -0.972  0.00  0.00     0.014 A 
ATOM     11  C10 <0> d          -7.116  -2.775  -0.905  0.00  0.00     0.001 A 
ATOM     12  C11 <0> d          -7.571  -3.648  -1.877  0.00  0.00     0.001 A 
ATOM     13  C12 <0> d          -6.748  -4.028  -2.921  0.00  0.00     0.008 A 
ATOM     14  C13 <0> d          -5.456  -3.538  -3.008  0.00  0.00    -0.045 A 
ATOM     15  C14 <0> d          -4.595  -3.956  -4.168  0.00  0.00     0.050 C 
ATOM     16  C15 <0> d          -3.115  -3.766  -3.851  0.00  0.00    -0.019 C 
ATOM     17  C16 <0> d          -2.281  -4.055  -5.113  0.00  0.00     0.011 C 
ATOM     18  C17 <0> d          -1.005  -4.748  -4.572  0.00  0.00     0.001 C 
ATOM     19  C18 <0> d          -1.553  -5.628  -3.421  0.00  0.00     0.001 C 
ATOM     20  C19 <0> d          -2.656  -4.762  -2.775  0.00  0.00     0.011 C 
ATOM     21  H23 <0> d           0.029  -1.303  -2.015  0.00  0.00     0.170 HD
ENDROOT
BRANCH   1  22
ATOM     22  N1  <0> d          -0.004   0.013  -0.006  0.00  0.00    -0.055 N 
ATOM     23  C1  <0> d          -0.043   1.481   0.014  0.00  0.00     0.275 C 
ATOM     24  C2  <0> d           0.723  -0.474   1.173  0.00  0.00     0.275 C 
ATOM     25  H24 <0> d           0.464  -0.300  -0.843  0.00  0.00     0.284 HD
ENDBRANCH   1  22
TORSDOF 1
