REMARK  6 active torsions:
REMARK  status: ('A' for Active; 'I' for Inactive)
REMARK    1  A    between atoms: C6_6  and  C7_7 
REMARK    2  A    between atoms: C7_7  and  O3_24 
REMARK    3  A    between atoms: C12_12  and  C13_13 
REMARK    4  A    between atoms: C12_12  and  N1_28 
REMARK    5  A    between atoms: C13_13  and  C14_14 
REMARK    6  A    between atoms: C13_13  and  O2_23 
ROOT
ATOM      1  C7  <0> d          -5.005   4.996   2.271  0.00  0.00     0.088 C 
ATOM      2  C8  <0> d          -5.129   3.542   2.733  0.00  0.00     0.071 C 
ATOM      3  C9  <0> d          -3.737   2.910   2.797  0.00  0.00     0.238 C 
ATOM      4  C10 <0> d          -2.937   4.358   1.026  0.00  0.00     0.238 C 
ATOM      5  C11 <0> d          -4.306   5.032   0.909  0.00  0.00     0.071 C 
ATOM      6  N1  <0> d          -3.128   2.955   1.450  0.00  0.00    -0.068 N 
ATOM      7  H25 <0> d          -3.756   2.488   0.785  0.00  0.00     0.280 HD
ENDROOT
BRANCH   6   8
ATOM      8  C12 <0> d          -1.830   2.249   1.460  0.00  0.00     0.271 C 
BRANCH   8   9
ATOM      9  C13 <0> d          -1.330   2.117   0.020  0.00  0.00     0.177 C 
BRANCH   9  10
ATOM     10  C14 <0> d          -0.017   1.379   0.010  0.00  0.00    -0.027 A 
ATOM     11  C19 <0> d           1.175   2.082   0.002  0.00  0.00     0.019 A 
ATOM     12  C18 <0> d           2.374   1.404  -0.013  0.00  0.00    -0.022 A 
ATOM     13  C17 <0> d           2.406   0.016  -0.015  0.00  0.00     0.075 A 
ATOM     14  C20 <0> d           3.813   1.881  -0.034  0.00  0.00     0.068 C 
ATOM     15  C16 <0> d           1.202  -0.685  -0.010  0.00  0.00     0.038 A 
ATOM     16  O1  <0> d           3.686  -0.448  -0.010  0.00  0.00    -0.350 OA
ATOM     17  C15 <0> d           0.002  -0.004   0.002  0.00  0.00     0.012 A 
ATOM     18  C21 <0> d           4.570   0.597  -0.447  0.00  0.00     0.180 C 
ENDBRANCH   9  10
BRANCH   9  19
ATOM     19  O2  <0> d          -2.290   1.393  -0.752  0.00  0.00    -0.389 OA
ATOM     20  H23 <0> d          -2.463   0.498  -0.427  0.00  0.00     0.210 HD
ENDBRANCH   9  19
ENDBRANCH   8   9
ENDBRANCH   6   8
BRANCH   1  21
ATOM     21  C6  <0> d          -6.377   5.606   2.151  0.00  0.00    -0.024 A 
ATOM     22  C1  <0> d          -7.460   4.811   1.822  0.00  0.00     0.013 A 
ATOM     23  C2  <0> d          -8.720   5.368   1.716  0.00  0.00     0.043 A 
ATOM     24  C3  <0> d          -8.897   6.725   1.929  0.00  0.00     0.116 A 
ATOM     25  C4  <0> d          -7.811   7.521   2.253  0.00  0.00     0.043 A 
ATOM     26  F1  <0> d         -10.127   7.271   1.821  0.00  0.00    -0.206 F 
ATOM     27  C5  <0> d          -6.553   6.961   2.363  0.00  0.00     0.013 A 
ENDBRANCH   1  21
BRANCH   1  28
ATOM     28  O3  <0> d          -4.236   5.735   3.222  0.00  0.00    -0.385 OA
ATOM     29  H24 <0> d          -4.116   6.667   2.993  0.00  0.00     0.211 HD
ENDBRANCH   1  28
TORSDOF 6
