REMARK  6 active torsions:
REMARK  status: ('A' for Active; 'I' for Inactive)
REMARK    1  A    between atoms: C2_2  and  N1_3 
REMARK       I    between atoms: N1_3  and  C3_4 
REMARK       I    between atoms: C3_4  and  N2_6 
REMARK    2  A    between atoms: N2_6  and  C4_7 
REMARK    3  A    between atoms: C4_7  and  C9_12 
REMARK       I    between atoms: C9_12  and  N3_14 
REMARK    4  A    between atoms: N3_14  and  C10_15 
REMARK    5  A    between atoms: C14_19  and  C16_21 
REMARK    6  A    between atoms: C16_21  and  N4_22 
ROOT
ATOM      1  C9  <0> d          -2.082  -4.608  -0.902  0.00  0.00     0.250 C 
ATOM      2  O2  <0> d          -2.457  -5.702  -1.267  0.00  0.00    -0.270 OA
ATOM      3  N3  <0> d          -1.085  -3.983  -1.560  0.00  0.00    -0.325 N 
ATOM      4  H16 <0> d          -0.853  -3.069  -1.333  0.00  0.00     0.169 HD
ENDROOT
BRANCH   3   5
ATOM      5  C10 <0> d          -0.385  -4.654  -2.569  0.00  0.00     0.035 A 
ATOM      6  C15 <0> d           0.936  -4.323  -2.837  0.00  0.00     0.038 A 
ATOM      7  C14 <0> d           1.627  -4.991  -3.829  0.00  0.00    -0.036 A 
ATOM      8  C13 <0> d           0.999  -5.979  -4.565  0.00  0.00     0.009 A 
ATOM      9  C12 <0> d          -0.320  -6.307  -4.305  0.00  0.00     0.003 A 
ATOM     10  C11 <0> d          -1.013  -5.647  -3.309  0.00  0.00     0.029 A 
BRANCH   7  11
ATOM     11  C16 <0> d           3.063  -4.638  -4.116  0.00  0.00     0.189 C 
BRANCH  11  12
ATOM     12  N4  <0> d           3.114  -3.577  -5.125  0.00  0.00    -0.270 N 
ATOM     13  N5  <0> d           3.113  -2.199  -4.874  0.00  0.00    -0.177 NA
ATOM     14  C19 <0> d           3.170  -1.574  -6.022  0.00  0.00     0.053 A 
ATOM     15  C18 <0> d           3.199  -2.533  -7.040  0.00  0.00     0.055 A 
ATOM     16  C20 <0> d           3.193  -0.080  -6.214  0.00  0.00     0.072 C 
ATOM     17  C17 <0> d           3.163  -3.756  -6.462  0.00  0.00     0.029 A 
ATOM     18  C21 <0> d           3.177  -5.079  -7.182  0.00  0.00     0.070 C 
ENDBRANCH  11  12
ENDBRANCH   7  11
ENDBRANCH   3   5
BRANCH   1  19
ATOM     19  C4  <0> d          -2.729  -3.947   0.288  0.00  0.00     0.115 C 
ATOM     20  C8  <0> d          -3.629  -2.789  -0.178  0.00  0.00     0.041 C 
ATOM     21  C7  <0> d          -5.061  -3.129   0.285  0.00  0.00     0.003 C 
ATOM     22  C6  <0> d          -4.855  -4.098   1.476  0.00  0.00     0.003 C 
ATOM     23  C5  <0> d          -3.646  -4.951   1.017  0.00  0.00     0.041 C 
BRANCH  19  24
ATOM     24  N2  <0> d          -1.702  -3.448   1.205  0.00  0.00    -0.325 N 
ATOM     25  C3  <0> d          -0.786  -4.293   1.716  0.00  0.00     0.317 C 
ATOM     26  N1  <0> d           0.224  -3.817   2.470  0.00  0.00    -0.343 N 
ATOM     27  O1  <0> d          -0.870  -5.486   1.495  0.00  0.00    -0.247 OA
ATOM     28  H6  <0> d           0.292  -2.866   2.646  0.00  0.00     0.164 HD
ATOM     29  H7  <0> d          -1.682  -2.508   1.445  0.00  0.00     0.165 HD
BRANCH  26  30
ATOM     30  C2  <0> d           1.221  -4.737   3.025  0.00  0.00     0.120 C 
ATOM     31  C1  <0> d           2.250  -3.945   3.836  0.00  0.00     0.026 C 
ENDBRANCH  26  30
ENDBRANCH  19  24
ENDBRANCH   1  19
TORSDOF 6
