REMARK  3 active torsions:
REMARK  status: ('A' for Active; 'I' for Inactive)
REMARK    1  A    between atoms: C3_4  and  C4_7 
REMARK    2  A    between atoms: N4_11  and  C9_13 
REMARK    3  A    between atoms: C9_13  and  C10_14 
ROOT
ATOM      1  C4  <0> d          -1.137  -2.862   1.248  0.00  0.00     0.050 C 
ATOM      2  C5  <0> d          -2.666  -2.805   1.292  0.00  0.00     0.011 C 
ATOM      3  C6  <0> d          -3.162  -3.593   2.508  0.00  0.00     0.028 C 
ATOM      4  C7  <0> d          -2.637  -5.028   2.427  0.00  0.00     0.235 C 
ATOM      5  N4  <0> d          -1.169  -5.016   2.415  0.00  0.00    -0.065 N 
ATOM      6  C8  <0> d          -0.686  -4.324   1.214  0.00  0.00     0.243 C 
ATOM      7  H21 <0> d          -0.831  -4.537   3.236  0.00  0.00     0.280 HD
ENDROOT
BRANCH   1   8
ATOM      8  C3  <0> d          -0.635  -2.143  -0.006  0.00  0.00     0.180 A 
ATOM      9  N1  <0> d          -1.059  -0.735   0.003  0.00  0.00    -0.361 N 
ATOM     10  C2  <0> d           0.002  -0.004   0.002  0.00  0.00     0.084 A 
ATOM     11  H20 <0> d          -1.974  -0.414   0.010  0.00  0.00     0.162 HD
ATOM     12  C1  <0> d          -0.018   1.503   0.010  0.00  0.00     0.089 C 
ATOM     13  N3  <0> d           1.144  -0.746  -0.013  0.00  0.00    -0.309 N 
ATOM     14  N2  <0> d           0.841  -2.080  -0.013  0.00  0.00    -0.216 NA
ATOM     15  H7  <0> d           2.043  -0.382  -0.020  0.00  0.00     0.182 HD
ATOM     16  H6  <0> d           1.218  -2.533  -0.832  0.00  0.00     0.149 HD
ENDBRANCH   1   8
BRANCH   5  17
ATOM     17  C9  <0> d          -0.669  -6.397   2.416  0.00  0.00     0.299 C 
BRANCH  17  18
ATOM     18  C10 <0> d          -1.052  -7.069   3.709  0.00  0.00     0.080 A 
ATOM     19  O1  <0> d          -0.319  -7.082   4.835  0.00  0.00    -0.306 OA
ATOM     20  C13 <0> d          -0.971  -7.770   5.787  0.00  0.00     0.121 A 
ATOM     21  C12 <0> d          -2.131  -8.214   5.270  0.00  0.00     0.048 A 
ATOM     22 Br1  <0> d          -0.358  -8.070   7.550  0.00  0.00    -0.023 Br
ATOM     23  C11 <0> d          -2.183  -7.762   3.931  0.00  0.00     0.038 A 
ENDBRANCH  17  18
ENDBRANCH   5  17
TORSDOF 3
