REMARK  3 active torsions:
REMARK  status: ('A' for Active; 'I' for Inactive)
REMARK    1  A    between atoms: C2_2  and  N1_19 
REMARK    2  A    between atoms: C5_5  and  S1_8 
REMARK    3  A    between atoms: S1_8  and  C7_11 
ROOT
ATOM      1  C1  <0> d          -0.017   1.379   0.010  0.00  0.00     0.073 A 
ATOM      2  C2  <0> d           1.177   2.089   0.002  0.00  0.00     0.031 A 
ATOM      3  C3  <0> d           2.387   1.408  -0.013  0.00  0.00     0.073 A 
ATOM      4  C4  <0> d           2.401   0.025  -0.021  0.00  0.00     0.143 A 
ATOM      5  C5  <0> d           1.210  -0.681  -0.014  0.00  0.00     0.136 A 
ATOM      6  C6  <0> d           0.002  -0.004   0.002  0.00  0.00     0.143 A 
ATOM      7  F1  <0> d          -1.159  -0.695   0.010  0.00  0.00    -0.204 F 
ATOM      8  F2  <0> d           3.579  -0.638  -0.035  0.00  0.00    -0.204 F 
ENDROOT
BRANCH   5   9
ATOM      9  S1  <0> d           1.231  -2.443  -0.024  0.00  0.00     0.186 S 
ATOM     10  O1  <0> d          -0.005  -2.817  -0.617  0.00  0.00    -0.222 OA
ATOM     11  O2  <0> d           2.464  -2.787  -0.640  0.00  0.00    -0.222 OA
BRANCH   9  12
ATOM     12  C7  <0> d           1.253  -2.919   1.726  0.00  0.00     0.128 C 
ATOM     13  C10 <0> d           1.295  -4.462   1.839  0.00  0.00     0.160 C 
ATOM     14  S2  <0> d           0.368  -4.781   3.394  0.00  0.00     0.145 S 
ATOM     15  C9  <0> d          -0.124  -3.056   3.814  0.00  0.00     0.142 C 
ATOM     16  O3  <0> d           1.271  -5.257   4.382  0.00  0.00    -0.228 OA
ATOM     17  O4  <0> d          -0.798  -5.534   3.091  0.00  0.00    -0.228 OA
ATOM     18  C8  <0> d          -0.010  -2.379   2.418  0.00  0.00     0.036 C 
ENDBRANCH   9  12
ENDBRANCH   5   9
BRANCH   2  19
ATOM     19  N1  <0> d           1.161   3.485   0.009  0.00  0.00    -0.399 N 
ATOM     20  H10 <0> d           0.315   3.960   0.019  0.00  0.00     0.156 HD
ATOM     21  H11 <0> d           1.995   3.980   0.004  0.00  0.00     0.156 HD
ENDBRANCH   2  19
TORSDOF 3
