REMARK  10 active torsions:
REMARK  status: ('A' for Active; 'I' for Inactive)
REMARK    1  A    between atoms: C2_2  and  O1_3 
REMARK    2  A    between atoms: O1_3  and  C3_4 
REMARK    3  A    between atoms: C4_5  and  C15_21 
REMARK    4  A    between atoms: C7_8  and  S1_11 
REMARK    5  A    between atoms: S1_11  and  O4_14 
REMARK    6  A    between atoms: O4_14  and  C9_15 
REMARK    7  A    between atoms: C15_21  and  C16_22 
REMARK    8  A    between atoms: C15_21  and  N1_25 
REMARK    9  A    between atoms: C16_22  and  C17_23 
REMARK   10  A    between atoms: N1_25  and  C18_26 
ROOT
ATOM      1  C3  <0> d          -0.580  -2.276  -0.429  0.00  0.00     0.096 A 
ATOM      2  C4  <0> d          -0.687  -2.771  -1.721  0.00  0.00    -0.000 A 
ATOM      3  C5  <0> d          -0.787  -4.132  -1.932  0.00  0.00     0.013 A 
ATOM      4  C6  <0> d          -0.779  -5.002  -0.857  0.00  0.00     0.028 A 
ATOM      5  C7  <0> d          -0.671  -4.513   0.431  0.00  0.00     0.106 A 
ATOM      6  C8  <0> d          -0.566  -3.151   0.648  0.00  0.00     0.068 A 
ATOM      7 Br1  <0> d          -0.411  -2.482   2.410  0.00  0.00    -0.046 Br
ENDROOT
BRANCH   5   8
ATOM      8  S1  <0> d          -0.662  -5.625   1.798  0.00  0.00     0.304 S 
ATOM      9  O2  <0> d           0.695  -5.983   2.021  0.00  0.00    -0.193 OA
ATOM     10  O3  <0> d          -1.469  -5.034   2.808  0.00  0.00    -0.193 OA
BRANCH   8  11
ATOM     11  O4  <0> d          -1.380  -6.891   1.353  0.00  0.00    -0.229 OA
BRANCH  11  12
ATOM     12  C9  <0> d          -2.733  -6.773   1.309  0.00  0.00     0.089 A 
ATOM     13  C14 <0> d          -3.365  -6.460   0.115  0.00  0.00     0.038 A 
ATOM     14  C13 <0> d          -4.741  -6.346   0.071  0.00  0.00     0.003 A 
ATOM     15  C12 <0> d          -5.487  -6.533   1.220  0.00  0.00     0.000 A 
ATOM     16  C11 <0> d          -4.859  -6.839   2.413  0.00  0.00     0.003 A 
ATOM     17  C10 <0> d          -3.484  -6.960   2.460  0.00  0.00     0.038 A 
ENDBRANCH  11  12
ENDBRANCH   8  11
ENDBRANCH   5   8
BRANCH   1  18
ATOM     18  O1  <0> d          -0.482  -0.937  -0.219  0.00  0.00    -0.349 OA
BRANCH  18  19
ATOM     19  C2  <0> d           0.829  -0.369  -0.249  0.00  0.00     0.171 C 
ATOM     20  C1  <0> d           0.730   1.152  -0.123  0.00  0.00     0.034 C 
ENDBRANCH  18  19
ENDBRANCH   1  18
BRANCH   2  21
ATOM     21  C15 <0> d          -0.697  -1.823  -2.893  0.00  0.00     0.126 C 
BRANCH  21  22
ATOM     22  C16 <0> d          -0.468  -2.609  -4.185  0.00  0.00     0.099 C 
BRANCH  22  23
ATOM     23  C17 <0> d          -0.331  -1.649  -5.339  0.00  0.00     0.233 C 
ATOM     24  O5  <0> d           0.646  -1.693  -6.048  0.00  0.00    -0.307 OA
ENDBRANCH  22  23
ENDBRANCH  21  22
BRANCH  21  25
ATOM     25  N1  <0> d          -1.991  -1.141  -2.958  0.00  0.00    -0.359 N 
ATOM     26  H17 <0> d          -2.032  -0.173  -2.907  0.00  0.00     0.162 HD
BRANCH  25  27
ATOM     27  C18 <0> d          -3.125  -1.857  -3.091  0.00  0.00     0.349 C 
ATOM     28  O6  <0> d          -3.083  -3.069  -3.063  0.00  0.00    -0.284 OA
ENDBRANCH  25  27
ENDBRANCH  21  25
ENDBRANCH   2  21
TORSDOF 10
