REMARK  4 active torsions:
REMARK  status: ('A' for Active; 'I' for Inactive)
REMARK    1  A    between atoms: C2_2  and  C3_3 
REMARK    2  A    between atoms: C2_2  and  C12_16 
REMARK    3  A    between atoms: C2_2  and  N3_19 
REMARK    4  A    between atoms: C4_6  and  C6_9 
ROOT
ATOM      1  C3  <0> d           0.731  -0.503   1.223  0.00  0.00     0.140 A 
ATOM      2  N1  <0> d           0.322  -0.344   2.500  0.00  0.00    -0.341 N 
ATOM      3  H1  <0> d          -0.484   0.108   2.796  0.00  0.00     0.167 HD
ATOM      4  C4  <0> d           1.265  -0.943   3.305  0.00  0.00     0.061 A 
ATOM      5  C5  <0> d           2.217  -1.447   2.474  0.00  0.00     0.149 A 
ATOM      6  N2  <0> d           1.857  -1.165   1.216  0.00  0.00    -0.242 NA
ENDROOT
BRANCH   1   7
ATOM      7  C2  <0> d           0.002  -0.004   0.002  0.00  0.00     0.183 C 
ATOM      8  C1  <0> d          -0.019   1.526   0.010  0.00  0.00     0.055 C 
BRANCH   7   9
ATOM      9  C12 <0> d           0.718  -0.497  -1.257  0.00  0.00     0.029 A 
ATOM     10  C14 <0> d           0.128  -0.094  -2.609  0.00  0.00     0.008 A 
ATOM     11  C13 <0> d          -0.002  -1.537  -2.118  0.00  0.00     0.008 A 
ENDBRANCH   7   9
BRANCH   7  12
ATOM     12  N3  <0> d          -1.376  -0.512   0.012  0.00  0.00    -0.063 N 
ATOM     13  H15 <0> d          -1.864  -0.178  -0.805  0.00  0.00     0.275 HD
ATOM     14  H16 <0> d          -1.362  -1.521   0.007  0.00  0.00     0.275 HD
ATOM     15  H17 <0> d          -1.848  -0.187   0.843  0.00  0.00     0.275 HD
ENDBRANCH   7  12
ENDBRANCH   1   7
BRANCH   4  16
ATOM     16  C6  <0> d           1.247  -1.023   4.781  0.00  0.00    -0.007 A 
ATOM     17  C11 <0> d           2.281  -1.668   5.461  0.00  0.00     0.032 A 
ATOM     18  C10 <0> d           2.261  -1.733   6.840  0.00  0.00     0.011 A 
ATOM     19  C9  <0> d           1.212  -1.171   7.547  0.00  0.00     0.019 A 
ATOM     20 Br1  <0> d           3.666  -2.599   7.764  0.00  0.00    -0.051 Br
ATOM     21  C8  <0> d           0.181  -0.536   6.878  0.00  0.00     0.002 A 
ATOM     22  C7  <0> d           0.192  -0.459   5.501  0.00  0.00     0.014 A 
ENDBRANCH   4  16
TORSDOF 4
