REMARK  7 active torsions:
REMARK  status: ('A' for Active; 'I' for Inactive)
REMARK    1  A    between atoms: C5_5  and  N1_8 
REMARK       I    between atoms: N1_8  and  C8_9 
REMARK    2  A    between atoms: C8_9  and  C9_11 
REMARK    3  A    between atoms: C9_11  and  S1_12 
REMARK    4  A    between atoms: S1_12  and  C10_13 
REMARK    5  A    between atoms: C11_15  and  N4_25 
REMARK    6  A    between atoms: N5_28  and  C23_31 
REMARK    7  A    between atoms: C23_31  and  C24_32 
REMARK       I    between atoms: C24_32  and  N6_34 
ROOT
ATOM      1  C10 <0> d           0.593  -8.709   2.636  0.00  0.00     0.191 A 
ATOM      2  N2  <0> d           0.708  -9.472   3.717  0.00  0.00    -0.204 NA
ATOM      3  C11 <0> d           0.821 -10.787   3.640  0.00  0.00     0.142 A 
ATOM      4  C12 <0> d           0.821 -11.408   2.360  0.00  0.00     0.053 A 
ATOM      5  C13 <0> d           0.934 -12.841   2.040  0.00  0.00    -0.028 A 
ATOM      6  C14 <0> d           0.908 -13.177   0.741  0.00  0.00    -0.008 A 
ATOM      7  S2  <0> d           0.731 -11.637  -0.132  0.00  0.00    -0.073 SA
ATOM      8  C15 <0> d           0.695 -10.541   1.260  0.00  0.00     0.115 A 
ATOM      9  N3  <0> d           0.581  -9.236   1.419  0.00  0.00    -0.215 NA
ATOM     10  C16 <0> d           1.037 -14.662   0.534  0.00  0.00     0.047 C 
ATOM     11  C17 <0> d           1.582 -15.195   1.877  0.00  0.00     0.010 C 
ATOM     12  C18 <0> d           1.081 -14.123   2.865  0.00  0.00     0.041 C 
ENDROOT
BRANCH   1  13
ATOM     13  S1  <0> d           0.445  -6.963   2.823  0.00  0.00    -0.081 SA
BRANCH  13  14
ATOM     14  C9  <0> d           0.308  -6.350   1.121  0.00  0.00     0.185 C 
BRANCH  14  15
ATOM     15  C8  <0> d           0.174  -4.849   1.138  0.00  0.00     0.231 C 
ATOM     16  N1  <0> d           0.057  -4.170  -0.021  0.00  0.00    -0.327 N 
ATOM     17  H8  <0> d          -0.025  -4.651  -0.859  0.00  0.00     0.169 HD
ATOM     18  O1  <0> d           0.171  -4.252   2.193  0.00  0.00    -0.272 OA
BRANCH  16  19
ATOM     19  C5  <0> d           0.055  -2.771  -0.015  0.00  0.00     0.034 A 
ATOM     20  C4  <0> d           0.685  -2.078   1.011  0.00  0.00     0.030 A 
ATOM     21  C3  <0> d           0.682  -0.697   1.014  0.00  0.00     0.009 A 
ATOM     22  C2  <0> d           0.053  -0.004  -0.003  0.00  0.00    -0.062 A 
ATOM     23  C1  <0> d           0.051   1.503   0.003  0.00  0.00     0.048 C 
ATOM     24  C7  <0> d          -0.580  -0.690  -1.024  0.00  0.00     0.009 A 
ATOM     25  C6  <0> d          -0.576  -2.071  -1.035  0.00  0.00     0.030 A 
ENDBRANCH  16  19
ENDBRANCH  14  15
ENDBRANCH  13  14
ENDBRANCH   1  13
BRANCH   3  26
ATOM     26  N4  <0> d           0.940 -11.549   4.788  0.00  0.00    -0.362 N 
ATOM     27  C22 <0> d          -0.241 -12.168   5.410  0.00  0.00     0.152 C 
ATOM     28  C21 <0> d          -0.249 -11.821   6.898  0.00  0.00     0.255 C 
ATOM     29  N5  <0> d           1.031 -12.214   7.501  0.00  0.00    -0.060 N 
ATOM     30  C20 <0> d           2.122 -11.426   6.916  0.00  0.00     0.255 C 
ATOM     31  H29 <0> d           1.195 -13.195   7.328  0.00  0.00     0.280 HD
ATOM     32  C19 <0> d           2.249 -11.758   5.426  0.00  0.00     0.152 C 
BRANCH  29  33
ATOM     33  C23 <0> d           0.980 -11.979   8.950  0.00  0.00     0.336 C 
BRANCH  33  34
ATOM     34  C24 <0> d          -0.057 -12.879   9.570  0.00  0.00     0.241 C 
ATOM     35  O2  <0> d          -0.693 -13.641   8.873  0.00  0.00    -0.272 OA
ATOM     36  N6  <0> d          -0.280 -12.836  10.898  0.00  0.00    -0.369 N 
ATOM     37  H27 <0> d           0.229 -12.226  11.456  0.00  0.00     0.159 HD
ATOM     38  H28 <0> d          -0.948 -13.415  11.297  0.00  0.00     0.159 HD
ENDBRANCH  33  34
ENDBRANCH  29  33
ENDBRANCH   3  26
TORSDOF 7
