REMARK  7 active torsions:
REMARK  status: ('A' for Active; 'I' for Inactive)
REMARK    1  A    between atoms: C2_2  and  O1_3 
REMARK    2  A    between atoms: O1_3  and  C3_4 
REMARK    3  A    between atoms: C3_4  and  C4_6 
REMARK    4  A    between atoms: C4_6  and  C17_23 
REMARK    5  A    between atoms: C7_9  and  C8_10 
REMARK    6  A    between atoms: C17_23  and  C18_24 
REMARK    7  A    between atoms: C21_27  and  O5_30 
ROOT
ATOM      1  C4  <0> d           0.195   3.272   1.648  0.00  0.00     0.229 C 
ATOM      2  C5  <0> d           1.038   3.532   0.454  0.00  0.00     0.140 C 
ATOM      3  C6  <0> d           1.386   2.059  -0.000  0.00  0.00     0.130 C 
ATOM      4  C7  <0> d          -0.018   1.503   0.010  0.00  0.00     0.237 C 
ATOM      5  C14 <0> d           2.183   2.408  -1.198  0.00  0.00     0.233 C 
ATOM      6  O3  <0> d           2.228   1.809  -2.251  0.00  0.00    -0.272 OA
ATOM      7  N1  <0> d           2.858   3.552  -0.862  0.00  0.00    -0.292 N 
ATOM      8  C15 <0> d           2.341   4.160   0.254  0.00  0.00     0.234 C 
ATOM      9  O4  <0> d           2.854   5.029   0.926  0.00  0.00    -0.272 OA
ATOM     10  C16 <0> d           4.005   4.068  -1.613  0.00  0.00     0.162 C 
ATOM     11  N2  <0> d          -0.551   2.028   1.304  0.00  0.00    -0.046 N 
ATOM     12  H23 <0> d          -1.551   2.239   1.206  0.00  0.00     0.279 HD
ATOM     13  H24 <0> d          -0.420   1.328   2.043  0.00  0.00     0.279 HD
ENDROOT
BRANCH   1  14
ATOM     14  C3  <0> d           1.059   3.052   2.863  0.00  0.00     0.296 C 
ATOM     15  O2  <0> d           2.171   3.522   2.908  0.00  0.00    -0.262 OA
BRANCH  14  16
ATOM     16  O1  <0> d           0.593   2.333   3.897  0.00  0.00    -0.320 OA
BRANCH  16  17
ATOM     17  C2  <0> d           1.480   2.161   5.034  0.00  0.00     0.174 C 
ATOM     18  C1  <0> d           0.781   1.321   6.104  0.00  0.00     0.034 C 
ENDBRANCH  16  17
ENDBRANCH  14  16
ENDBRANCH   1  14
BRANCH   1  19
ATOM     19  C17 <0> d          -0.769   4.436   1.885  0.00  0.00     0.089 C 
BRANCH  19  20
ATOM     20  C18 <0> d          -1.613   4.151   3.100  0.00  0.00    -0.055 A 
ATOM     21  C23 <0> d          -1.182   4.556   4.350  0.00  0.00     0.010 A 
ATOM     22  C22 <0> d          -1.954   4.296   5.466  0.00  0.00     0.037 A 
ATOM     23  C21 <0> d          -3.162   3.627   5.331  0.00  0.00     0.065 A 
ATOM     24  C20 <0> d          -3.592   3.220   4.076  0.00  0.00     0.037 A 
ATOM     25  C19 <0> d          -2.819   3.488   2.963  0.00  0.00     0.010 A 
BRANCH  23  26
ATOM     26  O5  <0> d          -3.924   3.370   6.428  0.00  0.00    -0.361 OA
ATOM     27  H22 <0> d          -4.559   4.068   6.637  0.00  0.00     0.217 HD
ENDBRANCH  23  26
ENDBRANCH  19  20
ENDBRANCH   1  19
BRANCH   4  28
ATOM     28  C8  <0> d           0.002  -0.004   0.002  0.00  0.00     0.012 A 
ATOM     29  C13 <0> d           0.208  -0.687  -1.184  0.00  0.00     0.124 A 
ATOM     30  C12 <0> d           0.227  -2.072  -1.190  0.00  0.00     0.043 A 
ATOM     31  F1  <0> d           0.392  -0.004  -2.335  0.00  0.00    -0.205 F 
ATOM     32  C11 <0> d           0.039  -2.770  -0.013  0.00  0.00     0.003 A 
ATOM     33  C10 <0> d          -0.167  -2.087   1.171  0.00  0.00     0.001 A 
ATOM     34  C9  <0> d          -0.179  -0.704   1.180  0.00  0.00     0.012 A 
ENDBRANCH   4  28
TORSDOF 7
