REMARK  5 active torsions:
REMARK  status: ('A' for Active; 'I' for Inactive)
REMARK    1  A    between atoms: C5_5  and  S1_9 
REMARK    2  A    between atoms: C6_6  and  N1_8 
REMARK    3  A    between atoms: S1_9  and  C8_10 
REMARK    4  A    between atoms: C8_10  and  C9_11 
REMARK       I    between atoms: C9_11  and  N2_13 
REMARK    5  A    between atoms: N2_13  and  C10_14 
ROOT
ATOM      1  C8  <0> d           0.058  -4.960  -1.801  0.00  0.00     0.182 C 
ENDROOT
BRANCH   1   2
ATOM      2  S1  <0> d           0.062  -4.537  -0.037  0.00  0.00    -0.118 SA
BRANCH   2   3
ATOM      3  C5  <0> d           0.039  -2.775  -0.021  0.00  0.00     0.027 A 
ATOM      4  C4  <0> d           0.024  -2.069  -1.215  0.00  0.00     0.021 A 
ATOM      5  C3  <0> d           0.006  -0.687  -1.200  0.00  0.00     0.008 A 
ATOM      6  C2  <0> d           0.002  -0.004   0.002  0.00  0.00    -0.060 A 
ATOM      7  C1  <0> d          -0.018   1.503   0.010  0.00  0.00     0.048 C 
ATOM      8  C7  <0> d           0.023  -0.700   1.197  0.00  0.00     0.037 A 
ATOM      9  C6  <0> d           0.036  -2.086   1.192  0.00  0.00     0.043 A 
BRANCH   9  10
ATOM     10  N1  <0> d           0.051  -2.792   2.401  0.00  0.00    -0.398 N 
ATOM     11  H9  <0> d           0.063  -3.762   2.395  0.00  0.00     0.156 HD
ATOM     12  H10 <0> d           0.049  -2.312   3.243  0.00  0.00     0.156 HD
ENDBRANCH   9  10
ENDBRANCH   2   3
ENDBRANCH   1   2
BRANCH   1  13
ATOM     13  C9  <0> d           0.077  -6.459  -1.958  0.00  0.00     0.227 C 
ATOM     14  O1  <0> d           0.091  -7.171  -0.976  0.00  0.00    -0.273 OA
ATOM     15  N2  <0> d           0.078  -7.008  -3.189  0.00  0.00    -0.353 N 
ATOM     16  H13 <0> d           0.066  -6.438  -3.974  0.00  0.00     0.163 HD
BRANCH  15  17
ATOM     17  C10 <0> d           0.096  -8.465  -3.341  0.00  0.00     0.117 C 
ATOM     18  C13 <0> d           0.727  -8.824  -4.685  0.00  0.00     0.119 C 
ATOM     19  C12 <0> d           0.204 -10.147  -5.277  0.00  0.00     0.162 C 
ATOM     20 Cl1  <0> d           0.392  -7.494  -5.856  0.00  0.00    -0.122 Cl
ATOM     21  S2  <0> d          -1.119 -10.641  -4.096  0.00  0.00     0.147 S 
ATOM     22  C11 <0> d          -1.359  -9.007  -3.269  0.00  0.00     0.167 C 
ATOM     23  O2  <0> d          -0.587 -11.566  -3.158  0.00  0.00    -0.228 OA
ATOM     24  O3  <0> d          -2.295 -10.974  -4.821  0.00  0.00    -0.228 OA
ENDBRANCH  15  17
ENDBRANCH   1  13
TORSDOF 5
