REMARK  7 active torsions:
REMARK  status: ('A' for Active; 'I' for Inactive)
REMARK    1  A    between atoms: C4_4  and  O5_21 
REMARK    2  A    between atoms: C7_7  and  S1_8 
REMARK    3  A    between atoms: S1_8  and  N1_11 
REMARK    4  A    between atoms: N1_11  and  C8_12 
REMARK    5  A    between atoms: C8_12  and  C9_13 
REMARK    6  A    between atoms: C9_13  and  C14_19 
REMARK    7  A    between atoms: C14_19  and  O4_20 
ROOT
ATOM      1  S1  <0> d          -0.039  -0.066   2.741  0.00  0.00     0.259 S 
ATOM      2  O1  <0> d          -1.249   0.676   2.798  0.00  0.00    -0.201 OA
ATOM      3  O2  <0> d           0.238  -1.141   3.629  0.00  0.00    -0.201 OA
ENDROOT
BRANCH   1   4
ATOM      4  C7  <0> d           0.075  -0.720   1.109  0.00  0.00     0.085 A 
ATOM      5  C2  <0> d           1.174  -1.474   0.743  0.00  0.00    -0.036 A 
ATOM      6  C1  <0> d           2.274  -1.735   1.739  0.00  0.00     0.050 C 
ATOM      7  C3  <0> d           1.263  -1.992  -0.535  0.00  0.00     0.045 A 
ATOM      8  C4  <0> d           0.250  -1.752  -1.452  0.00  0.00     0.068 A 
ATOM      9  C5  <0> d          -0.850  -0.991  -1.083  0.00  0.00     0.038 A 
ATOM     10  C6  <0> d          -0.934  -0.474   0.195  0.00  0.00     0.028 A 
BRANCH   8  11
ATOM     11  O5  <0> d           0.335  -2.260  -2.709  0.00  0.00    -0.356 OA
ATOM     12  C15 <0> d          -0.745  -1.972  -3.600  0.00  0.00     0.210 C 
ENDBRANCH   8  11
ENDBRANCH   1   4
BRANCH   1  13
ATOM     13  N1  <0> d           1.194   1.024   2.919  0.00  0.00    -0.315 N 
ATOM     14  H7  <0> d           1.898   0.860   3.566  0.00  0.00     0.172 HD
BRANCH  13  15
ATOM     15  C8  <0> d           1.224   2.237   2.098  0.00  0.00     0.144 C 
BRANCH  15  16
ATOM     16  C9  <0> d           2.207   3.240   2.704  0.00  0.00     0.001 C 
ATOM     17  C13 <0> d           3.627   2.670   2.636  0.00  0.00     0.039 C 
ATOM     18  C12 <0> d           4.022   2.478   1.170  0.00  0.00     0.168 C 
ATOM     19  O3  <0> d           3.924   3.728   0.484  0.00  0.00    -0.391 OA
ATOM     20  C11 <0> d           2.609   4.286   0.473  0.00  0.00     0.168 C 
ATOM     21  C10 <0> d           2.156   4.550   1.912  0.00  0.00     0.039 C 
BRANCH  16  22
ATOM     22  C14 <0> d           1.831   3.507   4.163  0.00  0.00     0.175 C 
BRANCH  22  23
ATOM     23  O4  <0> d           0.472   3.943   4.233  0.00  0.00    -0.400 OA
ATOM     24  H20 <0> d           0.165   4.131   5.130  0.00  0.00     0.209 HD
ENDBRANCH  22  23
ENDBRANCH  16  22
ENDBRANCH  15  16
ENDBRANCH  13  15
ENDBRANCH   1  13
TORSDOF 7
