REMARK  4 active torsions:
REMARK  status: ('A' for Active; 'I' for Inactive)
REMARK    1  A    between atoms: C2_2  and  N2_18 
REMARK    2  A    between atoms: C3_3  and  O3_33 
REMARK    3  A    between atoms: C4_4  and  N4_36 
REMARK    4  A    between atoms: C6_6  and  N1_8 
ROOT
ATOM      1  C1  <0> d          -1.421  -0.475   0.308  0.00  0.00     0.074 C 
ATOM      2  C2  <0> d           0.002  -0.004   0.002  0.00  0.00     0.168 C 
ATOM      3  C3  <0> d           0.050   1.492   0.285  0.00  0.00     0.207 C 
ATOM      4  C4  <0> d           1.507   1.966   0.279  0.00  0.00     0.223 C 
ATOM      5  C5  <0> d           2.264   1.192   1.364  0.00  0.00     0.090 C 
ATOM      6  C6  <0> d           2.190  -0.300   1.066  0.00  0.00     0.233 C 
ATOM      7  O1  <0> d           0.871  -0.740   0.833  0.00  0.00    -0.333 OA
ENDROOT
BRANCH   4   8
ATOM      8  N4  <0> d           2.107   1.690  -1.041  0.00  0.00    -0.072 N 
ATOM      9  C27 <0> d           3.229   2.613  -1.297  0.00  0.00     0.267 C 
ATOM     10  H26 <0> d           1.394   1.813  -1.769  0.00  0.00     0.277 HD
ATOM     11  H27 <0> d           2.453   0.723  -1.060  0.00  0.00     0.277 HD
ENDBRANCH   4   8
BRANCH   3  12
ATOM     12  O3  <0> d          -0.530   1.754   1.565  0.00  0.00    -0.384 OA
ATOM     13  C28 <0> d          -1.152   3.036   1.671  0.00  0.00     0.202 C 
ENDBRANCH   3  12
BRANCH   2  14
ATOM     14  N2  <0> d           0.233  -0.266  -1.419  0.00  0.00    -0.308 N 
ATOM     15  C15 <0> d           1.462  -0.601  -1.966  0.00  0.00     0.077 A 
ATOM     16  C14 <0> d           2.713  -0.769  -1.361  0.00  0.00     0.077 A 
ATOM     17  C22 <0> d           1.325  -0.775  -3.353  0.00  0.00     0.015 A 
ATOM     18  N1  <0> d           3.096  -0.653  -0.028  0.00  0.00    -0.316 N 
ATOM     19  C13 <0> d           3.824  -1.110  -2.135  0.00  0.00     0.022 A 
ATOM     20  C7  <0> d           4.437  -0.923   0.080  0.00  0.00     0.048 A 
ATOM     21  C12 <0> d           4.946  -1.216  -1.206  0.00  0.00     0.004 A 
ATOM     22  C8  <0> d           5.274  -0.943   1.196  0.00  0.00     0.030 A 
ATOM     23  C11 <0> d           6.292  -1.532  -1.404  0.00  0.00     0.014 A 
ATOM     24  C10 <0> d           7.101  -1.546  -0.281  0.00  0.00     0.001 A 
ATOM     25  C9  <0> d           6.605  -1.259   0.980  0.00  0.00     0.002 A 
ATOM     26  C24 <0> d           3.683  -1.277  -3.532  0.00  0.00     0.054 A 
ATOM     27  C23 <0> d           2.434  -1.108  -4.122  0.00  0.00    -0.010 A 
ATOM     28  C25 <0> d           4.652  -1.618  -4.585  0.00  0.00     0.253 A 
ATOM     29  C26 <0> d           2.623  -1.353  -5.599  0.00  0.00     0.163 A 
ATOM     30  N3  <0> d           4.045  -1.664  -5.783  0.00  0.00    -0.353 N 
ATOM     31  H17 <0> d           4.475  -1.867  -6.628  0.00  0.00     0.163 HD
ATOM     32  O2  <0> d           5.835  -1.830  -4.398  0.00  0.00    -0.268 OA
ATOM     33  C21 <0> d          -0.090  -0.538  -3.646  0.00  0.00     0.004 A 
ATOM     34  C16 <0> d          -0.712  -0.227  -2.417  0.00  0.00     0.049 A 
ATOM     35  C20 <0> d          -0.810  -0.577  -4.840  0.00  0.00     0.014 A 
ATOM     36  C17 <0> d          -2.077   0.053  -2.365  0.00  0.00     0.030 A 
ATOM     37  C18 <0> d          -2.776   0.009  -3.559  0.00  0.00     0.002 A 
ATOM     38  C19 <0> d          -2.164  -0.297  -4.762  0.00  0.00     0.001 A 
ENDBRANCH   2  14
TORSDOF 4
