REMARK  10 active torsions:
REMARK  status: ('A' for Active; 'I' for Inactive)
REMARK    1  A    between atoms: C3_3  and  C8_11 
REMARK    2  A    between atoms: N1_5  and  C5_7 
REMARK    3  A    between atoms: C5_7  and  C6_8 
REMARK    4  A    between atoms: C6_8  and  O1_9 
REMARK    5  A    between atoms: C8_11  and  N3_12 
REMARK    6  A    between atoms: N3_12  and  C9_13 
REMARK    7  A    between atoms: C9_13  and  C10_14 
REMARK    8  A    between atoms: C14_18  and  C16_20 
REMARK    9  A    between atoms: C16_20  and  N4_21 
REMARK   10  A    between atoms: N4_21  and  C18_23 
ROOT
ATOM      1  N3  <0> d           1.374  -0.169  -3.038  0.00  0.00    -0.067 N 
ATOM      2  H14 <0> d           1.843   0.513  -2.461  0.00  0.00     0.277 HD
ATOM      3  H34 <0> d           1.863  -1.050  -2.981  0.00  0.00     0.277 HD
ENDROOT
BRANCH   1   4
ATOM      4  C8  <0> d          -0.006  -0.343  -2.566  0.00  0.00     0.275 C 
BRANCH   4   5
ATOM      5  C3  <0> d           0.008  -0.818  -1.135  0.00  0.00     0.017 A 
ATOM      6  C2  <0> d           0.002  -0.004   0.002  0.00  0.00     0.061 A 
ATOM      7  C1  <0> d          -0.018   1.503   0.010  0.00  0.00     0.073 C 
ATOM      8  N2  <0> d           0.023  -0.777   1.058  0.00  0.00    -0.177 NA
ATOM      9  N1  <0> d           0.034  -2.109   0.625  0.00  0.00    -0.272 N 
ATOM     10  C4  <0> d           0.028  -2.107  -0.725  0.00  0.00     0.036 A 
ATOM     11  C7  <0> d           0.040  -3.323  -1.615  0.00  0.00     0.070 C 
BRANCH   9  12
ATOM     12  C5  <0> d           0.055  -3.295   1.485  0.00  0.00     0.177 C 
BRANCH  12  13
ATOM     13  C6  <0> d           1.504  -3.688   1.777  0.00  0.00     0.185 C 
BRANCH  13  14
ATOM     14  O1  <0> d           1.524  -4.844   2.616  0.00  0.00    -0.399 OA
ATOM     15  H8  <0> d           2.413  -5.150   2.843  0.00  0.00     0.209 HD
ENDBRANCH  13  14
ENDBRANCH  12  13
ENDBRANCH   9  12
ENDBRANCH   4   5
ENDBRANCH   1   4
BRANCH   1  16
ATOM     16  C9  <0> d           1.360   0.294  -4.432  0.00  0.00     0.271 C 
BRANCH  16  17
ATOM     17  C10 <0> d           2.776   0.472  -4.916  0.00  0.00    -0.032 A 
ATOM     18  C15 <0> d           3.440  -0.582  -5.515  0.00  0.00     0.017 A 
ATOM     19  C14 <0> d           4.737  -0.417  -5.963  0.00  0.00    -0.032 A 
ATOM     20  C13 <0> d           5.374   0.799  -5.803  0.00  0.00     0.009 A 
ATOM     21  C12 <0> d           4.713   1.852  -5.199  0.00  0.00     0.001 A 
ATOM     22  C11 <0> d           3.414   1.688  -4.755  0.00  0.00     0.009 A 
BRANCH  19  23
ATOM     23  C16 <0> d           5.458  -1.565  -6.622  0.00  0.00     0.273 C 
BRANCH  23  24
ATOM     24  N4  <0> d           6.167  -2.349  -5.602  0.00  0.00    -0.068 N 
ATOM     25  C17 <0> d           7.221  -1.524  -4.996  0.00  0.00     0.270 C 
ATOM     26  H33 <0> d           5.516  -2.639  -4.888  0.00  0.00     0.280 HD
BRANCH  24  27
ATOM     27  C18 <0> d           6.771  -3.534  -6.226  0.00  0.00     0.180 C 
ATOM     28  C19 <0> d           7.509  -4.350  -5.163  0.00  0.00     0.039 C 
ATOM     29  C20 <0> d           5.673  -4.392  -6.857  0.00  0.00     0.039 C 
ENDBRANCH  24  27
ENDBRANCH  23  24
ENDBRANCH  19  23
ENDBRANCH  16  17
ENDBRANCH   1  16
TORSDOF 10
