REMARK  3 active torsions:
REMARK  status: ('A' for Active; 'I' for Inactive)
REMARK    1  A    between atoms: C4_4  and  N1_12 
REMARK       I    between atoms: N1_12  and  C11_13 
REMARK    2  A    between atoms: C11_13  and  C12_15 
REMARK    3  A    between atoms: N2_17  and  S1_25 
ROOT
ATOM      1  N1  <0> d           2.959  -0.527  -2.279  0.00  0.00    -0.350 N 
ATOM      2  C11 <0> d           3.992   0.130  -2.843  0.00  0.00     0.249 C 
ATOM      3  O2  <0> d           4.237   1.271  -2.512  0.00  0.00    -0.271 OA
ATOM      4  H12 <0> d           2.762  -1.439  -2.543  0.00  0.00     0.163 HD
ENDROOT
BRANCH   2   5
ATOM      5  C12 <0> d           4.842  -0.552  -3.883  0.00  0.00     0.239 C 
ATOM      6  O3  <0> d           5.931   0.299  -4.247  0.00  0.00    -0.332 OA
ATOM      7  C19 <0> d           6.672  -0.050  -5.332  0.00  0.00     0.097 A 
ATOM      8  C14 <0> d           6.167  -0.924  -6.290  0.00  0.00     0.078 A 
ATOM      9  C18 <0> d           7.947   0.472  -5.487  0.00  0.00     0.039 A 
ATOM     10  N2  <0> d           4.879  -1.460  -6.134  0.00  0.00    -0.270 N 
ATOM     11  C15 <0> d           6.932  -1.266  -7.394  0.00  0.00     0.033 A 
ATOM     12  C13 <0> d           3.996  -0.840  -5.131  0.00  0.00     0.184 C 
ATOM     13  C16 <0> d           8.202  -0.739  -7.541  0.00  0.00     0.002 A 
ATOM     14  C17 <0> d           8.707   0.127  -6.589  0.00  0.00     0.003 A 
BRANCH  10  15
ATOM     15  S1  <0> d           4.369  -2.745  -7.046  0.00  0.00     0.229 S 
ATOM     16  O4  <0> d           5.560  -3.435  -7.398  0.00  0.00    -0.206 OA
ATOM     17  O5  <0> d           3.372  -3.378  -6.256  0.00  0.00    -0.206 OA
ATOM     18  C20 <0> d           3.618  -2.001  -8.521  0.00  0.00     0.186 C 
ENDBRANCH  10  15
ENDBRANCH   2   5
BRANCH   1  19
ATOM     19  C4  <0> d           2.132   0.137  -1.268  0.00  0.00     0.123 C 
ATOM     20  C3  <0> d           0.743  -0.504  -1.245  0.00  0.00     0.068 C 
ATOM     21  C2  <0> d           0.002  -0.004   0.002  0.00  0.00     0.063 C 
ATOM     22  C1  <0> d          -0.019   1.526   0.010  0.00  0.00     0.046 C 
ATOM     23  O1  <0> d           0.692  -0.482   1.158  0.00  0.00    -0.340 OA
ATOM     24  C21 <0> d          -1.431  -0.539  -0.000  0.00  0.00     0.046 C 
ATOM     25  C10 <0> d           2.037  -0.302   1.214  0.00  0.00     0.078 A 
ATOM     26  C5  <0> d           2.782  -0.009   0.085  0.00  0.00    -0.002 A 
ATOM     27  C9  <0> d           2.673  -0.423   2.446  0.00  0.00     0.037 A 
ATOM     28  C6  <0> d           4.153   0.154   0.187  0.00  0.00     0.012 A 
ATOM     29  C7  <0> d           4.781   0.031   1.411  0.00  0.00     0.001 A 
ATOM     30  C8  <0> d           4.039  -0.257   2.542  0.00  0.00     0.003 A 
ENDBRANCH   1  19
TORSDOF 3
