REMARK  4 active torsions:
REMARK  status: ('A' for Active; 'I' for Inactive)
REMARK    1  A    between atoms: C4_4  and  C6_8 
REMARK       I    between atoms: C6_8  and  N3_10 
REMARK    2  A    between atoms: C8_12  and  C15_20 
REMARK       I    between atoms: C15_20  and  N5_22 
REMARK    3  A    between atoms: N5_22  and  C16_23 
REMARK    4  A    between atoms: C16_23  and  C17_24 
ROOT
ATOM      1  C6  <0> d           0.078  -3.478  -1.513  0.00  0.00     0.274 C 
ATOM      2  O1  <0> d           0.017  -3.448  -2.727  0.00  0.00    -0.266 OA
ATOM      3  N3  <0> d           0.063  -4.661  -0.867  0.00  0.00    -0.345 N 
ATOM      4  C7  <0> d           0.122  -4.898   0.595  0.00  0.00     0.141 C 
ATOM      5  C8  <0> d          -0.860  -6.066   0.841  0.00  0.00     0.106 C 
ATOM      6  C9  <0> d          -0.946  -6.797  -0.509  0.00  0.00    -0.007 C 
ATOM      7  C10 <0> d          -0.023  -6.018  -1.458  0.00  0.00     0.136 C 
ATOM      8  C11 <0> d          -2.378  -6.770  -1.035  0.00  0.00     0.039 C 
ATOM      9  C12 <0> d          -2.448  -7.553  -2.350  0.00  0.00     0.233 C 
ATOM     10  N4  <0> d          -2.016  -8.937  -2.121  0.00  0.00    -0.075 N 
ATOM     11  C13 <0> d          -0.609  -8.960  -1.704  0.00  0.00     0.233 C 
ATOM     12  C14 <0> d          -0.460  -8.236  -0.362  0.00  0.00     0.039 C 
ATOM     13  H17 <0> d          -2.586  -9.351  -1.399  0.00  0.00     0.277 HD
ATOM     14  H30 <0> d          -2.121  -9.466  -2.974  0.00  0.00     0.277 HD
ENDROOT
BRANCH   5  15
ATOM     15  C15 <0> d          -0.325  -6.986   1.906  0.00  0.00     0.224 C 
ATOM     16  O2  <0> d           0.873  -7.123   2.045  0.00  0.00    -0.273 OA
ATOM     17  N5  <0> d          -1.176  -7.659   2.706  0.00  0.00    -0.355 N 
ATOM     18  H22 <0> d          -2.134  -7.550   2.596  0.00  0.00     0.162 HD
BRANCH  17  19
ATOM     19  C16 <0> d          -0.655  -8.554   3.742  0.00  0.00     0.183 C 
BRANCH  19  20
ATOM     20  C17 <0> d          -1.805  -9.178   4.491  0.00  0.00     0.069 A 
ATOM     21  N7  <0> d          -2.361  -8.536   5.503  0.00  0.00    -0.260 NA
ATOM     22  C20 <0> d          -3.372  -9.082   6.157  0.00  0.00     0.143 A 
ATOM     23  C19 <0> d          -3.841 -10.329   5.787  0.00  0.00     0.048 A 
ATOM     24  N6  <0> d          -3.282 -10.974   4.778  0.00  0.00    -0.262 NA
ATOM     25  C21 <0> d          -4.991 -10.953   6.536  0.00  0.00     0.072 C 
ATOM     26  C18 <0> d          -2.275 -10.426   4.122  0.00  0.00     0.145 A 
ENDBRANCH  19  20
ENDBRANCH  17  19
ENDBRANCH   5  15
BRANCH   1  27
ATOM     27  C4  <0> d           0.170  -2.219  -0.746  0.00  0.00     0.146 A 
ATOM     28  C3  <0> d           0.196  -0.908  -1.279  0.00  0.00     0.065 A 
ATOM     29  C2  <0> d           0.285  -0.084  -0.209  0.00  0.00     0.028 A 
ATOM     30  C1  <0> d           0.345   1.421  -0.243  0.00  0.00     0.070 C 
ATOM     31  N2  <0> d           0.314  -0.863   0.894  0.00  0.00    -0.278 N 
ATOM     32  N1  <0> d           0.241  -2.102   0.565  0.00  0.00    -0.167 NA
ATOM     33  C5  <0> d           0.411  -0.365   2.268  0.00  0.00     0.179 C 
ENDBRANCH   1  27
TORSDOF 4
