REMARK  7 active torsions:
REMARK  status: ('A' for Active; 'I' for Inactive)
REMARK    1  A    between atoms: C2_2  and  N1_3 
REMARK    2  A    between atoms: N1_3  and  C3_4 
REMARK    3  A    between atoms: C6_8  and  N4_10 
REMARK    4  A    between atoms: N4_10  and  C7_11 
REMARK    5  A    between atoms: C10_14  and  N5_17 
REMARK    6  A    between atoms: N5_17  and  S1_18 
REMARK    7  A    between atoms: S1_18  and  C13_21 
ROOT
ATOM      1  C7  <0> d           2.013  -5.481  -4.069  0.00  0.00     0.033 A 
ATOM      2  C8  <0> d           1.622  -6.535  -3.254  0.00  0.00     0.032 A 
ATOM      3  C9  <0> d           2.049  -7.819  -3.533  0.00  0.00     0.032 A 
ATOM      4  C10 <0> d           2.869  -8.055  -4.628  0.00  0.00     0.042 A 
ATOM      5  C11 <0> d           3.260  -7.001  -5.443  0.00  0.00     0.032 A 
ATOM      6  C12 <0> d           2.829  -5.718  -5.167  0.00  0.00     0.032 A 
ENDROOT
BRANCH   1   7
ATOM      7  N4  <0> d           1.580  -4.179  -3.786  0.00  0.00    -0.340 N 
ATOM      8  H8  <0> d           1.415  -3.555  -4.510  0.00  0.00     0.167 HD
BRANCH   7   9
ATOM      9  C6  <0> d           1.388  -3.783  -2.472  0.00  0.00     0.149 A 
ATOM     10  C5  <0> d           0.840  -2.531  -2.183  0.00  0.00     0.076 A 
ATOM     11  C4  <0> d           0.667  -2.178  -0.859  0.00  0.00     0.026 A 
ATOM     12  N2  <0> d           1.023  -3.030   0.091  0.00  0.00    -0.194 N 
ATOM     13  C20 <0> d           0.079  -0.838  -0.498  0.00  0.00     0.069 C 
ATOM     14  C3  <0> d           1.541  -4.212  -0.212  0.00  0.00     0.702 A 
ATOM     15  H24 <0> d           0.903  -2.786   1.022  0.00  0.00     0.184 HD
ATOM     16  N3  <0> d           1.728  -4.586  -1.469  0.00  0.00    -0.047 NA
BRANCH  14  17
ATOM     17  N1  <0> d           1.901  -5.074   0.809  0.00  0.00    -0.225 N 
ATOM     18  H6  <0> d           2.284  -5.940   0.600  0.00  0.00     0.177 HD
BRANCH  17  19
ATOM     19  C2  <0> d           1.702  -4.678   2.205  0.00  0.00     0.134 C 
ATOM     20  C1  <0> d           2.178  -5.803   3.127  0.00  0.00     0.027 C 
ENDBRANCH  17  19
ENDBRANCH  14  17
ENDBRANCH   7   9
ENDBRANCH   1   7
BRANCH   4  21
ATOM     21  N5  <0> d           3.302  -9.356  -4.910  0.00  0.00    -0.281 N 
ATOM     22  H13 <0> d           3.629  -9.924  -4.195  0.00  0.00     0.179 HD
BRANCH  21  23
ATOM     23  S1  <0> d           3.256  -9.925  -6.464  0.00  0.00     0.263 S 
ATOM     24  O1  <0> d           3.934  -8.968  -7.267  0.00  0.00    -0.200 OA
ATOM     25  O2  <0> d           3.651 -11.289  -6.409  0.00  0.00    -0.200 OA
BRANCH  23  26
ATOM     26  C13 <0> d           1.571  -9.908  -6.976  0.00  0.00     0.079 A 
ATOM     27  C18 <0> d           1.075  -8.831  -7.687  0.00  0.00     0.026 A 
ATOM     28  C17 <0> d          -0.247  -8.820  -8.092  0.00  0.00     0.008 A 
ATOM     29  C16 <0> d          -1.075  -9.882  -7.779  0.00  0.00    -0.062 A 
ATOM     30  C15 <0> d          -0.580 -10.956  -7.063  0.00  0.00     0.008 A 
ATOM     31  C19 <0> d          -2.517  -9.868  -8.217  0.00  0.00     0.048 C 
ATOM     32  C14 <0> d           0.742 -10.969  -6.662  0.00  0.00     0.026 A 
ENDBRANCH  23  26
ENDBRANCH  21  23
ENDBRANCH   4  21
TORSDOF 7
