REMARK  5 active torsions:
REMARK  status: ('A' for Active; 'I' for Inactive)
REMARK    1  A    between atoms: C11_14  and  C14_17 
REMARK    2  A    between atoms: C14_17  and  C15_18 
REMARK       I    between atoms: C15_18  and  N1_20 
REMARK    3  A    between atoms: N1_20  and  C16_21 
REMARK    4  A    between atoms: C16_21  and  C17_22 
REMARK    5  A    between atoms: C17_22  and  C18_23 
ROOT
ATOM      1  C1  <0> d          -0.018   1.503   0.010  0.00  0.00     0.051 C 
ATOM      2  C2  <0> d           0.002  -0.004   0.002  0.00  0.00    -0.027 A 
ATOM      3  C3  <0> d           0.009  -0.802  -1.074  0.00  0.00     0.150 A 
ATOM      4  O1  <0> d           0.028  -2.092  -0.694  0.00  0.00    -0.321 OA
ATOM      5  C4  <0> d           0.037  -2.197   0.651  0.00  0.00     0.088 A 
ATOM      6  C5  <0> d           0.025  -0.892   1.171  0.00  0.00     0.006 A 
ATOM      7  C6  <0> d           0.032  -0.690   2.549  0.00  0.00     0.025 A 
ATOM      8  C7  <0> d           0.058  -1.762   3.403  0.00  0.00    -0.018 A 
ATOM      9  C8  <0> d           0.080  -3.055   2.897  0.00  0.00     0.088 A 
ATOM     10  C9  <0> d           0.059  -3.272   1.526  0.00  0.00     0.076 A 
ATOM     11  O2  <0> d           0.126  -4.144   3.715  0.00  0.00    -0.278 OA
ATOM     12  C10 <0> d          -0.071  -3.942   5.032  0.00  0.00     0.269 C 
ATOM     13  O3  <0> d          -0.735  -4.702   5.696  0.00  0.00    -0.264 OA
ATOM     14  C11 <0> d           0.578  -2.715   5.642  0.00  0.00     0.103 C 
ATOM     15  C12 <0> d           0.054  -1.490   4.887  0.00  0.00     0.031 C 
ATOM     16  C13 <0> d           0.952  -0.287   5.185  0.00  0.00     0.016 C 
ENDROOT
BRANCH  14  17
ATOM     17  C14 <0> d           2.098  -2.806   5.497  0.00  0.00     0.118 C 
BRANCH  17  18
ATOM     18  C15 <0> d           2.612  -3.968   6.307  0.00  0.00     0.218 C 
ATOM     19  O4  <0> d           1.838  -4.656   6.938  0.00  0.00    -0.274 OA
ATOM     20  N1  <0> d           3.931  -4.243   6.329  0.00  0.00    -0.361 N 
ATOM     21  H14 <0> d           4.550  -3.693   5.824  0.00  0.00     0.162 HD
BRANCH  20  22
ATOM     22  C16 <0> d           4.430  -5.373   7.117  0.00  0.00     0.128 C 
BRANCH  22  23
ATOM     23  C17 <0> d           5.951  -5.464   6.971  0.00  0.00     0.078 C 
BRANCH  23  24
ATOM     24  C18 <0> d           6.464  -6.626   7.781  0.00  0.00     0.027 A 
ATOM     25  N2  <0> d           6.710  -7.894   7.325  0.00  0.00    -0.355 N 
ATOM     26  C19 <0> d           7.158  -8.616   8.375  0.00  0.00     0.180 A 
ATOM     27  H21 <0> d           6.585  -8.213   6.418  0.00  0.00     0.166 HD
ATOM     28  N3  <0> d           7.192  -7.846   9.428  0.00  0.00    -0.360 N 
ATOM     29  C20 <0> d           6.776  -6.617   9.091  0.00  0.00     0.114 A 
ATOM     30  H22 <0> d           7.476  -8.120  10.314  0.00  0.00     0.166 HD
ENDBRANCH  23  24
ENDBRANCH  22  23
ENDBRANCH  20  22
ENDBRANCH  17  18
ENDBRANCH  14  17
TORSDOF 5
