REMARK  7 active torsions:
REMARK  status: ('A' for Active; 'I' for Inactive)
REMARK    1  A    between atoms: C2_2  and  C3_3 
REMARK    2  A    between atoms: C7_9  and  S2_14 
REMARK    3  A    between atoms: S2_14  and  C11_17 
REMARK    4  A    between atoms: C11_17  and  C12_18 
REMARK    5  A    between atoms: C12_18  and  C13_19 
REMARK       I    between atoms: C13_19  and  N2_21 
REMARK    6  A    between atoms: N2_21  and  C14_22 
REMARK    7  A    between atoms: C17_25  and  C20_28 
ROOT
ATOM      1  S2  <0> d           2.877   1.250  -0.049  0.00  0.00     0.176 S 
ATOM      2  O2  <0> d           3.901   1.988   0.604  0.00  0.00    -0.223 OA
ATOM      3  O3  <0> d           2.399   0.031   0.504  0.00  0.00    -0.223 OA
ENDROOT
BRANCH   1   4
ATOM      4  C7  <0> d           1.480   2.322  -0.049  0.00  0.00     0.061 A 
ATOM      5  C6  <0> d           1.665   3.690  -0.001  0.00  0.00     0.054 A 
ATOM      6  C5  <0> d           0.570   4.548  -0.006  0.00  0.00     0.053 A 
ATOM      7  N1  <0> d           0.780   5.922   0.045  0.00  0.00    -0.325 N 
ATOM      8  C10 <0> d          -0.714   4.002  -0.045  0.00  0.00     0.028 A 
ATOM      9  C4  <0> d          -0.100   6.872  -0.256  0.00  0.00     0.236 C 
ATOM     10  H7  <0> d           1.659   6.218   0.329  0.00  0.00     0.169 HD
ATOM     11  C3  <0> d          -1.462   6.579  -0.830  0.00  0.00     0.144 C 
ATOM     12  O1  <0> d           0.207   8.028  -0.059  0.00  0.00    -0.272 OA
ATOM     13  S1  <0> d          -2.112   5.079  -0.030  0.00  0.00    -0.113 SA
ATOM     14  C9  <0> d          -0.894   2.630  -0.100  0.00  0.00     0.022 A 
ATOM     15  C8  <0> d           0.204   1.789  -0.098  0.00  0.00     0.025 A 
BRANCH  11  16
ATOM     16  C2  <0> d          -1.348   6.350  -2.338  0.00  0.00     0.020 C 
ATOM     17  C1  <0> d          -2.746   6.177  -2.936  0.00  0.00     0.006 C 
ENDBRANCH  11  16
ENDBRANCH   1   4
BRANCH   1  18
ATOM     18  C11 <0> d           3.291   1.021  -1.800  0.00  0.00     0.155 C 
BRANCH  18  19
ATOM     19  C12 <0> d           4.503   0.097  -1.921  0.00  0.00     0.118 C 
BRANCH  19  20
ATOM     20  C13 <0> d           4.847  -0.093  -3.377  0.00  0.00     0.223 C 
ATOM     21  O4  <0> d           4.186   0.457  -4.232  0.00  0.00    -0.273 OA
ATOM     22  N2  <0> d           5.888  -0.874  -3.727  0.00  0.00    -0.327 N 
ATOM     23  H15 <0> d           6.462  -1.252  -3.043  0.00  0.00     0.169 HD
BRANCH  22  24
ATOM     24  C14 <0> d           6.139  -1.139  -5.076  0.00  0.00     0.034 A 
ATOM     25  C19 <0> d           7.447  -1.299  -5.519  0.00  0.00     0.030 A 
ATOM     26  C18 <0> d           7.699  -1.561  -6.848  0.00  0.00     0.016 A 
ATOM     27  C17 <0> d           6.638  -1.665  -7.750  0.00  0.00    -0.000 A 
ATOM     28  C16 <0> d           5.325  -1.503  -7.302  0.00  0.00     0.016 A 
ATOM     29  C15 <0> d           5.081  -1.248  -5.971  0.00  0.00     0.030 A 
BRANCH  27  30
ATOM     30  C20 <0> d           6.904  -1.944  -9.177  0.00  0.00     0.113 A 
ATOM     31  O5  <0> d           8.105  -2.123  -9.755  0.00  0.00    -0.213 OA
ATOM     32  N3  <0> d           7.998  -2.336 -10.940  0.00  0.00    -0.140 NA
ATOM     33  C22 <0> d           6.753  -2.333 -11.324  0.00  0.00     0.149 A 
ATOM     34  C21 <0> d           5.977  -2.080 -10.175  0.00  0.00     0.061 A 
ENDBRANCH  27  30
ENDBRANCH  22  24
ENDBRANCH  19  20
ENDBRANCH  18  19
ENDBRANCH   1  18
TORSDOF 7
