REMARK  8 active torsions:
REMARK  status: ('A' for Active; 'I' for Inactive)
REMARK    1  A    between atoms: C6_6  and  S1_7 
REMARK    2  A    between atoms: S1_7  and  C7_10 
REMARK    3  A    between atoms: C7_10  and  C8_11 
REMARK       I    between atoms: C8_11  and  N1_13 
REMARK    4  A    between atoms: N1_13  and  N2_14 
REMARK       I    between atoms: N2_14  and  C9_15 
REMARK       I    between atoms: C9_15  and  N3_17 
REMARK    5  A    between atoms: N3_17  and  C10_18 
REMARK    6  A    between atoms: C10_18  and  C11_19 
REMARK    7  A    between atoms: C11_19  and  C12_20 
REMARK    8  A    between atoms: C12_20  and  N4_21 
ROOT
ATOM      1  C8  <0> d          -3.222  -1.902  -1.850  0.00  0.00     0.250 C 
ATOM      2  O3  <0> d          -3.803  -2.260  -0.847  0.00  0.00    -0.271 OA
ATOM      3  N1  <0> d          -3.731  -2.192  -3.064  0.00  0.00    -0.265 N 
ATOM      4  H7  <0> d          -3.266  -1.906  -3.865  0.00  0.00     0.190 HD
ENDROOT
BRANCH   3   5
ATOM      5  N2  <0> d          -4.932  -2.905  -3.167  0.00  0.00    -0.249 N 
ATOM      6  C9  <0> d          -5.441  -3.195  -4.381  0.00  0.00     0.334 C 
ATOM      7  O4  <0> d          -6.483  -3.814  -4.471  0.00  0.00    -0.246 OA
ATOM      8  N3  <0> d          -4.795  -2.798  -5.495  0.00  0.00    -0.342 N 
ATOM      9  H9  <0> d          -3.963  -2.303  -5.423  0.00  0.00     0.164 HD
ATOM     10  H8  <0> d          -5.397  -3.191  -2.366  0.00  0.00     0.192 HD
BRANCH   8  11
ATOM     11  C10 <0> d          -5.348  -3.112  -6.815  0.00  0.00     0.126 C 
BRANCH  11  12
ATOM     12  C11 <0> d          -4.428  -2.552  -7.901  0.00  0.00     0.040 C 
BRANCH  12  13
ATOM     13  C12 <0> d          -5.005  -2.881  -9.279  0.00  0.00     0.130 C 
BRANCH  13  14
ATOM     14  N4  <0> d          -4.124  -2.344 -10.319  0.00  0.00    -0.352 N 
ATOM     15  C15 <0> d          -3.086  -2.985 -10.898  0.00  0.00     0.182 A 
ATOM     16  N5  <0> d          -2.542  -2.189 -11.778  0.00  0.00    -0.361 N 
ATOM     17  C14 <0> d          -3.202  -1.022 -11.786  0.00  0.00     0.106 A 
ATOM     18  H19 <0> d          -1.779  -2.407 -12.336  0.00  0.00     0.166 HD
ATOM     19  C13 <0> d          -4.195  -1.098 -10.880  0.00  0.00     0.108 A 
ENDBRANCH  13  14
ENDBRANCH  12  13
ENDBRANCH  11  12
ENDBRANCH   8  11
ENDBRANCH   3   5
BRANCH   1  20
ATOM     20  C7  <0> d          -1.930  -1.135  -1.738  0.00  0.00     0.250 C 
BRANCH  20  21
ATOM     21  S1  <0> d          -1.512  -0.905   0.012  0.00  0.00     0.184 S 
ATOM     22  O1  <0> d          -1.186  -2.155   0.605  0.00  0.00    -0.222 OA
ATOM     23  O2  <0> d          -2.449  -0.033   0.629  0.00  0.00    -0.222 OA
BRANCH  21  24
ATOM     24  C6  <0> d           0.002  -0.004   0.002  0.00  0.00     0.059 A 
ATOM     25  C1  <0> d          -0.017   1.378   0.010  0.00  0.00     0.025 A 
ATOM     26  C2  <0> d           1.171   2.086   0.002  0.00  0.00     0.025 A 
ATOM     27  C3  <0> d           2.378   1.410  -0.013  0.00  0.00     0.034 A 
ATOM     28  C4  <0> d           2.396   0.027  -0.021  0.00  0.00     0.025 A 
ATOM     29 Cl1  <0> d           3.870   2.298  -0.023  0.00  0.00    -0.084 Cl
ATOM     30  C5  <0> d           1.208  -0.679  -0.013  0.00  0.00     0.025 A 
ENDBRANCH  21  24
ENDBRANCH  20  21
ENDBRANCH   1  20
TORSDOF 8
