REMARK  6 active torsions:
REMARK  status: ('A' for Active; 'I' for Inactive)
REMARK    1  A    between atoms: N1_5  and  C9_10 
REMARK    2  A    between atoms: C12_13  and  S1_16 
REMARK    3  A    between atoms: S1_16  and  N2_19 
REMARK    4  A    between atoms: N2_19  and  C15_20 
REMARK    5  A    between atoms: C16_23  and  S3_25 
REMARK    6  A    between atoms: S3_25  and  N5_28 
ROOT
ATOM      1  C9  <0> d           1.134  -2.045  -0.020  0.00  0.00     0.039 A 
ATOM      2  C10 <0> d           0.632  -2.744   1.076  0.00  0.00     0.031 A 
ATOM      3  C11 <0> d           0.612  -4.124   1.061  0.00  0.00     0.027 A 
ATOM      4  C12 <0> d           1.100  -4.814  -0.035  0.00  0.00     0.080 A 
ATOM      5  C13 <0> d           1.605  -4.125  -1.123  0.00  0.00     0.027 A 
ATOM      6  C14 <0> d           1.624  -2.745  -1.120  0.00  0.00     0.031 A 
ENDROOT
BRANCH   4   7
ATOM      7  S1  <0> d           1.077  -6.575  -0.044  0.00  0.00     0.264 S 
ATOM      8  O1  <0> d           0.055  -6.973   0.859  0.00  0.00    -0.200 OA
ATOM      9  O2  <0> d           1.087  -6.974  -1.408  0.00  0.00    -0.200 OA
BRANCH   7  10
ATOM     10  N2  <0> d           2.511  -7.087   0.608  0.00  0.00    -0.257 N 
ATOM     11  H15 <0> d           3.146  -7.574   0.061  0.00  0.00     0.181 HD
BRANCH  10  12
ATOM     12  C15 <0> d           2.803  -6.818   1.937  0.00  0.00     0.204 A 
ATOM     13  S2  <0> d           4.246  -7.242   2.909  0.00  0.00    -0.015 SA
ATOM     14  C16 <0> d           3.683  -6.479   4.427  0.00  0.00     0.237 A 
ATOM     15  N4  <0> d           2.514  -6.019   4.033  0.00  0.00    -0.126 NA
ATOM     16  N3  <0> d           2.092  -6.177   2.855  0.00  0.00    -0.122 NA
BRANCH  14  17
ATOM     17  S3  <0> d           4.468  -6.378   6.002  0.00  0.00     0.282 S 
ATOM     18  O3  <0> d           5.864  -6.508   5.770  0.00  0.00    -0.199 OA
ATOM     19  O4  <0> d           3.906  -5.253   6.664  0.00  0.00    -0.199 OA
BRANCH  17  20
ATOM     20  N5  <0> d           4.006  -7.713   6.865  0.00  0.00    -0.323 N 
ATOM     21  H16 <0> d           4.602  -8.091   7.531  0.00  0.00     0.169 HD
ATOM     22  H17 <0> d           3.139  -8.118   6.706  0.00  0.00     0.169 HD
ENDBRANCH  17  20
ENDBRANCH  14  17
ENDBRANCH  10  12
ENDBRANCH   7  10
ENDBRANCH   4   7
BRANCH   1  23
ATOM     23  N1  <0> d           1.151  -0.665  -0.013  0.00  0.00    -0.320 N 
ATOM     24  C4  <0> d           2.316  -0.032  -0.020  0.00  0.00     0.013 A 
ATOM     25  C3  <0> d           2.369   1.347  -0.013  0.00  0.00     0.032 A 
ATOM     26  C17 <0> d           3.596  -0.827  -0.036  0.00  0.00     0.068 C 
ATOM     27  C2  <0> d           1.185   2.070   0.002  0.00  0.00    -0.052 A 
ATOM     28  C1  <0> d           1.203   3.577   0.009  0.00  0.00     0.049 C 
ATOM     29  C6  <0> d          -0.017   1.376   0.010  0.00  0.00    -0.033 A 
ATOM     30  C5  <0> d           0.002  -0.004   0.002  0.00  0.00     0.019 A 
ATOM     31  C7  <0> d          -1.327   2.120   0.020  0.00  0.00     0.050 C 
ATOM     32  C8  <0> d          -1.297  -0.767   0.010  0.00  0.00     0.069 C 
ENDBRANCH   1  23
TORSDOF 6
