REMARK  5 active torsions:
REMARK  status: ('A' for Active; 'I' for Inactive)
REMARK    1  A    between atoms: C2_2  and  C16_23 
REMARK    2  A    between atoms: N1_5  and  C5_9 
REMARK    3  A    between atoms: C5_9  and  C6_10 
REMARK    4  A    between atoms: C6_10  and  C7_12 
REMARK    5  A    between atoms: N3_20  and  C15_21 
ROOT
ATOM      1  C1  <0> d          -0.019   1.526   0.010  0.00  0.00     0.055 C 
ATOM      2  C2  <0> d           0.002  -0.004   0.002  0.00  0.00     0.142 A 
ATOM      3  C3  <0> d           0.815  -0.520  -1.169  0.00  0.00     0.261 A 
ATOM      4  O1  <0> d           0.595  -0.342  -2.348  0.00  0.00    -0.270 OA
ATOM      5  N1  <0> d           1.833  -1.217  -0.627  0.00  0.00    -0.260 N 
ATOM      6  C4  <0> d           1.777  -1.214   0.710  0.00  0.00     0.326 A 
ATOM      7  O2  <0> d           2.586  -1.776   1.421  0.00  0.00    -0.247 OA
ATOM      8  N2  <0> d           0.724  -0.519   1.178  0.00  0.00    -0.321 N 
ATOM      9  H4  <0> d           0.487  -0.383   2.109  0.00  0.00     0.165 HD
ENDROOT
BRANCH   5  10
ATOM     10  C5  <0> d           2.871  -1.896  -1.406  0.00  0.00     0.220 C 
BRANCH  10  11
ATOM     11  C6  <0> d           4.020  -0.950  -1.644  0.00  0.00     0.177 C 
ATOM     12  O3  <0> d           3.975   0.180  -1.206  0.00  0.00    -0.291 OA
BRANCH  11  13
ATOM     13  C7  <0> d           5.193  -1.396  -2.405  0.00  0.00     0.012 A 
ATOM     14  C12 <0> d           6.264  -0.522  -2.630  0.00  0.00     0.024 A 
ATOM     15  C11 <0> d           7.362  -0.951  -3.340  0.00  0.00    -0.029 A 
ATOM     16  C10 <0> d           7.415  -2.244  -3.847  0.00  0.00     0.043 A 
ATOM     17  C13 <0> d           8.638  -0.234  -3.720  0.00  0.00     0.061 A 
ATOM     18  C9  <0> d           6.338  -3.111  -3.625  0.00  0.00     0.031 A 
ATOM     19  N3  <0> d           8.603  -2.476  -4.536  0.00  0.00    -0.324 N 
ATOM     20  C8  <0> d           5.248  -2.698  -2.918  0.00  0.00     0.017 A 
ATOM     21  C14 <0> d           9.442  -1.275  -4.515  0.00  0.00     0.136 A 
BRANCH  19  22
ATOM     22  C15 <0> d           8.933  -3.637  -5.135  0.00  0.00     0.355 C 
ATOM     23  O4  <0> d           9.994  -3.742  -5.712  0.00  0.00    -0.283 OA
ENDBRANCH  19  22
ENDBRANCH  11  13
ENDBRANCH  10  11
ENDBRANCH   5  10
BRANCH   2  24
ATOM     24  C16 <0> d          -1.401  -0.551  -0.040  0.00  0.00     0.018 A 
ATOM     25  C21 <0> d          -2.231  -0.250  -1.107  0.00  0.00     0.125 A 
ATOM     26  C20 <0> d          -3.518  -0.758  -1.147  0.00  0.00     0.043 A 
ATOM     27  F1  <0> d          -1.782   0.534  -2.111  0.00  0.00    -0.205 F 
ATOM     28  C19 <0> d          -3.977  -1.557  -0.117  0.00  0.00     0.003 A 
ATOM     29  C18 <0> d          -3.150  -1.852   0.951  0.00  0.00     0.001 A 
ATOM     30  C17 <0> d          -1.863  -1.350   0.990  0.00  0.00     0.013 A 
ENDBRANCH   2  24
TORSDOF 5
