REMARK  5 active torsions:
REMARK  status: ('A' for Active; 'I' for Inactive)
REMARK    1  A    between atoms: C2_2  and  C3_3 
REMARK    2  A    between atoms: C2_2  and  C12_16 
REMARK    3  A    between atoms: C3_3  and  N1_4 
REMARK    4  A    between atoms: N1_4  and  C4_5 
REMARK    5  A    between atoms: C12_16  and  N3_17 
ROOT
ATOM      1  N1  <0> d          -0.057  -0.113  -2.444  0.00  0.00    -0.058 N 
ATOM      2  H8  <0> d          -0.975  -0.528  -2.395  0.00  0.00     0.278 HD
ATOM      3  H24 <0> d          -0.143   0.892  -2.478  0.00  0.00     0.278 HD
ENDROOT
BRANCH   1   4
ATOM      4  C3  <0> d           0.718  -0.497  -1.257  0.00  0.00     0.239 C 
BRANCH   4   5
ATOM      5  C2  <0> d           0.002  -0.004   0.002  0.00  0.00     0.033 C 
ATOM      6  C1  <0> d          -0.019   1.526   0.010  0.00  0.00     0.013 C 
BRANCH   5   7
ATOM      7  C12 <0> d           0.742  -0.511   1.242  0.00  0.00     0.240 C 
BRANCH   7   8
ATOM      8  N3  <0> d          -0.010  -0.139   2.447  0.00  0.00    -0.071 N 
ATOM      9  C16 <0> d           0.750  -0.515   3.659  0.00  0.00     0.235 C 
ATOM     10  C15 <0> d          -0.278  -0.964   4.715  0.00  0.00     0.029 C 
ATOM     11  C14 <0> d          -1.652  -0.848   4.017  0.00  0.00     0.029 C 
ATOM     12  C13 <0> d          -1.282  -0.903   2.513  0.00  0.00     0.235 C 
ATOM     13  H23 <0> d          -0.199   0.852   2.449  0.00  0.00     0.279 HD
ENDBRANCH   7   8
ENDBRANCH   5   7
ENDBRANCH   4   5
ENDBRANCH   1   4
BRANCH   1  14
ATOM     14  C4  <0> d           0.630  -0.587  -3.652  0.00  0.00     0.312 A 
ATOM     15  C11 <0> d           1.924   0.172  -3.858  0.00  0.00     0.257 A 
ATOM     16  N2  <0> d           1.820   0.813  -5.038  0.00  0.00    -0.323 N 
ATOM     17  O1  <0> d           2.873   0.198  -3.103  0.00  0.00    -0.270 OA
ATOM     18  C10 <0> d           0.596   0.573  -5.664  0.00  0.00     0.061 A 
ATOM     19  H12 <0> d           2.517   1.376  -5.411  0.00  0.00     0.169 HD
ATOM     20  C5  <0> d          -0.185  -0.270  -4.885  0.00  0.00     0.010 A 
ATOM     21  C9  <0> d           0.088   1.032  -6.879  0.00  0.00     0.038 A 
ATOM     22  C6  <0> d          -1.442  -0.650  -5.299  0.00  0.00     0.012 A 
ATOM     23  C7  <0> d          -1.940  -0.191  -6.506  0.00  0.00     0.002 A 
ATOM     24  C8  <0> d          -1.173   0.649  -7.292  0.00  0.00     0.021 A 
ATOM     25 Br1  <0> d           1.128   2.179  -7.964  0.00  0.00    -0.049 Br
ENDBRANCH   1  14
TORSDOF 5
