REMARK  5 active torsions:
REMARK  status: ('A' for Active; 'I' for Inactive)
REMARK    1  A    between atoms: N1_2  and  C3_4 
REMARK    2  A    between atoms: C4_5  and  C8_10 
REMARK    3  A    between atoms: C8_10  and  N3_11 
REMARK       I    between atoms: N3_11  and  C9_12 
REMARK       I    between atoms: C9_12  and  N4_14 
REMARK    4  A    between atoms: N4_14  and  C10_15 
REMARK    5  A    between atoms: C10_15  and  C11_16 
ROOT
ATOM      1  N3  <0> d          -1.587  -2.894   0.520  0.00  0.00    -0.339 N 
ATOM      2  C9  <0> d          -1.915  -3.530   1.663  0.00  0.00     0.316 C 
ATOM      3  O1  <0> d          -1.051  -4.060   2.333  0.00  0.00    -0.247 OA
ATOM      4  N4  <0> d          -3.202  -3.578   2.062  0.00  0.00    -0.339 N 
ATOM      5  H12 <0> d          -2.277  -2.471  -0.015  0.00  0.00     0.164 HD
ATOM      6  H13 <0> d          -3.892  -3.155   1.526  0.00  0.00     0.164 HD
ENDROOT
BRANCH   1   7
ATOM      7  C8  <0> d          -0.189  -2.842   0.087  0.00  0.00     0.166 C 
BRANCH   7   8
ATOM      8  C4  <0> d          -0.093  -2.080  -1.210  0.00  0.00     0.004 A 
ATOM      9  C3  <0> d          -0.125  -0.689  -1.214  0.00  0.00     0.110 A 
ATOM     10  N2  <0> d          -0.046  -0.016  -2.352  0.00  0.00    -0.352 N 
ATOM     11  C7  <0> d           0.075  -0.632  -3.513  0.00  0.00     0.089 A 
ATOM     12  H19 <0> d          -0.074   0.953  -2.331  0.00  0.00     0.166 HD
ATOM     13  C6  <0> d           0.113  -2.010  -3.582  0.00  0.00     0.018 A 
ATOM     14  C5  <0> d           0.027  -2.753  -2.412  0.00  0.00     0.014 A 
BRANCH   9  15
ATOM     15  N1  <0> d          -0.246   0.001  -0.013  0.00  0.00    -0.376 N 
ATOM     16  C1  <0> d          -1.567   0.417   0.463  0.00  0.00     0.150 C 
ATOM     17  C2  <0> d           0.948   0.312   0.777  0.00  0.00     0.150 C 
ENDBRANCH   9  15
ENDBRANCH   7   8
ENDBRANCH   1   7
BRANCH   4  18
ATOM     18  C10 <0> d          -3.558  -4.269   3.303  0.00  0.00     0.163 C 
BRANCH  18  19
ATOM     19  C11 <0> d          -5.047  -4.177   3.519  0.00  0.00    -0.036 A 
ATOM     20  C16 <0> d          -5.880  -5.154   3.008  0.00  0.00     0.028 A 
ATOM     21  C15 <0> d          -7.247  -5.074   3.211  0.00  0.00     0.014 A 
ATOM     22  C14 <0> d          -7.780  -4.011   3.915  0.00  0.00     0.061 A 
ATOM     23 Br1  <0> d          -8.385  -6.416   2.517  0.00  0.00    -0.051 Br
ATOM     24  C13 <0> d          -6.946  -3.029   4.423  0.00  0.00     0.118 A 
ATOM     25  C12 <0> d          -5.579  -3.114   4.224  0.00  0.00     0.051 A 
ATOM     26  F1  <0> d          -7.466  -1.990   5.111  0.00  0.00    -0.206 F 
ENDBRANCH  18  19
ENDBRANCH   4  18
TORSDOF 5
