REMARK  6 active torsions:
REMARK  status: ('A' for Active; 'I' for Inactive)
REMARK    1  A    between atoms: C4_4  and  N1_7 
REMARK    2  A    between atoms: C10_11  and  C12_16 
REMARK    3  A    between atoms: C12_16  and  N3_17 
REMARK    4  A    between atoms: N3_17  and  C13_18 
REMARK    5  A    between atoms: C17_22  and  O2_24 
REMARK    6  A    between atoms: C19_25  and  C20_27 
ROOT
ATOM      1  N1  <0> d           0.608   5.684  -0.349  0.00  0.00    -0.216 N 
ATOM      2  C7  <0> d           1.726   5.755   0.420  0.00  0.00     0.145 A 
ATOM      3  C8  <0> d           2.131   4.446   0.682  0.00  0.00     0.042 A 
ATOM      4  C9  <0> d           3.279   4.211   1.467  0.00  0.00     0.032 A 
ATOM      5  C10 <0> d           3.974   5.273   1.956  0.00  0.00     0.028 A 
ATOM      6  C11 <0> d           3.543   6.582   1.676  0.00  0.00     0.255 A 
ATOM      7  O1  <0> d           4.170   7.530   2.119  0.00  0.00    -0.268 OA
ATOM      8  N2  <0> d           2.447   6.803   0.927  0.00  0.00    -0.307 N 
ATOM      9  H1  <0> d           2.131   7.837   0.723  0.00  0.00     0.170 HD
ATOM     10  C19 <0> d           1.167   3.570   0.010  0.00  0.00     0.102 A 
ATOM     11  N4  <0> d           0.292   4.343  -0.589  0.00  0.00    -0.164 NA
ENDROOT
BRANCH   5  12
ATOM     12  C12 <0> d           5.203   5.047   2.798  0.00  0.00     0.164 C 
BRANCH  12  13
ATOM     13  N3  <0> d           6.395   5.106   1.948  0.00  0.00    -0.385 N 
ATOM     14  H10 <0> d           6.292   5.293   0.869  0.00  0.00     0.160 HD
BRANCH  13  15
ATOM     15  C13 <0> d           7.662   4.925   2.507  0.00  0.00     0.030 A 
ATOM     16  C18 <0> d           8.791   4.975   1.702  0.00  0.00     0.065 A 
ATOM     17  C17 <0> d          10.046   4.800   2.261  0.00  0.00     0.067 A 
ATOM     18  C16 <0> d          10.171   4.563   3.623  0.00  0.00     0.036 A 
ATOM     19  C15 <0> d           9.046   4.508   4.423  0.00  0.00     0.005 A 
ATOM     20  C14 <0> d           7.793   4.688   3.870  0.00  0.00     0.029 A 
BRANCH  17  21
ATOM     21  O2  <0> d          11.154   4.853   1.476  0.00  0.00    -0.361 OA
ATOM     22  H15 <0> d          11.055   5.041   0.397  0.00  0.00     0.217 HD
ENDBRANCH  17  21
ENDBRANCH  13  15
ENDBRANCH  12  13
ENDBRANCH   5  12
BRANCH  10  23
ATOM     23  C20 <0> d           1.182   2.088   0.002  0.00  0.00    -0.002 A 
ATOM     24  C25 <0> d           2.395   1.401  -0.013  0.00  0.00     0.056 A 
ATOM     25  C24 <0> d           2.402   0.018  -0.021  0.00  0.00     0.117 A 
ATOM     26  C23 <0> d           1.207  -0.683  -0.014  0.00  0.00     0.042 A 
ATOM     27  F1  <0> d           3.576  -0.650  -0.036  0.00  0.00    -0.206 F 
ATOM     28  C22 <0> d           0.002  -0.004   0.002  0.00  0.00     0.004 A 
ATOM     29  C21 <0> d          -0.017   1.376   0.010  0.00  0.00     0.014 A 
ENDBRANCH  10  23
BRANCH   1  30
ATOM     30  C4  <0> d          -0.113   6.783  -0.831  0.00  0.00     0.060 A 
ATOM     31  C3  <0> d          -0.715   6.726  -2.081  0.00  0.00     0.031 A 
ATOM     32  C2  <0> d          -1.426   7.812  -2.554  0.00  0.00     0.002 A 
ATOM     33  C1  <0> d          -1.538   8.955  -1.784  0.00  0.00     0.000 A 
ATOM     34  C6  <0> d          -0.939   9.015  -0.538  0.00  0.00     0.002 A 
ATOM     35  C5  <0> d          -0.232   7.931  -0.058  0.00  0.00     0.031 A 
ENDBRANCH   1  30
TORSDOF 6
