REMARK  6 active torsions:
REMARK  status: ('A' for Active; 'I' for Inactive)
REMARK    1  A    between atoms: C5_5  and  C9_9 
REMARK    2  A    between atoms: C9_9  and  N1_11 
REMARK       I    between atoms: N1_11  and  C11_12 
REMARK    3  A    between atoms: C11_12  and  C12_14 
REMARK    4  A    between atoms: C12_14  and  S1_15 
REMARK    5  A    between atoms: S1_15  and  C13_18 
REMARK    6  A    between atoms: C13_18  and  C14_19 
ROOT
ATOM      1  C12 <0> d          -1.330   1.944   0.019  0.00  0.00     0.243 C 
ENDROOT
BRANCH   1   2
ATOM      2  C11 <0> d          -0.014   1.209   0.009  0.00  0.00     0.232 C 
ATOM      3  N1  <0> d           1.143   1.898   0.001  0.00  0.00    -0.352 N 
ATOM      4  H14 <0> d           1.129   2.998   0.007  0.00  0.00     0.163 HD
ATOM      5  O1  <0> d           0.002  -0.004   0.002  0.00  0.00    -0.273 OA
BRANCH   3   6
ATOM      6  C9  <0> d           2.422   1.183  -0.015  0.00  0.00     0.113 C 
ATOM      7  C10 <0> d           2.819   0.817   1.417  0.00  0.00     0.037 C 
BRANCH   6   8
ATOM      8  C5  <0> d           3.483   2.065  -0.621  0.00  0.00    -0.035 A 
ATOM      9  C4  <0> d           3.511   3.415  -0.325  0.00  0.00     0.010 A 
ATOM     10  C3  <0> d           4.487   4.223  -0.878  0.00  0.00     0.008 A 
ATOM     11  C2  <0> d           5.430   3.683  -1.732  0.00  0.00    -0.056 A 
ATOM     12  C1  <0> d           6.492   4.565  -2.338  0.00  0.00     0.049 C 
ATOM     13  C7  <0> d           5.399   2.334  -2.032  0.00  0.00    -0.056 A 
ATOM     14  C6  <0> d           4.425   1.525  -1.476  0.00  0.00     0.016 A 
ATOM     15  C8  <0> d           6.426   1.745  -2.964  0.00  0.00     0.049 C 
ENDBRANCH   6   8
ENDBRANCH   3   6
ENDBRANCH   1   2
BRANCH   1  16
ATOM     16  S1  <0> d          -2.692   0.747   0.019  0.00  0.00     0.158 S 
ATOM     17  O2  <0> d          -2.664   0.034  -1.210  0.00  0.00    -0.227 OA
ATOM     18  O3  <0> d          -2.653   0.021   1.240  0.00  0.00    -0.227 OA
BRANCH  16  19
ATOM     19  C13 <0> d          -4.161   1.811   0.032  0.00  0.00     0.198 C 
BRANCH  19  20
ATOM     20  C14 <0> d          -5.402   0.956   0.033  0.00  0.00     0.035 A 
ATOM     21  N3  <0> d          -5.799   0.319  -1.112  0.00  0.00    -0.306 N 
ATOM     22  C17 <0> d          -6.904  -0.448  -1.121  0.00  0.00     0.331 A 
ATOM     23  C18 <0> d          -5.013   0.474  -2.338  0.00  0.00     0.161 C 
ATOM     24  N2  <0> d          -7.645  -0.607  -0.008  0.00  0.00    -0.271 N 
ATOM     25  O5  <0> d          -7.239  -1.004  -2.149  0.00  0.00    -0.246 OA
ATOM     26  C16 <0> d          -7.288   0.004   1.139  0.00  0.00     0.253 A 
ATOM     27  C19 <0> d          -8.845  -1.447  -0.045  0.00  0.00     0.164 C 
ATOM     28  C15 <0> d          -6.123   0.808   1.165  0.00  0.00     0.101 A 
ATOM     29  O4  <0> d          -7.957  -0.139   2.146  0.00  0.00    -0.268 OA
ENDBRANCH  19  20
ENDBRANCH  16  19
ENDBRANCH   1  16
TORSDOF 6
