REMARK  4 active torsions:
REMARK  status: ('A' for Active; 'I' for Inactive)
REMARK    1  A    between atoms: C5_5  and  N1_8 
REMARK    2  A    between atoms: C10_12  and  N2_15 
REMARK       I    between atoms: N2_15  and  C12_16 
REMARK    3  A    between atoms: N2_15  and  N3_19 
REMARK       I    between atoms: N3_19  and  C14_20 
REMARK    4  A    between atoms: C14_20  and  C15_22 
ROOT
ATOM      1  N2  <0> d          -0.990  -7.048   1.350  0.00  0.00    -0.244 N 
ATOM      2  C12 <0> d          -0.795  -8.140   2.115  0.00  0.00     0.235 C 
ATOM      3  O3  <0> d           0.327  -8.563   2.294  0.00  0.00    -0.272 OA
ATOM      4  C13 <0> d          -1.973  -8.836   2.748  0.00  0.00     0.119 C 
ENDROOT
BRANCH   1   5
ATOM      5  C10 <0> d           0.155  -6.371   0.735  0.00  0.00     0.212 A 
ATOM      6  C9  <0> d           0.020  -6.364  -0.801  0.00  0.00     0.141 A 
ATOM      7  C8  <0> d          -0.030  -4.892  -1.146  0.00  0.00     0.233 A 
ATOM      8  N1  <0> d           0.059  -4.172  -0.021  0.00  0.00    -0.251 N 
ATOM      9  O1  <0> d          -0.134  -4.436  -2.265  0.00  0.00    -0.273 OA
ATOM     10  C11 <0> d           0.172  -4.902   1.096  0.00  0.00     0.256 A 
ATOM     11  O2  <0> d           0.271  -4.455   2.219  0.00  0.00    -0.270 OA
BRANCH   8  12
ATOM     12  C5  <0> d           0.040  -2.771  -0.013  0.00  0.00     0.045 A 
ATOM     13  C4  <0> d           1.177  -2.062   0.351  0.00  0.00     0.031 A 
ATOM     14  C3  <0> d           1.156  -0.681   0.357  0.00  0.00     0.009 A 
ATOM     15  C2  <0> d           0.004  -0.004   0.001  0.00  0.00    -0.062 A 
ATOM     16  C1  <0> d          -0.016   1.503   0.009  0.00  0.00     0.048 C 
ATOM     17  C7  <0> d          -1.132  -0.707  -0.357  0.00  0.00     0.009 A 
ATOM     18  C6  <0> d          -1.115  -2.088  -0.370  0.00  0.00     0.031 A 
ENDBRANCH   8  12
ENDBRANCH   1   5
BRANCH   1  19
ATOM     19  N3  <0> d          -2.286  -6.559   1.143  0.00  0.00    -0.260 N 
ATOM     20  C14 <0> d          -3.123  -7.201   0.305  0.00  0.00     0.272 C 
ATOM     21  O4  <0> d          -2.753  -8.205  -0.272  0.00  0.00    -0.266 OA
ATOM     22  H14 <0> d          -2.582  -5.758   1.604  0.00  0.00     0.190 HD
BRANCH  20  23
ATOM     23  C15 <0> d          -4.490  -6.686   0.087  0.00  0.00     0.055 A 
ATOM     24  C20 <0> d          -5.361  -7.349  -0.781  0.00  0.00     0.049 A 
ATOM     25  C19 <0> d          -6.640  -6.864  -0.976  0.00  0.00     0.025 A 
ATOM     26 Cl1  <0> d          -4.838  -8.783  -1.609  0.00  0.00    -0.083 Cl
ATOM     27  C18 <0> d          -7.054  -5.719  -0.321  0.00  0.00     0.002 A 
ATOM     28  C17 <0> d          -6.195  -5.054   0.536  0.00  0.00     0.001 A 
ATOM     29  C16 <0> d          -4.917  -5.530   0.744  0.00  0.00     0.019 A 
ENDBRANCH  20  23
ENDBRANCH   1  19
TORSDOF 4
