REMARK  4 active torsions:
REMARK  status: ('A' for Active; 'I' for Inactive)
REMARK    1  A    between atoms: N1_2  and  C2_3 
REMARK    2  A    between atoms: N1_2  and  C9_11 
REMARK    3  A    between atoms: C2_3  and  C3_4 
REMARK    4  A    between atoms: C12_17  and  N2_18 
ROOT
ATOM      1  C9  <0> d           0.590  -0.443  -1.271  0.00  0.00     0.270 C 
ATOM      2  C10 <0> d           2.079  -0.033  -1.294  0.00  0.00     0.178 C 
ATOM      3  S1  <0> d           2.896  -1.616  -0.810  0.00  0.00     0.148 S 
ATOM      4  O1  <0> d           2.858  -1.752   0.604  0.00  0.00    -0.228 OA
ATOM      5  O2  <0> d           4.134  -1.737  -1.497  0.00  0.00    -0.228 OA
ATOM      6  C11 <0> d           1.661  -2.760  -1.567  0.00  0.00     0.177 C 
ATOM      7  C12 <0> d           0.364  -1.940  -1.419  0.00  0.00     0.265 C 
ENDROOT
BRANCH   1   8
ATOM      8  N1  <0> d           0.002  -0.004   0.002  0.00  0.00     0.096 N 
ATOM      9  C1  <0> d          -0.005   1.462   0.101  0.00  0.00     0.310 C 
BRANCH   8  10
ATOM     10  C2  <0> d           0.707  -0.605   1.142  0.00  0.00     0.312 C 
BRANCH  10  11
ATOM     11  C3  <0> d          -0.067  -0.338   2.408  0.00  0.00    -0.013 A 
ATOM     12  C8  <0> d          -1.167  -1.115   2.723  0.00  0.00     0.019 A 
ATOM     13  C7  <0> d          -1.873  -0.872   3.887  0.00  0.00     0.019 A 
ATOM     14 Br1  <0> d          -1.701  -2.512   1.566  0.00  0.00    -0.051 Br
ATOM     15  C6  <0> d          -1.486   0.152   4.730  0.00  0.00     0.001 A 
ATOM     16  C5  <0> d          -0.389   0.931   4.412  0.00  0.00     0.001 A 
ATOM     17  C4  <0> d           0.321   0.686   3.251  0.00  0.00     0.010 A 
ENDBRANCH  10  11
ENDBRANCH   8  10
ENDBRANCH   1   8
BRANCH   7  18
ATOM     18  N2  <0> d          -0.472  -2.173  -2.604  0.00  0.00     0.086 N 
ATOM     19  H16 <0> d          -0.645  -3.159  -2.737  0.00  0.00     0.313 HD
ATOM     20  H17 <0> d          -1.338  -1.659  -2.543  0.00  0.00     0.313 HD
ENDBRANCH   7  18
TORSDOF 4
