REMARK  4 active torsions:
REMARK  status: ('A' for Active; 'I' for Inactive)
REMARK    1  A    between atoms: C2_2  and  C3_3 
REMARK    2  A    between atoms: C3_3  and  N1_4 
REMARK    3  A    between atoms: N1_4  and  C4_5 
REMARK    4  A    between atoms: C5_8  and  C7_11 
ROOT
ATOM      1  C4  <0> d           2.478  -2.462   1.302  0.00  0.00     0.157 C 
ATOM      2  N2  <0> d           2.540  -3.313   2.305  0.00  0.00    -0.257 N 
ATOM      3  N3  <0> d           3.525  -4.069   2.560  0.00  0.00    -0.176 NA
ATOM      4  C5  <0> d           4.750  -3.973   2.172  0.00  0.00     0.074 C 
ATOM      5  C6  <0> d           5.237  -2.831   1.310  0.00  0.00     0.144 C 
ATOM      6  S1  <0> d           3.862  -2.364   0.202  0.00  0.00    -0.087 SA
ATOM      7  H15 <0> d           1.772  -3.365   2.895  0.00  0.00     0.191 HD
ENDROOT
BRANCH   4   8
ATOM      8  C7  <0> d           5.708  -5.012   2.583  0.00  0.00    -0.007 A 
ATOM      9  C12 <0> d           5.285  -6.080   3.381  0.00  0.00     0.046 A 
ATOM     10  C11 <0> d           6.190  -7.053   3.758  0.00  0.00     0.069 A 
ATOM     11  C10 <0> d           7.524  -6.965   3.353  0.00  0.00     0.096 A 
ATOM     12  N4  <0> d           5.786  -8.136   4.552  0.00  0.00    -0.323 N 
ATOM     13  C9  <0> d           7.943  -5.903   2.567  0.00  0.00     0.040 A 
ATOM     14  O2  <0> d           8.403  -7.928   3.739  0.00  0.00    -0.340 OA
ATOM     15  C8  <0> d           7.045  -4.930   2.181  0.00  0.00     0.016 A 
ATOM     16  C14 <0> d           8.183  -8.524   5.019  0.00  0.00     0.278 C 
ATOM     17  C13 <0> d           6.727  -8.885   5.167  0.00  0.00     0.246 C 
ATOM     18  O1  <0> d           6.402  -9.844   5.835  0.00  0.00    -0.271 OA
ATOM     19  H12 <0> d           4.844  -8.344   4.658  0.00  0.00     0.169 HD
ENDBRANCH   4   8
BRANCH   1  20
ATOM     20  N1  <0> d           1.367  -1.676   1.111  0.00  0.00    -0.366 N 
ATOM     21  H6  <0> d           0.617  -1.740   1.722  0.00  0.00     0.161 HD
BRANCH  20  22
ATOM     22  C3  <0> d           1.317  -0.740  -0.015  0.00  0.00     0.148 C 
BRANCH  22  23
ATOM     23  C2  <0> d           0.002  -0.004   0.002  0.00  0.00    -0.018 C 
ATOM     24  C1  <0> d          -0.016   1.306   0.009  0.00  0.00     0.008 C 
ENDBRANCH  22  23
ENDBRANCH  20  22
ENDBRANCH   1  20
TORSDOF 4
