REMARK  5 active torsions:
REMARK  status: ('A' for Active; 'I' for Inactive)
REMARK    1  A    between atoms: N3_9  and  C7_12 
REMARK    2  A    between atoms: C7_12  and  C8_13 
REMARK       I    between atoms: C8_13  and  N5_15 
REMARK    3  A    between atoms: N5_15  and  C9_16 
REMARK    4  A    between atoms: C14_21  and  C15_22 
REMARK       I    between atoms: C15_22  and  N6_24 
REMARK    5  A    between atoms: N6_24  and  C16_25 
ROOT
ATOM      1  C16 <0> d          -1.586  -6.759 -10.132  0.00  0.00     0.216 C 
ATOM      2  C17 <0> d          -2.221  -7.227 -11.375  0.00  0.00    -0.098 C 
ATOM      3  C18 <0> d          -2.728  -7.600 -12.366  0.00  0.00     0.014 C 
ENDROOT
BRANCH   1   4
ATOM      4  N6  <0> d          -2.598  -6.646  -9.079  0.00  0.00    -0.346 N 
ATOM      5  C15 <0> d          -2.245  -6.233  -7.846  0.00  0.00     0.254 C 
ATOM      6  O3  <0> d          -1.086  -5.953  -7.608  0.00  0.00    -0.268 OA
ATOM      7  H13 <0> d          -3.523  -6.869  -9.269  0.00  0.00     0.163 HD
BRANCH   5   8
ATOM      8  C14 <0> d          -3.264  -6.119  -6.785  0.00  0.00     0.058 A 
ATOM      9  C9  <0> d          -2.922  -5.591  -5.532  0.00  0.00     0.050 A 
ATOM     10  C10 <0> d          -3.892  -5.484  -4.544  0.00  0.00     0.030 A 
ATOM     11  C11 <0> d          -5.183  -5.901  -4.794  0.00  0.00     0.002 A 
ATOM     12  C12 <0> d          -5.523  -6.428  -6.029  0.00  0.00     0.001 A 
ATOM     13  C13 <0> d          -4.574  -6.542  -7.022  0.00  0.00     0.019 A 
BRANCH   9  14
ATOM     14  N5  <0> d          -1.618  -5.172  -5.281  0.00  0.00    -0.325 N 
ATOM     15  C8  <0> d          -1.380  -4.234  -4.343  0.00  0.00     0.240 C 
ATOM     16  O2  <0> d          -2.307  -3.683  -3.788  0.00  0.00    -0.271 OA
ATOM     17  H8  <0> d          -0.880  -5.555  -5.782  0.00  0.00     0.169 HD
BRANCH  15  18
ATOM     18  C7  <0> d           0.037  -3.869  -3.984  0.00  0.00     0.236 C 
BRANCH  18  19
ATOM     19  N3  <0> d           0.028  -2.834  -2.947  0.00  0.00    -0.299 N 
ATOM     20  C5  <0> d           0.026  -3.188  -1.641  0.00  0.00     0.264 A 
ATOM     21  C3  <0> d           0.017  -2.113  -0.649  0.00  0.00     0.099 A 
ATOM     22  O1  <0> d           0.033  -4.359  -1.303  0.00  0.00    -0.267 OA
ATOM     23  C2  <0> d           0.010  -0.787  -1.112  0.00  0.00     0.164 A 
ATOM     24  C4  <0> d           0.013  -2.065   0.757  0.00  0.00     0.160 A 
ATOM     25  N1  <0> d           0.002   0.008  -0.010  0.00  0.00    -0.256 N 
ATOM     26  N4  <0> d           0.012  -0.555  -2.434  0.00  0.00    -0.224 NA
ATOM     27  C1  <0> d          -0.007   1.473  -0.009  0.00  0.00     0.182 C 
ATOM     28  N2  <0> d           0.009  -0.813   1.125  0.00  0.00    -0.182 NA
ATOM     29  C6  <0> d           0.021  -1.524  -3.301  0.00  0.00     0.215 A 
ENDBRANCH  18  19
ENDBRANCH  15  18
ENDBRANCH   9  14
ENDBRANCH   5   8
ENDBRANCH   1   4
TORSDOF 5
