REMARK  0 active torsions:
REMARK  status: ('A' for Active; 'I' for Inactive)
ROOT
ATOM      1  C1  <0> d          -0.863  -1.773   3.310  0.00  0.00     0.036 C 
ATOM      2  C2  <0> d          -0.936  -1.252   1.898  0.00  0.00    -0.026 C 
ATOM      3  C3  <0> d           0.049  -0.538   1.412  0.00  0.00    -0.049 C 
ATOM      4  C4  <0> d           1.284  -0.226   2.226  0.00  0.00     0.270 C 
ATOM      5  C5  <0> d           3.523   0.441   2.141  0.00  0.00     0.237 C 
ATOM      6  C6  <0> d           3.054   1.835   1.649  0.00  0.00     0.051 C 
ATOM      7  C7  <0> d           2.519   1.557   0.229  0.00  0.00     0.063 C 
ATOM      8  C8  <0> d           2.500   0.045   0.091  0.00  0.00     0.208 C 
ATOM      9  C9  <0> d           1.300  -0.447  -0.698  0.00  0.00     0.049 C 
ATOM     10  C10 <0> d           0.002  -0.004   0.002  0.00  0.00     0.064 C 
ATOM     11  C11 <0> d          -0.018   1.510   0.010  0.00  0.00     0.054 C 
ATOM     12  C12 <0> d           1.156   2.157   0.003  0.00  0.00     0.043 C 
ATOM     13  N1  <0> d           1.417   3.445  -0.405  0.00  0.00    -0.357 N 
ATOM     14  C13 <0> d           2.652   3.470  -1.040  0.00  0.00     0.040 A 
ATOM     15  C14 <0> d           3.373   2.298  -0.747  0.00  0.00    -0.015 A 
ATOM     16  C15 <0> d           4.596   2.029  -1.313  0.00  0.00     0.011 A 
ATOM     17  C16 <0> d           5.114   2.986  -2.181  0.00  0.00     0.001 A 
ATOM     18  C17 <0> d           4.429   4.151  -2.458  0.00  0.00     0.002 A 
ATOM     19  C18 <0> d           3.188   4.425  -1.901  0.00  0.00     0.030 A 
ATOM     20  C19 <0> d          -1.256   2.229   0.020  0.00  0.00     0.098 C 
ATOM     21  N2  <0> d          -2.239   2.800   0.028  0.00  0.00    -0.192 NA
ATOM     22  H15 <0> d           0.835   4.209  -0.271  0.00  0.00     0.166 HD
ATOM     23  N3  <0> d           2.570  -0.409   1.496  0.00  0.00    -0.062 N 
ATOM     24  H20 <0> d           2.858  -1.394   1.533  0.00  0.00     0.280 HD
ENDROOT
TORSDOF 0
