REMARK  3 active torsions:
REMARK  status: ('A' for Active; 'I' for Inactive)
REMARK    1  A    between atoms: C6_6  and  O4_21 
REMARK    2  A    between atoms: C7_7  and  N1_8 
REMARK       I    between atoms: N1_8  and  C8_9 
REMARK    3  A    between atoms: C8_9  and  C9_11 
ROOT
ATOM      1  N1  <0> d           0.026  -0.012   2.417  0.00  0.00    -0.320 N 
ATOM      2  C8  <0> d          -0.354  -0.638   3.549  0.00  0.00     0.259 C 
ATOM      3  O1  <0> d          -0.612  -1.826   3.529  0.00  0.00    -0.267 OA
ATOM      4  H6  <0> d           0.301   0.917   2.446  0.00  0.00     0.169 HD
ENDROOT
BRANCH   1   5
ATOM      5  C7  <0> d           0.022  -0.704   1.199  0.00  0.00     0.074 A 
ATOM      6  C2  <0> d           1.172  -1.342   0.759  0.00  0.00    -0.031 A 
ATOM      7  C1  <0> d           2.427  -1.292   1.591  0.00  0.00     0.050 C 
ATOM      8  C3  <0> d           1.165  -2.030  -0.440  0.00  0.00     0.028 A 
ATOM      9  C4  <0> d           0.014  -2.078  -1.207  0.00  0.00     0.014 A 
ATOM     10  C5  <0> d          -1.135  -1.438  -0.777  0.00  0.00     0.058 A 
ATOM     11 Br1  <0> d           0.012  -3.020  -2.846  0.00  0.00    -0.051 Br
ATOM     12  C6  <0> d          -1.135  -0.747   0.423  0.00  0.00     0.096 A 
BRANCH  12  13
ATOM     13  O4  <0> d          -2.263  -0.117   0.847  0.00  0.00    -0.354 OA
ATOM     14  C17 <0> d          -3.413  -0.209   0.004  0.00  0.00     0.210 C 
ENDBRANCH  12  13
ENDBRANCH   1   5
BRANCH   2  15
ATOM     15  C9  <0> d          -0.458   0.119   4.811  0.00  0.00     0.068 A 
ATOM     16  C14 <0> d          -0.852  -0.529   5.989  0.00  0.00     0.117 A 
ATOM     17  C13 <0> d          -0.938   0.191   7.175  0.00  0.00     0.103 A 
ATOM     18  O2  <0> d          -1.144  -1.855   5.956  0.00  0.00    -0.345 OA
ATOM     19  C12 <0> d          -0.648   1.546   7.183  0.00  0.00     0.040 A 
ATOM     20  O3  <0> d          -1.309  -0.419   8.334  0.00  0.00    -0.346 OA
ATOM     21  C11 <0> d          -0.265   2.188   6.017  0.00  0.00     0.004 A 
ATOM     22  C10 <0> d          -0.168   1.486   4.836  0.00  0.00     0.020 A 
ATOM     23  C16 <0> d          -1.969  -1.687   8.208  0.00  0.00     0.202 C 
ATOM     24  C15 <0> d          -1.171  -2.540   7.213  0.00  0.00     0.202 C 
ENDBRANCH   2  15
TORSDOF 3
