REMARK  4 active torsions:
REMARK  status: ('A' for Active; 'I' for Inactive)
REMARK    1  A    between atoms: C4_5  and  S2_6 
REMARK    2  A    between atoms: S2_6  and  N1_9 
REMARK    3  A    between atoms: C8_13  and  C10_15 
REMARK    4  A    between atoms: C10_15  and  N2_16 
REMARK       I    between atoms: N2_16  and  C11_17 
REMARK       I    between atoms: C11_17  and  N3_19 
ROOT
ATOM      1  N1  <0> d          -1.744  -1.437  -1.570  0.00  0.00    -0.306 N 
ATOM      2  C5  <0> d          -2.726  -0.600  -2.272  0.00  0.00     0.135 C 
ATOM      3  C6  <0> d          -2.095  -0.082  -3.569  0.00  0.00     0.021 C 
ATOM      4  C7  <0> d          -1.578  -1.266  -4.388  0.00  0.00     0.009 C 
ATOM      5  C8  <0> d          -0.503  -2.010  -3.592  0.00  0.00     0.022 C 
ATOM      6  C9  <0> d          -1.112  -2.546  -2.297  0.00  0.00     0.141 C 
ENDROOT
BRANCH   1   7
ATOM      7  S2  <0> d          -1.352  -1.132   0.010  0.00  0.00     0.267 S 
ATOM      8  O1  <0> d          -0.861  -2.352   0.549  0.00  0.00    -0.200 OA
ATOM      9  O2  <0> d          -2.455  -0.438   0.576  0.00  0.00    -0.200 OA
BRANCH   7  10
ATOM     10  C4  <0> d           0.002  -0.004   0.002  0.00  0.00     0.121 A 
ATOM     11  C1  <0> d          -0.016   1.351   0.009  0.00  0.00     0.035 A 
ATOM     12  C2  <0> d           1.183   2.038   0.002  0.00  0.00     0.028 A 
ATOM     13  C3  <0> d           2.343   1.335  -0.013  0.00  0.00     0.052 A 
ATOM     14  S1  <0> d           1.753  -0.350  -0.017  0.00  0.00    -0.069 SA
ATOM     15 Br1  <0> d           4.123   1.974  -0.027  0.00  0.00    -0.043 Br
ENDBRANCH   7  10
ENDBRANCH   1   7
BRANCH   5  16
ATOM     16  C10 <0> d           0.037  -3.174  -4.425  0.00  0.00     0.130 C 
BRANCH  16  17
ATOM     17  N2  <0> d           0.725  -2.650  -5.608  0.00  0.00    -0.343 N 
ATOM     18  C11 <0> d           1.284  -3.498  -6.493  0.00  0.00     0.313 C 
ATOM     19  O3  <0> d           1.218  -4.698  -6.310  0.00  0.00    -0.248 OA
ATOM     20  N3  <0> d           1.917  -3.015  -7.581  0.00  0.00    -0.352 N 
ATOM     21  H15 <0> d           1.970  -2.058  -7.726  0.00  0.00     0.160 HD
ATOM     22  H16 <0> d           2.320  -3.626  -8.218  0.00  0.00     0.160 HD
ATOM     23  H14 <0> d           0.777  -1.692  -5.753  0.00  0.00     0.164 HD
ENDBRANCH  16  17
ENDBRANCH   5  16
TORSDOF 4
