REMARK  5 active torsions:
REMARK  status: ('A' for Active; 'I' for Inactive)
REMARK    1  A    between atoms: C2_2  and  N1_3 
REMARK    2  A    between atoms: C5_6  and  C7_8 
REMARK    3  A    between atoms: C7_8  and  N2_9 
REMARK    4  A    between atoms: N2_9  and  C8_10 
REMARK    5  A    between atoms: C9_11  and  C15_18 
ROOT
ATOM      1  C8  <0> d           2.998  -4.344  -4.961  0.00  0.00     0.115 A 
ATOM      2  C9  <0> d           4.219  -4.734  -5.538  0.00  0.00     0.051 A 
ATOM      3  C10 <0> d           4.200  -5.402  -6.768  0.00  0.00    -0.043 A 
ATOM      4  C11 <0> d           2.975  -5.649  -7.363  0.00  0.00     0.032 A 
ATOM      5  C12 <0> d           1.815  -5.234  -6.733  0.00  0.00     0.007 A 
ATOM      6  N3  <0> d           1.854  -4.610  -5.571  0.00  0.00    -0.346 N 
ATOM      7  C13 <0> d           0.483  -5.505  -7.383  0.00  0.00     0.068 C 
ATOM      8  C14 <0> d           5.481  -5.841  -7.428  0.00  0.00     0.049 C 
ATOM      9  H26 <0> d           1.022  -4.336  -5.155  0.00  0.00     0.167 HD
ENDROOT
BRANCH   1  10
ATOM     10  N2  <0> d           2.991  -3.683  -3.746  0.00  0.00    -0.375 N 
ATOM     11  H15 <0> d           3.820  -3.555  -3.259  0.00  0.00     0.161 HD
BRANCH  10  12
ATOM     12  C7  <0> d           1.732  -3.176  -3.194  0.00  0.00     0.127 C 
BRANCH  12  13
ATOM     13  C5  <0> d           2.002  -2.491  -1.853  0.00  0.00     0.031 C 
ATOM     14  C4  <0> d           2.851  -1.216  -2.062  0.00  0.00     0.035 C 
ATOM     15  C3  <0> d           2.229  -0.217  -1.054  0.00  0.00     0.235 C 
ATOM     16  N1  <0> d           0.777  -0.526  -1.121  0.00  0.00    -0.071 N 
ATOM     17  C6  <0> d           0.684  -1.999  -1.227  0.00  0.00     0.241 C 
ATOM     18  H25 <0> d           0.365  -0.092  -1.933  0.00  0.00     0.279 HD
BRANCH  16  19
ATOM     19  C2  <0> d           0.104  -0.063   0.100  0.00  0.00     0.230 C 
ATOM     20  C1  <0> d           0.102   1.467   0.131  0.00  0.00     0.034 C 
ENDBRANCH  16  19
ENDBRANCH  12  13
ENDBRANCH  10  12
ENDBRANCH   1  10
BRANCH   2  21
ATOM     21  C15 <0> d           5.495  -4.445  -4.862  0.00  0.00     0.108 C 
ATOM     22  S1  <0> d           6.215  -5.626  -3.853  0.00  0.00    -0.060 SA
ATOM     23  N4  <0> d           6.095  -3.251  -5.036  0.00  0.00    -0.389 N 
ATOM     24  H23 <0> d           5.725  -2.610  -5.663  0.00  0.00     0.157 HD
ATOM     25  H24 <0> d           6.895  -3.033  -4.534  0.00  0.00     0.157 HD
ENDBRANCH   2  21
TORSDOF 5
