REMARK  1 active torsions:
REMARK  status: ('A' for Active; 'I' for Inactive)
REMARK    1  A    between atoms: C5_6  and  C9_13 
ROOT
ATOM      1  C1  <0> d          -0.028   1.530  -0.002  0.00  0.00     0.016 C 
ATOM      2  C2  <0> d          -0.004   0.000  -0.008  0.00  0.00    -0.027 C 
ATOM      3  C3  <0> d          -1.440  -0.532   0.002  0.00  0.00     0.067 C 
ATOM      4  C4  <0> d          -1.424  -2.040  -0.009  0.00  0.00     0.052 C 
ATOM      5  N1  <0> d          -1.988  -2.784  -0.880  0.00  0.00    -0.256 NA
ATOM      6  C5  <0> d          -1.737  -4.202  -0.603  0.00  0.00     0.377 C 
ATOM      7  N2  <0> d          -1.282  -4.267   0.805  0.00  0.00     0.132 N 
ATOM      8  C6  <0> d          -0.748  -2.904   1.035  0.00  0.00     0.361 C 
ATOM      9  C7  <0> d           0.741  -2.906   0.773  0.00  0.00     0.257 C 
ATOM     10  O1  <0> d           1.308  -3.924   0.435  0.00  0.00    -0.271 OA
ATOM     11  N3  <0> d           1.425  -1.756   0.921  0.00  0.00    -0.358 N 
ATOM     12  C8  <0> d           0.738  -0.503   1.232  0.00  0.00     0.131 C 
ATOM     13  C17 <0> d           0.713  -0.494  -1.266  0.00  0.00     0.016 C 
ATOM     14  H9  <0> d          -2.053  -4.463   1.426  0.00  0.00     0.320 HD
ATOM     15  H10 <0> d           2.390  -1.759   0.821  0.00  0.00     0.162 HD
ENDROOT
BRANCH   6  16
ATOM     16  C9  <0> d          -0.665  -4.729  -1.522  0.00  0.00     0.004 C 
ATOM     17  C14 <0> d          -0.292  -6.085  -1.546  0.00  0.00    -0.018 C 
ATOM     18  C13 <0> d           0.261  -6.742  -2.803  0.00  0.00     0.164 C 
ATOM     19  C15 <0> d          -0.275  -7.046  -0.608  0.00  0.00     0.029 C 
ATOM     20  C12 <0> d           1.248  -5.791  -3.410  0.00  0.00     0.005 C 
ATOM     21  N4  <0> d           0.819  -8.002  -2.337  0.00  0.00    -0.288 NA
ATOM     22  C11 <0> d           1.089  -4.477  -3.213  0.00  0.00    -0.001 C 
ATOM     23  C10 <0> d           0.020  -3.922  -2.388  0.00  0.00     0.011 C 
ATOM     24  C16 <0> d           0.469  -8.150  -1.083  0.00  0.00     0.112 C 
ENDBRANCH   6  16
TORSDOF 1
