REMARK  7 active torsions:
REMARK  status: ('A' for Active; 'I' for Inactive)
REMARK    1  A    between atoms: C5_5  and  C8_8 
REMARK    2  A    between atoms: N1_9  and  N2_10 
REMARK    3  A    between atoms: N2_10  and  C9_11 
REMARK    4  A    between atoms: C10_14  and  S1_17 
REMARK    5  A    between atoms: N5_15  and  N6_16 
REMARK    6  A    between atoms: S1_17  and  C11_18 
REMARK    7  A    between atoms: C11_18  and  C12_19 
ROOT
ATOM      1  C9  <0> d          -1.073   5.997   1.795  0.00  0.00     0.762 A 
ATOM      2  N3  <0> d          -0.430   5.887   0.658  0.00  0.00     0.048 NA
ATOM      3  N4  <0> d          -0.263   4.523   0.386  0.00  0.00    -0.106 NA
ATOM      4  C10 <0> d          -0.809   3.844   1.366  0.00  0.00     0.226 A 
ATOM      5  N5  <0> d          -1.329   4.736   2.260  0.00  0.00    -0.062 N 
ENDROOT
BRANCH   1   6
ATOM      6  N2  <0> d          -1.436   7.183   2.416  0.00  0.00    -0.104 N 
ATOM      7  H9  <0> d          -1.977   7.160   3.373  0.00  0.00     0.208 HD
BRANCH   6   8
ATOM      8  N1  <0> d          -1.114   8.411   1.822  0.00  0.00    -0.172 NA
ATOM      9  C8  <0> d          -1.454   9.522   2.402  0.00  0.00     0.150 C 
BRANCH   9  10
ATOM     10  C5  <0> d          -1.116  10.813   1.778  0.00  0.00    -0.017 A 
ATOM     11  C4  <0> d          -1.480  12.011   2.400  0.00  0.00     0.013 A 
ATOM     12  C3  <0> d          -1.159  13.215   1.809  0.00  0.00     0.007 A 
ATOM     13  C2  <0> d          -0.479  13.240   0.605  0.00  0.00    -0.062 A 
ATOM     14  C1  <0> d          -0.133  14.561  -0.034  0.00  0.00     0.048 C 
ATOM     15  C7  <0> d          -0.115  12.059  -0.017  0.00  0.00     0.007 A 
ATOM     16  C6  <0> d          -0.424  10.847   0.564  0.00  0.00     0.013 A 
ENDBRANCH   9  10
ENDBRANCH   6   8
ENDBRANCH   1   6
BRANCH   5  17
ATOM     17  N6  <0> d          -1.986   4.424   3.416  0.00  0.00    -0.322 N 
ATOM     18  H10 <0> d          -2.138   3.371   3.695  0.00  0.00     0.178 HD
ATOM     19  H11 <0> d          -2.363   5.226   4.067  0.00  0.00     0.178 HD
ENDBRANCH   5  17
BRANCH   4  20
ATOM     20  S1  <0> d          -0.867   2.088   1.503  0.00  0.00    -0.083 SA
BRANCH  20  21
ATOM     21  C11 <0> d          -0.018   1.503   0.010  0.00  0.00     0.121 C 
BRANCH  21  22
ATOM     22  C12 <0> d           0.002  -0.004   0.002  0.00  0.00    -0.048 A 
ATOM     23  C17 <0> d          -1.031  -0.706  -0.591  0.00  0.00     0.009 A 
ATOM     24  C16 <0> d          -1.012  -2.088  -0.599  0.00  0.00     0.019 A 
ATOM     25  C15 <0> d           0.040  -2.769  -0.014  0.00  0.00     0.011 A 
ATOM     26  C14 <0> d           1.074  -2.066   0.579  0.00  0.00     0.019 A 
ATOM     27 Br1  <0> d           0.066  -4.660  -0.024  0.00  0.00    -0.051 Br
ATOM     28  C13 <0> d           1.057  -0.684   0.582  0.00  0.00     0.009 A 
ENDBRANCH  21  22
ENDBRANCH  20  21
ENDBRANCH   4  20
TORSDOF 7
