REMARK  5 active torsions:
REMARK  status: ('A' for Active; 'I' for Inactive)
REMARK    1  A    between atoms: C4_4  and  C7_7 
REMARK    2  A    between atoms: C7_7  and  N1_8 
REMARK    3  A    between atoms: C9_11  and  C11_15 
REMARK    4  A    between atoms: C11_15  and  C12_16 
REMARK       I    between atoms: C12_16  and  N2_18 
REMARK    5  A    between atoms: N2_18  and  C13_19 
ROOT
ATOM      1  N1  <0> d           4.152  -0.952   1.338  0.00  0.00    -0.274 N 
ATOM      2  C8  <0> d           4.905  -0.039   1.927  0.00  0.00     0.242 A 
ATOM      3  O1  <0> d           5.237   0.985   1.368  0.00  0.00    -0.272 OA
ATOM      4  C9  <0> d           5.324  -0.360   3.354  0.00  0.00     0.158 A 
ATOM      5  S1  <0> d           4.505  -1.996   3.561  0.00  0.00    -0.054 SA
ATOM      6  C10 <0> d           3.764  -2.093   1.938  0.00  0.00     0.289 A 
ATOM      7  O2  <0> d           3.074  -2.983   1.481  0.00  0.00    -0.260 OA
ENDROOT
BRANCH   4   8
ATOM      8  C11 <0> d           4.772   0.669   4.342  0.00  0.00     0.128 C 
BRANCH   8   9
ATOM      9  C12 <0> d           5.311   0.383   5.720  0.00  0.00     0.225 C 
ATOM     10  O3  <0> d           6.063  -0.552   5.895  0.00  0.00    -0.273 OA
ATOM     11  N2  <0> d           4.958   1.167   6.758  0.00  0.00    -0.306 N 
ATOM     12  H11 <0> d           4.356   1.915   6.619  0.00  0.00     0.171 HD
BRANCH  11  13
ATOM     13  C13 <0> d           5.455   0.902   8.029  0.00  0.00     0.172 A 
ATOM     14  S2  <0> d           5.158   1.733   9.462  0.00  0.00    -0.062 SA
ATOM     15  C15 <0> d           6.168   0.732  10.542  0.00  0.00     0.072 A 
ATOM     16  C14 <0> d           6.659  -0.173   9.661  0.00  0.00     0.126 A 
ATOM     17  N3  <0> d           6.277  -0.054   8.403  0.00  0.00    -0.236 NA
ENDBRANCH  11  13
ENDBRANCH   8   9
ENDBRANCH   4   8
BRANCH   1  18
ATOM     18  C7  <0> d           3.711  -0.707  -0.038  0.00  0.00     0.174 C 
BRANCH  18  19
ATOM     19  C4  <0> d           2.396   0.029  -0.020  0.00  0.00    -0.040 A 
ATOM     20  C3  <0> d           2.377   1.411  -0.013  0.00  0.00     0.009 A 
ATOM     21  C2  <0> d           1.171   2.086   0.002  0.00  0.00     0.001 A 
ATOM     22  C1  <0> d          -0.017   1.378   0.010  0.00  0.00     0.000 A 
ATOM     23  C6  <0> d           0.002  -0.004   0.002  0.00  0.00     0.001 A 
ATOM     24  C5  <0> d           1.208  -0.679  -0.012  0.00  0.00     0.009 A 
ENDBRANCH  18  19
ENDBRANCH   1  18
TORSDOF 5
