REMARK  7 active torsions:
REMARK  status: ('A' for Active; 'I' for Inactive)
REMARK    1  A    between atoms: N1_7  and  C7_8 
REMARK    2  A    between atoms: C7_8  and  C8_9 
REMARK    3  A    between atoms: C8_9  and  C9_10 
REMARK    4  A    between atoms: C9_10  and  C10_11 
REMARK    5  A    between atoms: C10_11  and  N2_12 
REMARK       I    between atoms: N2_12  and  C11_13 
REMARK    6  A    between atoms: C11_13  and  C12_15 
REMARK       I    between atoms: C12_15  and  N3_17 
REMARK    7  A    between atoms: N3_17  and  C13_18 
ROOT
ATOM      1  N2  <0> d           0.376   0.344   7.323  0.00  0.00    -0.353 N 
ATOM      2  C11 <0> d           0.917   0.114   8.536  0.00  0.00     0.311 C 
ATOM      3  O1  <0> d           1.935  -0.538   8.632  0.00  0.00    -0.262 OA
ATOM      4  H21 <0> d          -0.439   0.866   7.246  0.00  0.00     0.162 HD
ENDROOT
BRANCH   2   5
ATOM      5  C12 <0> d           0.263   0.662   9.760  0.00  0.00     0.337 C 
ATOM      6  O2  <0> d          -0.759   1.317   9.664  0.00  0.00    -0.260 OA
ATOM      7  N3  <0> d           0.797   0.435  10.958  0.00  0.00    -0.180 NA
BRANCH   7   8
ATOM      8  C13 <0> d           0.214   0.924  12.051  0.00  0.00     0.175 A 
ATOM      9  S1  <0> d          -1.188   1.846  12.146  0.00  0.00    -0.050 SA
ATOM     10  C19 <0> d          -1.254   2.063  13.905  0.00  0.00     0.035 A 
ATOM     11  C14 <0> d          -0.116   1.376  14.354  0.00  0.00     0.051 A 
ATOM     12  C18 <0> d          -2.112   2.704  14.768  0.00  0.00     0.021 A 
ATOM     13  N4  <0> d           0.621   0.796  13.339  0.00  0.00    -0.334 N 
ATOM     14  C15 <0> d           0.120   1.367  15.736  0.00  0.00     0.031 A 
ATOM     15  H27 <0> d           1.426   0.298  13.547  0.00  0.00     0.168 HD
ATOM     16  C16 <0> d          -0.739   2.009  16.596  0.00  0.00     0.002 A 
ATOM     17  C17 <0> d          -1.857   2.680  16.127  0.00  0.00     0.002 A 
ENDBRANCH   7   8
ENDBRANCH   2   5
BRANCH   1  18
ATOM     18  C10 <0> d           1.017  -0.194   6.121  0.00  0.00     0.123 C 
BRANCH  18  19
ATOM     19  C9  <0> d           0.207   0.209   4.887  0.00  0.00     0.021 C 
BRANCH  19  20
ATOM     20  C8  <0> d           0.877  -0.353   3.631  0.00  0.00     0.029 C 
BRANCH  20  21
ATOM     21  C7  <0> d           0.067   0.050   2.397  0.00  0.00     0.235 C 
BRANCH  21  22
ATOM     22  N1  <0> d           0.711  -0.490   1.192  0.00  0.00    -0.067 N 
ATOM     23  C2  <0> d           0.002  -0.004   0.002  0.00  0.00     0.184 C 
ATOM     24  C1  <0> d          -0.019   1.526   0.010  0.00  0.00     0.040 C 
ATOM     25  C3  <0> d           0.717  -0.497  -1.258  0.00  0.00     0.033 C 
ATOM     26  C4  <0> d           0.735  -2.028  -1.262  0.00  0.00     0.004 C 
ATOM     27  C5  <0> d           1.410  -2.524   0.020  0.00  0.00     0.028 C 
ATOM     28  C6  <0> d           0.669  -1.956   1.232  0.00  0.00     0.235 C 
ATOM     29  H26 <0> d           1.671  -0.182   1.159  0.00  0.00     0.280 HD
ENDBRANCH  21  22
ENDBRANCH  20  21
ENDBRANCH  19  20
ENDBRANCH  18  19
ENDBRANCH   1  18
TORSDOF 7
