REMARK  5 active torsions:
REMARK  status: ('A' for Active; 'I' for Inactive)
REMARK    1  A    between atoms: C4_4  and  N2_7 
REMARK       I    between atoms: N2_7  and  C5_8 
REMARK    2  A    between atoms: C5_8  and  C6_10 
REMARK    3  A    between atoms: C9_16  and  C10_17 
REMARK    4  A    between atoms: C15_22  and  O3_23 
REMARK    5  A    between atoms: O3_23  and  C16_24 
ROOT
ATOM      1  C6  <0> d          -1.456   2.049  -0.149  0.00  0.00     0.059 A 
ATOM      2  C7  <0> d          -2.665   1.448  -0.143  0.00  0.00     0.021 A 
ATOM      3  N3  <0> d          -3.813   2.177  -0.014  0.00  0.00    -0.337 N 
ATOM      4  C8  <0> d          -3.837   3.509   0.114  0.00  0.00     0.172 A 
ATOM      5  S1  <0> d          -5.348   4.300   0.267  0.00  0.00    -0.041 SA
ATOM      6  N4  <0> d          -2.710   4.249   0.124  0.00  0.00    -0.354 N 
ATOM      7  C9  <0> d          -1.416   3.556  -0.002  0.00  0.00     0.161 A 
ATOM      8  C17 <0> d          -2.750  -0.050  -0.280  0.00  0.00     0.069 C 
ATOM      9  H7  <0> d          -4.659   1.702  -0.016  0.00  0.00     0.168 HD
ATOM     10  H8  <0> d          -2.750   5.213   0.218  0.00  0.00     0.163 HD
ENDROOT
BRANCH   1  11
ATOM     11  C5  <0> d          -0.265   1.295  -0.283  0.00  0.00     0.257 C 
ATOM     12  N2  <0> d           0.180   0.550   0.749  0.00  0.00    -0.306 N 
ATOM     13  H6  <0> d          -0.278   0.582   1.603  0.00  0.00     0.170 HD
ATOM     14  O2  <0> d           0.359   1.323  -1.327  0.00  0.00    -0.267 OA
BRANCH  12  15
ATOM     15  C4  <0> d           1.299  -0.265   0.588  0.00  0.00     0.160 A 
ATOM     16  C3  <0> d           2.141  -0.342  -0.554  0.00  0.00     0.087 A 
ATOM     17  C2  <0> d           3.068  -1.267  -0.214  0.00  0.00     0.078 A 
ATOM     18  C1  <0> d           4.217  -1.744  -1.063  0.00  0.00     0.079 C 
ATOM     19  O1  <0> d           2.765  -1.675   1.027  0.00  0.00    -0.216 OA
ATOM     20  N1  <0> d           1.788  -1.109   1.459  0.00  0.00    -0.110 NA
ENDBRANCH  12  15
ENDBRANCH   1  11
BRANCH   7  21
ATOM     21  C10 <0> d          -0.588   3.882   1.214  0.00  0.00     0.003 A 
ATOM     22  C15 <0> d           0.790   3.989   1.107  0.00  0.00     0.083 A 
ATOM     23  C14 <0> d           1.550   4.293   2.228  0.00  0.00     0.037 A 
ATOM     24  C13 <0> d           0.932   4.480   3.449  0.00  0.00     0.003 A 
ATOM     25  C12 <0> d          -0.443   4.369   3.554  0.00  0.00     0.001 A 
ATOM     26  C11 <0> d          -1.202   4.071   2.438  0.00  0.00     0.012 A 
BRANCH  22  27
ATOM     27  O3  <0> d           1.397   3.798  -0.094  0.00  0.00    -0.290 OA
BRANCH  27  28
ATOM     28  C16 <0> d           2.822   3.899  -0.125  0.00  0.00     0.505 C 
ATOM     29  F1  <0> d           3.207   5.184   0.274  0.00  0.00    -0.184 F 
ATOM     30  F2  <0> d           3.375   2.955   0.746  0.00  0.00    -0.184 F 
ENDBRANCH  27  28
ENDBRANCH  22  27
ENDBRANCH   7  21
TORSDOF 5
