REMARK  4 active torsions:
REMARK  status: ('A' for Active; 'I' for Inactive)
REMARK    1  A    between atoms: C2_2  and  C3_3 
REMARK    2  A    between atoms: C2_2  and  O8_32 
REMARK    3  A    between atoms: C16_19  and  C23_29 
REMARK    4  A    between atoms: C23_29  and  O7_31 
ROOT
ATOM      1  C3  <0> d          -2.774   8.686   3.755  0.00  0.00    -0.027 A 
ATOM      2  C4  <0> d          -4.118   8.613   3.441  0.00  0.00     0.012 A 
ATOM      3  C5  <0> d          -4.576   7.641   2.571  0.00  0.00     0.040 A 
ATOM      4  C6  <0> d          -3.687   6.737   2.011  0.00  0.00     0.102 A 
ATOM      5  C7  <0> d          -2.334   6.810   2.329  0.00  0.00     0.102 A 
ATOM      6  C8  <0> d          -1.882   7.787   3.201  0.00  0.00     0.049 A 
ATOM      7  O1  <0> d          -1.457   5.923   1.785  0.00  0.00    -0.346 OA
ATOM      8  C9  <0> d          -0.812   5.019   2.684  0.00  0.00     0.201 C 
ATOM      9  C10 <0> d          -1.314   3.597   2.422  0.00  0.00     0.194 C 
ATOM     10  O2  <0> d          -0.491   2.979   1.431  0.00  0.00    -0.387 OA
ATOM     11  C11 <0> d          -0.729   1.579   1.267  0.00  0.00     0.194 C 
ATOM     12  C12 <0> d          -0.013   1.086   0.008  0.00  0.00     0.201 C 
ATOM     13  O3  <0> d          -0.704   1.559  -1.149  0.00  0.00    -0.346 OA
ATOM     14  C13 <0> d          -1.230   0.620  -1.981  0.00  0.00     0.102 A 
ATOM     15  C14 <0> d          -0.414  -0.354  -2.532  0.00  0.00     0.040 A 
ATOM     16  C15 <0> d          -0.950  -1.308  -3.377  0.00  0.00     0.012 A 
ATOM     17  C16 <0> d          -2.300  -1.293  -3.673  0.00  0.00    -0.027 A 
ATOM     18  C17 <0> d          -3.120  -0.324  -3.126  0.00  0.00     0.049 A 
ATOM     19  C18 <0> d          -2.590   0.635  -2.279  0.00  0.00     0.102 A 
ATOM     20  O4  <0> d          -3.396   1.591  -1.742  0.00  0.00    -0.346 OA
ATOM     21  C19 <0> d          -4.240   2.306  -2.647  0.00  0.00     0.201 C 
ATOM     22  C20 <0> d          -3.928   3.801  -2.560  0.00  0.00     0.194 C 
ATOM     23  O5  <0> d          -4.543   4.348  -1.391  0.00  0.00    -0.387 OA
ATOM     24  C21 <0> d          -4.370   5.759  -1.250  0.00  0.00     0.194 C 
ATOM     25  C22 <0> d          -4.973   6.214   0.081  0.00  0.00     0.201 C 
ATOM     26  O6  <0> d          -4.136   5.780   1.155  0.00  0.00    -0.346 OA
ENDROOT
BRANCH   1  27
ATOM     27  C2  <0> d          -2.280   9.748   4.703  0.00  0.00     0.147 C 
ATOM     28  C1  <0> d          -2.139  11.074   3.954  0.00  0.00     0.044 C 
BRANCH  27  29
ATOM     29  O8  <0> d          -3.214   9.902   5.773  0.00  0.00    -0.391 OA
ATOM     30  H32 <0> d          -4.100  10.164   5.487  0.00  0.00     0.210 HD
ENDBRANCH  27  29
ENDBRANCH   1  27
BRANCH  17  31
ATOM     31  C23 <0> d          -2.880  -2.337  -4.593  0.00  0.00     0.147 C 
ATOM     32  C24 <0> d          -2.596  -1.950  -6.046  0.00  0.00     0.044 C 
BRANCH  31  33
ATOM     33  O7  <0> d          -2.282  -3.604  -4.312  0.00  0.00    -0.391 OA
ATOM     34  H31 <0> d          -1.322  -3.621  -4.430  0.00  0.00     0.210 HD
ENDBRANCH  31  33
ENDBRANCH  17  31
TORSDOF 4
