REMARK  3 active torsions:
REMARK  status: ('A' for Active; 'I' for Inactive)
REMARK    1  A    between atoms: C3_3  and  C7_9 
REMARK    2  A    between atoms: C7_9  and  N3_10 
REMARK    3  A    between atoms: C10_13  and  C13_16 
ROOT
ATOM      1  N3  <0> d           1.374  -0.169  -3.038  0.00  0.00    -0.067 N 
ATOM      2  C8  <0> d           2.050  -1.472  -3.059  0.00  0.00     0.235 C 
ATOM      3  C9  <0> d           3.511  -1.286  -3.472  0.00  0.00     0.034 C 
ATOM      4  C10 <0> d           3.566  -0.658  -4.868  0.00  0.00     0.019 C 
ATOM      5  C11 <0> d           2.794   0.665  -4.852  0.00  0.00     0.034 C 
ATOM      6  C12 <0> d           1.359   0.406  -4.388  0.00  0.00     0.235 C 
ATOM      7  H30 <0> d           1.866   0.452  -2.413  0.00  0.00     0.280 HD
ENDROOT
BRANCH   1   8
ATOM      8  C7  <0> d          -0.006  -0.343  -2.566  0.00  0.00     0.277 C 
BRANCH   8   9
ATOM      9  C3  <0> d           0.008  -0.818  -1.135  0.00  0.00     0.017 A 
ATOM     10  C2  <0> d           0.002  -0.004   0.002  0.00  0.00     0.061 A 
ATOM     11  C1  <0> d          -0.018   1.503   0.010  0.00  0.00     0.073 C 
ATOM     12  N2  <0> d           0.023  -0.777   1.058  0.00  0.00    -0.177 NA
ATOM     13  N1  <0> d           0.034  -2.109   0.625  0.00  0.00    -0.278 N 
ATOM     14  C4  <0> d           0.028  -2.107  -0.725  0.00  0.00     0.036 A 
ATOM     15  C5  <0> d           0.055  -3.295   1.485  0.00  0.00     0.179 C 
ATOM     16  C6  <0> d           0.040  -3.323  -1.615  0.00  0.00     0.070 C 
ENDBRANCH   8   9
ENDBRANCH   1   8
BRANCH   4  17
ATOM     17  C13 <0> d           5.023  -0.396  -5.255  0.00  0.00     0.190 C 
ATOM     18  N4  <0> d           5.099   0.176  -6.616  0.00  0.00    -0.070 N 
ATOM     19  C16 <0> d           6.289  -0.378  -7.290  0.00  0.00     0.233 C 
ATOM     20  H28 <0> d           4.269  -0.070  -7.135  0.00  0.00     0.277 HD
ATOM     21  H29 <0> d           5.176   1.181  -6.558  0.00  0.00     0.277 HD
ATOM     22  C15 <0> d           6.963  -1.353  -6.302  0.00  0.00     0.029 C 
ATOM     23  C14 <0> d           5.806  -1.730  -5.339  0.00  0.00     0.035 C 
ENDBRANCH   4  17
TORSDOF 3
