REMARK  6 active torsions:
REMARK  status: ('A' for Active; 'I' for Inactive)
REMARK    1  A    between atoms: C5_5  and  C7_7 
REMARK       I    between atoms: C7_7  and  N1_9 
REMARK    2  A    between atoms: N1_9  and  C8_10 
REMARK    3  A    between atoms: C8_10  and  C16_21 
REMARK    4  A    between atoms: C9_11  and  C10_12 
REMARK    5  A    between atoms: C14_16  and  N2_18 
REMARK       I    between atoms: C16_21  and  N3_23 
REMARK    6  A    between atoms: N3_23  and  C17_24 
ROOT
ATOM      1  C8  <0> d          -1.402   6.398   0.226  0.00  0.00     0.104 C 
ATOM      2  C9  <0> d          -0.393   5.497   0.212  0.00  0.00     0.046 C 
ENDROOT
BRANCH   1   3
ATOM      3  N1  <0> d          -2.715   5.973   0.444  0.00  0.00    -0.318 N 
ATOM      4  C7  <0> d          -3.441   6.511   1.444  0.00  0.00     0.259 C 
ATOM      5  O1  <0> d          -2.925   7.300   2.213  0.00  0.00    -0.267 OA
ATOM      6  H5  <0> d          -3.157   5.198  -0.201  0.00  0.00     0.169 HD
BRANCH   4   7
ATOM      7  C5  <0> d          -4.862   6.144   1.606  0.00  0.00     0.070 A 
ATOM      8  C4  <0> d          -5.648   6.786   2.568  0.00  0.00     0.132 A 
ATOM      9  C3  <0> d          -6.978   6.436   2.713  0.00  0.00     0.043 A 
ATOM     10  F2  <0> d          -5.111   7.745   3.353  0.00  0.00    -0.205 F 
ATOM     11  C2  <0> d          -7.529   5.455   1.910  0.00  0.00     0.003 A 
ATOM     12  C1  <0> d          -6.755   4.816   0.956  0.00  0.00     0.001 A 
ATOM     13  C6  <0> d          -5.429   5.158   0.796  0.00  0.00     0.020 A 
ENDBRANCH   4   7
ENDBRANCH   1   3
BRANCH   1  14
ATOM     14  C16 <0> d          -1.117   7.824   0.011  0.00  0.00     0.272 C 
ATOM     15  O4  <0> d          -2.025   8.634   0.023  0.00  0.00    -0.266 OA
ATOM     16  N3  <0> d           0.149   8.234  -0.200  0.00  0.00    -0.322 N 
ATOM     17  H11 <0> d           0.958   7.495  -0.297  0.00  0.00     0.169 HD
BRANCH  16  18
ATOM     18  C17 <0> d           0.435   9.601  -0.295  0.00  0.00     0.036 A 
ATOM     19  C22 <0> d          -0.447  10.452  -0.946  0.00  0.00     0.056 A 
ATOM     20  C21 <0> d          -0.162  11.801  -1.039  0.00  0.00     0.074 A 
ATOM     21  C20 <0> d           1.003  12.304  -0.482  0.00  0.00     0.138 A 
ATOM     22 Cl1  <0> d          -1.265  12.867  -1.853  0.00  0.00    -0.081 Cl
ATOM     23  C19 <0> d           1.884  11.456   0.167  0.00  0.00     0.046 A 
ATOM     24  F1  <0> d           1.280  13.623  -0.575  0.00  0.00    -0.204 F 
ATOM     25  C18 <0> d           1.600  10.108   0.267  0.00  0.00     0.032 A 
ENDBRANCH  16  18
ENDBRANCH   1  14
BRANCH   2  26
ATOM     26  C10 <0> d          -0.647   4.101   0.600  0.00  0.00    -0.032 A 
ATOM     27  C15 <0> d           0.208   3.084   0.165  0.00  0.00     0.047 A 
ATOM     28  C14 <0> d          -0.038   1.777   0.532  0.00  0.00     0.103 A 
ATOM     29  C13 <0> d          -1.127   1.472   1.329  0.00  0.00     0.036 A 
ATOM     30  C12 <0> d          -1.982   2.473   1.759  0.00  0.00     0.003 A 
ATOM     31  C11 <0> d          -1.746   3.784   1.405  0.00  0.00     0.011 A 
BRANCH  28  32
ATOM     32  N2  <0> d           0.865   0.699   0.072  0.00  0.00    -0.116 N 
ATOM     33  O2  <0> d           0.649  -0.456   0.395  0.00  0.00    -0.532 OA
ATOM     34  O3  <0> d           1.825   0.966  -0.629  0.00  0.00    -0.532 OA
ENDBRANCH  28  32
ENDBRANCH   2  26
TORSDOF 6
