REMARK  4 active torsions:
REMARK  status: ('A' for Active; 'I' for Inactive)
REMARK    1  A    between atoms: C2_2  and  N1_3 
REMARK    2  A    between atoms: C5_7  and  C12_17 
REMARK    3  A    between atoms: C6_8  and  C10_13 
REMARK    4  A    between atoms: C10_13  and  O4_15 
ROOT
ATOM      1  N1  <0> d          -0.154   2.632  -1.040  0.00  0.00    -0.288 N 
ATOM      2  C3  <0> d           1.012   2.574  -0.330  0.00  0.00     0.234 C 
ATOM      3  O1  <0> d           1.590   3.499   0.200  0.00  0.00    -0.272 OA
ATOM      4  C4  <0> d           1.433   1.130  -0.341  0.00  0.00     0.129 C 
ATOM      5  C5  <0> d           1.914   0.488   0.966  0.00  0.00     0.234 C 
ATOM      6  C6  <0> d           0.191  -0.892  -0.022  0.00  0.00     0.222 C 
ATOM      7  C7  <0> d          -0.029   0.533  -0.300  0.00  0.00     0.139 C 
ATOM      8  C8  <0> d          -0.734   1.400  -1.211  0.00  0.00     0.234 C 
ATOM      9  O2  <0> d          -1.639   1.107  -1.962  0.00  0.00    -0.272 OA
ATOM     10  C9  <0> d           0.456  -1.655  -1.321  0.00  0.00     0.058 C 
ATOM     11  N2  <0> d           1.400  -0.906   0.852  0.00  0.00    -0.047 N 
ATOM     12  H22 <0> d           1.150  -1.261   1.783  0.00  0.00     0.279 HD
ATOM     13  H23 <0> d           2.120  -1.509   0.438  0.00  0.00     0.279 HD
ENDROOT
BRANCH   5  14
ATOM     14  C12 <0> d           3.419   0.505   1.046  0.00  0.00    -0.021 A 
ATOM     15  C17 <0> d           4.054   0.133   2.216  0.00  0.00    -0.054 A 
ATOM     16  C16 <0> d           5.434   0.144   2.287  0.00  0.00     0.007 A 
ATOM     17  C18 <0> d           3.241  -0.289   3.412  0.00  0.00     0.049 C 
ATOM     18  C15 <0> d           6.180   0.537   1.192  0.00  0.00     0.001 A 
ATOM     19  C14 <0> d           5.545   0.915   0.023  0.00  0.00     0.001 A 
ATOM     20  C13 <0> d           4.165   0.899  -0.050  0.00  0.00     0.010 A 
ENDBRANCH   5  14
BRANCH   6  21
ATOM     21  C10 <0> d          -0.996  -1.476   0.701  0.00  0.00     0.295 C 
ATOM     22  O3  <0> d          -2.086  -0.969   0.580  0.00  0.00    -0.262 OA
BRANCH  21  23
ATOM     23  O4  <0> d          -0.841  -2.559   1.478  0.00  0.00    -0.325 OA
ATOM     24  C11 <0> d          -2.028  -3.067   2.143  0.00  0.00     0.213 C 
ENDBRANCH  21  23
ENDBRANCH   6  21
BRANCH   1  25
ATOM     25  C2  <0> d          -0.724   3.877  -1.562  0.00  0.00     0.130 C 
ATOM     26  C1  <0> d          -0.184   4.133  -2.970  0.00  0.00     0.027 C 
ENDBRANCH   1  25
TORSDOF 4
