REMARK  4 active torsions:
REMARK  status: ('A' for Active; 'I' for Inactive)
REMARK    1  A    between atoms: C3_3  and  C9_11 
REMARK       I    between atoms: C9_11  and  N3_13 
REMARK    2  A    between atoms: N3_13  and  C10_14 
REMARK    3  A    between atoms: C11_17  and  C12_19 
REMARK    4  A    between atoms: N6_23  and  C16_25 
ROOT
ATOM      1  C10 <0> d           0.191  -0.896  -4.790  0.00  0.00     0.274 A 
ATOM      2  N4  <0> d           0.177   0.349  -5.196  0.00  0.00    -0.103 NA
ATOM      3  N5  <0> d           0.281   0.380  -6.478  0.00  0.00    -0.124 NA
ATOM      4  C11 <0> d           0.364  -0.835  -6.936  0.00  0.00     0.177 A 
ATOM      5  O2  <0> d           0.315  -1.672  -5.882  0.00  0.00    -0.259 OA
ENDROOT
BRANCH   1   6
ATOM      6  N3  <0> d           0.100  -1.333  -3.477  0.00  0.00    -0.284 N 
ATOM      7  C9  <0> d          -0.021  -0.439  -2.476  0.00  0.00     0.278 C 
ATOM      8  O1  <0> d          -0.145   0.746  -2.730  0.00  0.00    -0.265 OA
ATOM      9  H9  <0> d           0.125  -2.282  -3.280  0.00  0.00     0.172 HD
BRANCH   7  10
ATOM     10  C3  <0> d          -0.005  -0.877  -1.129  0.00  0.00     0.133 A 
ATOM     11  C2  <0> d          -1.103  -1.073  -0.306  0.00  0.00     0.066 A 
ATOM     12  C1  <0> d          -2.544  -0.856  -0.689  0.00  0.00     0.073 C 
ATOM     13  N2  <0> d          -0.667  -1.480   0.875  0.00  0.00    -0.233 NA
ATOM     14  C8  <0> d           0.662  -1.566   0.861  0.00  0.00     0.134 A 
ATOM     15  N1  <0> d           1.110  -1.194  -0.374  0.00  0.00    -0.300 N 
ATOM     16  C7  <0> d           1.588  -1.947   1.849  0.00  0.00     0.051 A 
ATOM     17  C4  <0> d           2.440  -1.188  -0.657  0.00  0.00     0.099 A 
ATOM     18  C5  <0> d           3.346  -1.550   0.280  0.00  0.00     0.018 A 
ATOM     19  C6  <0> d           2.919  -1.938   1.558  0.00  0.00     0.005 A 
ENDBRANCH   7  10
ENDBRANCH   1   6
BRANCH   4  20
ATOM     20  C12 <0> d           0.497  -1.234  -8.384  0.00  0.00     0.092 C 
ATOM     21  C15 <0> d          -0.669  -0.667  -9.223  0.00  0.00     0.145 C 
ATOM     22  N6  <0> d          -0.080  -0.309 -10.519  0.00  0.00    -0.317 N 
ATOM     23  C14 <0> d           1.259  -0.230 -10.442  0.00  0.00     0.225 C 
ATOM     24  C13 <0> d           1.720  -0.548  -9.037  0.00  0.00     0.118 C 
ATOM     25  O3  <0> d           1.993   0.054 -11.366  0.00  0.00    -0.273 OA
BRANCH  22  26
ATOM     26  C16 <0> d          -0.819  -0.080 -11.685  0.00  0.00     0.037 A 
ATOM     27  C21 <0> d          -2.207  -0.067 -11.639  0.00  0.00     0.029 A 
ATOM     28  C20 <0> d          -2.933   0.165 -12.790  0.00  0.00     0.002 A 
ATOM     29  C19 <0> d          -2.280   0.373 -13.991  0.00  0.00     0.000 A 
ATOM     30  C18 <0> d          -0.898   0.355 -14.042  0.00  0.00     0.002 A 
ATOM     31  C17 <0> d          -0.166   0.130 -12.893  0.00  0.00     0.029 A 
ENDBRANCH  22  26
ENDBRANCH   4  20
TORSDOF 4
