REMARK  5 active torsions:
REMARK  status: ('A' for Active; 'I' for Inactive)
REMARK    1  A    between atoms: C2_2  and  O1_3 
REMARK    2  A    between atoms: O1_3  and  C3_4 
REMARK    3  A    between atoms: C3_4  and  O2_20 
REMARK    4  A    between atoms: C12_13  and  N2_15 
REMARK    5  A    between atoms: O2_20  and  C15_21 
ROOT
ATOM      1  C3  <0> d          -1.294  -1.746  -0.052  0.00  0.00     0.274 A 
ATOM      2  C4  <0> d          -2.712  -2.091  -0.543  0.00  0.00     0.164 A 
ATOM      3  C5  <0> d          -2.474  -2.581  -1.985  0.00  0.00     0.144 A 
ATOM      4  C6  <0> d          -3.017  -3.540  -0.925  0.00  0.00     0.020 A 
ATOM      5  C7  <0> d          -2.075  -4.628  -0.402  0.00  0.00     0.014 C 
ATOM      6  C8  <0> d          -2.245  -5.886  -1.258  0.00  0.00     0.001 C 
ATOM      7  C9  <0> d          -3.712  -6.321  -1.238  0.00  0.00     0.000 C 
ATOM      8  C10 <0> d          -4.584  -5.233  -1.867  0.00  0.00     0.001 C 
ATOM      9  C11 <0> d          -4.488  -3.954  -1.030  0.00  0.00     0.014 C 
ATOM     10  C12 <0> d          -0.984  -2.489  -2.196  0.00  0.00     0.101 A 
ATOM     11  N1  <0> d          -0.384  -2.043  -1.157  0.00  0.00    -0.322 N 
ATOM     12  C13 <0> d          -3.349  -2.160  -3.091  0.00  0.00     0.080 C 
ATOM     13  N3  <0> d          -4.025  -1.836  -3.944  0.00  0.00    -0.196 NA
ATOM     14  C14 <0> d          -3.811  -1.187  -0.165  0.00  0.00     0.080 C 
ATOM     15  N4  <0> d          -4.658  -0.490   0.127  0.00  0.00    -0.196 NA
ATOM     16  H23 <0> d           0.577  -1.915  -1.107  0.00  0.00     0.166 HD
ENDROOT
BRANCH  10  17
ATOM     17  N2  <0> d          -0.350  -2.840  -3.359  0.00  0.00    -0.387 N 
ATOM     18  H16 <0> d          -0.865  -3.171  -4.112  0.00  0.00     0.157 HD
ATOM     19  H17 <0> d           0.614  -2.756  -3.430  0.00  0.00     0.157 HD
ENDBRANCH  10  17
BRANCH   1  20
ATOM     20  O1  <0> d          -1.218  -0.360   0.286  0.00  0.00    -0.337 OA
BRANCH  20  21
ATOM     21  C2  <0> d           0.079   0.065   0.710  0.00  0.00     0.169 C 
ATOM     22  C1  <0> d           0.026   1.538   1.117  0.00  0.00     0.033 C 
ENDBRANCH  20  21
ENDBRANCH   1  20
BRANCH   1  23
ATOM     23  O2  <0> d          -0.962  -2.545   1.085  0.00  0.00    -0.337 OA
BRANCH  23  24
ATOM     24  C15 <0> d          -1.752  -2.267   2.243  0.00  0.00     0.169 C 
ATOM     25  C16 <0> d          -1.227  -3.082   3.426  0.00  0.00     0.033 C 
ENDBRANCH  23  24
ENDBRANCH   1  23
TORSDOF 5
