REMARK  6 active torsions:
REMARK  status: ('A' for Active; 'I' for Inactive)
REMARK    1  A    between atoms: C2_2  and  N1_9 
REMARK       I    between atoms: N1_9  and  C7_10 
REMARK    2  A    between atoms: C7_10  and  C8_12 
REMARK    3  A    between atoms: C8_12  and  S1_13 
REMARK    4  A    between atoms: S1_13  and  C9_14 
REMARK    5  A    between atoms: C10_16  and  N5_21 
REMARK    6  A    between atoms: C12_18  and  N4_20 
ROOT
ATOM      1  C8  <0> d          -1.256   7.406  -0.166  0.00  0.00     0.185 C 
ENDROOT
BRANCH   1   2
ATOM      2  C7  <0> d          -1.242   5.903  -0.059  0.00  0.00     0.231 C 
ATOM      3  N1  <0> d          -0.069   5.245   0.028  0.00  0.00    -0.326 N 
ATOM      4  H4  <0> d           0.761   5.741   0.099  0.00  0.00     0.169 HD
ATOM      5  O1  <0> d          -2.286   5.286  -0.052  0.00  0.00    -0.272 OA
BRANCH   3   6
ATOM      6  C2  <0> d          -0.050   3.846   0.016  0.00  0.00     0.040 A 
ATOM      7  C1  <0> d           0.908   3.157   0.749  0.00  0.00     0.072 A 
ATOM      8  C6  <0> d           0.922   1.774   0.740  0.00  0.00     0.121 A 
ATOM      9  C5  <0> d          -0.012   1.076  -0.007  0.00  0.00     0.084 A 
ATOM     10  F1  <0> d           1.850   1.104   1.458  0.00  0.00    -0.206 F 
ATOM     11  C4  <0> d          -0.968   1.760  -0.739  0.00  0.00     0.121 A 
ATOM     12  C3  <0> d          -0.988   3.144  -0.728  0.00  0.00     0.072 A 
ATOM     13  F2  <0> d          -1.881   1.077  -1.463  0.00  0.00    -0.206 F 
ENDBRANCH   3   6
ENDBRANCH   1   2
BRANCH   1  14
ATOM     14  S1  <0> d          -2.967   7.988  -0.267  0.00  0.00    -0.081 SA
BRANCH  14  15
ATOM     15  C9  <0> d          -2.693   9.725  -0.380  0.00  0.00     0.192 A 
ATOM     16  N3  <0> d          -3.736  10.537  -0.474  0.00  0.00    -0.206 NA
ATOM     17  C12 <0> d          -3.567  11.855  -0.561  0.00  0.00     0.127 A 
ATOM     18  C11 <0> d          -2.276  12.375  -0.553  0.00  0.00     0.100 A 
ATOM     19  C10 <0> d          -1.206  11.490  -0.453  0.00  0.00     0.127 A 
ATOM     20  N2  <0> d          -1.451  10.185  -0.364  0.00  0.00    -0.206 NA
BRANCH  17  21
ATOM     21  N4  <0> d          -4.663  12.698  -0.660  0.00  0.00    -0.384 N 
ATOM     22  H8  <0> d          -5.560  12.329  -0.665  0.00  0.00     0.157 HD
ATOM     23  H9  <0> d          -4.533  13.657  -0.723  0.00  0.00     0.157 HD
ENDBRANCH  17  21
BRANCH  19  24
ATOM     24  N5  <0> d           0.097  11.963  -0.442  0.00  0.00    -0.384 N 
ATOM     25  H10 <0> d           0.268  12.915  -0.504  0.00  0.00     0.157 HD
ATOM     26  H11 <0> d           0.838  11.341  -0.372  0.00  0.00     0.157 HD
ENDBRANCH  19  24
ENDBRANCH  14  15
ENDBRANCH   1  14
TORSDOF 6
