REMARK  4 active torsions:
REMARK  status: ('A' for Active; 'I' for Inactive)
REMARK    1  A    between atoms: C2_2  and  O1_3 
REMARK    2  A    between atoms: O1_3  and  C3_4 
REMARK    3  A    between atoms: P1_11  and  C13_20 
REMARK    4  A    between atoms: C18_25  and  O4_26 
ROOT
ATOM      1  C3  <0> d          -1.498  -1.848   0.006  0.00  0.00     0.086 C 
ATOM      2  C4  <0> d          -0.431  -2.650  -0.003  0.00  0.00     0.017 C 
ATOM      3  C5  <0> d          -0.624  -4.148   0.002  0.00  0.00     0.022 C 
ATOM      4  C6  <0> d          -0.916  -4.611  -1.425  0.00  0.00     0.047 C 
ATOM      5  C7  <0> d          -1.248  -6.107  -1.449  0.00  0.00     0.238 C 
ATOM      6  C8  <0> d          -1.527  -6.485  -2.909  0.00  0.00     0.213 C 
ATOM      7  O2  <0> d          -1.794  -7.896  -2.999  0.00  0.00    -0.312 OA
ATOM      8  P1  <0> d          -2.899  -8.521  -1.982  0.00  0.00     0.346 P 
ATOM      9  O3  <0> d          -2.677  -9.975  -1.813  0.00  0.00    -0.260 OA
ATOM     10  N1  <0> d          -2.661  -7.736  -0.549  0.00  0.00    -0.172 N 
ATOM     11  N2  <0> d          -2.407  -6.381  -0.597  0.00  0.00     0.018 N 
ATOM     12  C9  <0> d          -2.131  -5.976   0.790  0.00  0.00     0.272 C 
ATOM     13  C10 <0> d          -1.821  -4.488   0.896  0.00  0.00     0.045 C 
ATOM     14  C11 <0> d          -3.018  -3.687   0.460  0.00  0.00     0.007 C 
ATOM     15  C12 <0> d          -2.853  -2.435   0.016  0.00  0.00     0.063 C 
ATOM     16 Cl1  <0> d          -4.216  -1.500  -0.515  0.00  0.00    -0.082 Cl
ATOM     17  H14 <0> d          -2.702  -8.212   0.295  0.00  0.00     0.197 HD
ATOM     18  H23 <0> d          -3.215  -5.892  -0.954  0.00  0.00     0.309 HD
ENDROOT
BRANCH   8  19
ATOM     19  C13 <0> d          -4.574  -8.209  -2.604  0.00  0.00     0.084 A 
ATOM     20  C18 <0> d          -5.184  -9.128  -3.446  0.00  0.00     0.083 A 
ATOM     21  C17 <0> d          -6.468  -8.889  -3.915  0.00  0.00     0.037 A 
ATOM     22  C16 <0> d          -7.131  -7.733  -3.552  0.00  0.00     0.003 A 
ATOM     23  C15 <0> d          -6.519  -6.817  -2.717  0.00  0.00     0.001 A 
ATOM     24  C14 <0> d          -5.242  -7.054  -2.244  0.00  0.00     0.022 A 
BRANCH  20  25
ATOM     25  O4  <0> d          -4.527 -10.262  -3.806  0.00  0.00    -0.360 OA
ATOM     26  H22 <0> d          -4.675 -11.008  -3.209  0.00  0.00     0.217 HD
ENDBRANCH  20  25
ENDBRANCH   8  19
BRANCH   1  27
ATOM     27  O1  <0> d          -1.339  -0.499   0.012  0.00  0.00    -0.350 OA
BRANCH  27  28
ATOM     28  C2  <0> d           0.002  -0.004   0.002  0.00  0.00     0.171 C 
ATOM     29  C1  <0> d          -0.019   1.526   0.010  0.00  0.00     0.034 C 
ENDBRANCH  27  28
ENDBRANCH   1  27
TORSDOF 4
