REMARK  2 active torsions:
REMARK  status: ('A' for Active; 'I' for Inactive)
REMARK    1  A    between atoms: C7_7  and  C12_14 
REMARK    2  A    between atoms: C13_15  and  C16_21 
ROOT
ATOM      1  C12 <0> d           2.500   1.445  -0.073  0.00  0.00     0.061 A 
ATOM      2  C13 <0> d           3.167   0.966  -1.193  0.00  0.00     0.063 A 
ATOM      3  C14 <0> d           4.543   0.667  -0.755  0.00  0.00     0.260 A 
ATOM      4  O1  <0> d           5.431   0.229  -1.460  0.00  0.00    -0.267 OA
ATOM      5  N3  <0> d           4.652   0.953   0.553  0.00  0.00    -0.289 N 
ATOM      6  C15 <0> d           3.486   1.419   1.033  0.00  0.00     0.260 A 
ATOM      7  O2  <0> d           3.276   1.761   2.179  0.00  0.00    -0.267 OA
ATOM      8  H12 <0> d           5.608   0.794   1.074  0.00  0.00     0.172 HD
ENDROOT
BRANCH   1   9
ATOM      9  C7  <0> d           1.099   1.882   0.002  0.00  0.00     0.009 C 
ATOM     10  C5  <0> d           0.614   3.270   0.084  0.00  0.00     0.004 A 
ATOM     11  C4  <0> d          -0.774   3.160   0.176  0.00  0.00     0.053 A 
ATOM     12  C6  <0> d           1.186   4.540   0.081  0.00  0.00     0.014 A 
ATOM     13  C3  <0> d          -1.574   4.285   0.375  0.00  0.00    -0.005 A 
ATOM     14  N1  <0> d          -1.133   1.843   0.017  0.00  0.00    -0.353 N 
ATOM     15  C2  <0> d          -0.998   5.527   0.371  0.00  0.00     0.011 A 
ATOM     16  C11 <0> d          -3.032   4.033   0.661  0.00  0.00     0.273 C 
ATOM     17  C1  <0> d           0.380   5.652   0.215  0.00  0.00     0.002 A 
ATOM     18  N2  <0> d          -3.719   3.569  -0.534  0.00  0.00    -0.070 N 
ATOM     19  C10 <0> d          -3.158   2.394  -1.200  0.00  0.00     0.252 C 
ATOM     20  H9  <0> d          -3.717   4.421  -1.230  0.00  0.00     0.277 HD
ATOM     21  H17 <0> d          -4.752   3.354  -0.220  0.00  0.00     0.277 HD
ATOM     22  C9  <0> d          -2.516   1.393  -0.231  0.00  0.00     0.156 C 
ATOM     23  C8  <0> d          -0.013   1.076   0.008  0.00  0.00     0.104 C 
ENDBRANCH   1   9
BRANCH   2  24
ATOM     24  C16 <0> d           2.611   0.792  -2.549  0.00  0.00     0.033 A 
ATOM     25  C20 <0> d           2.299  -0.488  -3.038  0.00  0.00     0.099 A 
ATOM     26  C19 <0> d           1.768  -0.585  -4.337  0.00  0.00     0.018 A 
ATOM     27  O3  <0> d           2.380  -1.733  -2.543  0.00  0.00    -0.321 OA
ATOM     28  C18 <0> d           1.582   0.573  -5.089  0.00  0.00     0.130 A 
ATOM     29  C22 <0> d           1.542  -2.017  -4.559  0.00  0.00     0.040 A 
ATOM     30  N4  <0> d           1.895   1.752  -4.589  0.00  0.00    -0.271 NA
ATOM     31  C17 <0> d           2.391   1.895  -3.375  0.00  0.00     0.131 A 
ATOM     32  C21 <0> d           1.941  -2.635  -3.438  0.00  0.00     0.143 A 
ENDBRANCH   2  24
TORSDOF 2
