REMARK  4 active torsions:
REMARK  status: ('A' for Active; 'I' for Inactive)
REMARK    1  A    between atoms: N1_5  and  C5_7 
REMARK    2  A    between atoms: C8_11  and  N5_13 
REMARK    3  A    between atoms: C11_16  and  C14_19 
REMARK    4  A    between atoms: C14_19  and  N6_20 
ROOT
ATOM      1  C5  <0> d           0.036  -3.316   1.349  0.00  0.00     0.751 A 
ATOM      2  N3  <0> d           0.082  -4.564   0.913  0.00  0.00    -0.065 NA
ATOM      3  C6  <0> d           0.121  -5.581   1.761  0.00  0.00     0.059 A 
ATOM      4  C7  <0> d           0.113  -5.329   3.119  0.00  0.00     0.009 A 
ATOM      5  C8  <0> d           0.063  -4.001   3.549  0.00  0.00     0.152 A 
ATOM      6  N4  <0> d           0.032  -3.031   2.641  0.00  0.00    -0.043 NA
ATOM      7  C15 <0> d           0.156  -6.460   4.114  0.00  0.00     0.054 C 
ATOM      8  C16 <0> d           0.174  -6.998   1.250  0.00  0.00     0.072 C 
ENDROOT
BRANCH   5   9
ATOM      9  N5  <0> d           0.053  -3.700   4.901  0.00  0.00    -0.365 N 
ATOM     10  C13 <0> d          -1.208  -3.683   5.655  0.00  0.00     0.125 C 
ATOM     11  C12 <0> d          -1.343  -2.341   6.370  0.00  0.00     0.026 C 
ATOM     12  C11 <0> d          -0.097  -2.093   7.224  0.00  0.00     0.014 C 
ATOM     13  C10 <0> d           1.139  -2.040   6.322  0.00  0.00     0.026 C 
ATOM     14  C9  <0> d           1.302  -3.385   5.607  0.00  0.00     0.125 C 
BRANCH  12  15
ATOM     15  C14 <0> d          -0.243  -0.763   7.966  0.00  0.00     0.234 C 
BRANCH  15  16
ATOM     16  N6  <0> d          -1.357  -0.854   8.919  0.00  0.00    -0.079 N 
ATOM     17  H16 <0> d          -2.211  -1.057   8.421  0.00  0.00     0.274 HD
ATOM     18  H17 <0> d          -1.172  -1.591   9.583  0.00  0.00     0.274 HD
ATOM     19  H27 <0> d          -1.454   0.023   9.409  0.00  0.00     0.274 HD
ENDBRANCH  15  16
ENDBRANCH  12  15
ENDBRANCH   5   9
BRANCH   1  20
ATOM     20  N1  <0> d          -0.004  -2.273   0.423  0.00  0.00    -0.064 N 
ATOM     21  C4  <0> d          -0.005  -2.404  -0.930  0.00  0.00     0.052 A 
ATOM     22  C3  <0> d          -0.051  -1.160  -1.460  0.00  0.00     0.056 A 
ATOM     23  C17 <0> d           0.035  -3.699  -1.699  0.00  0.00     0.071 C 
ATOM     24  C2  <0> d          -0.078  -0.241  -0.404  0.00  0.00     0.054 A 
ATOM     25  C1  <0> d          -0.129   1.259  -0.542  0.00  0.00     0.072 C 
ATOM     26  N2  <0> d          -0.045  -0.905   0.722  0.00  0.00    -0.158 NA
ENDBRANCH   1  20
TORSDOF 4
