REMARK  5 active torsions:
REMARK  status: ('A' for Active; 'I' for Inactive)
REMARK    1  A    between atoms: C2_2  and  C3_3 
REMARK    2  A    between atoms: C3_3  and  N1_4 
REMARK       I    between atoms: N1_4  and  C4_5 
REMARK    3  A    between atoms: C4_5  and  C5_7 
REMARK    4  A    between atoms: C5_7  and  N2_8 
REMARK    5  A    between atoms: C11_16  and  C12_18 
REMARK       I    between atoms: C12_18  and  N4_20 
ROOT
ATOM      1  N2  <0> d          -5.947  -1.523  -5.430  0.00  0.00    -0.299 N 
ATOM      2  C6  <0> d          -5.716  -0.202  -5.230  0.00  0.00     0.214 A 
ATOM      3  N3  <0> d          -4.908   0.223  -4.297  0.00  0.00    -0.235 NA
ATOM      4  C7  <0> d          -4.269  -0.618  -3.494  0.00  0.00     0.116 A 
ATOM      5  C8  <0> d          -4.427  -2.018  -3.602  0.00  0.00     0.075 A 
ATOM      6  C9  <0> d          -5.350  -2.463  -4.672  0.00  0.00     0.262 A 
ATOM      7  O2  <0> d          -5.564  -3.647  -4.860  0.00  0.00    -0.267 OA
ATOM      8  C10 <0> d          -3.690  -2.785  -2.697  0.00  0.00    -0.021 A 
ATOM      9  C11 <0> d          -2.892  -2.170  -1.778  0.00  0.00     0.082 A 
ATOM     10  S1  <0> d          -3.124  -0.440  -2.149  0.00  0.00    -0.063 SA
ATOM     11  C20 <0> d          -3.780  -4.289  -2.733  0.00  0.00     0.051 C 
ENDROOT
BRANCH   9  12
ATOM     12  C12 <0> d          -2.048  -2.779  -0.745  0.00  0.00     0.261 C 
ATOM     13  O3  <0> d          -2.426  -3.777  -0.161  0.00  0.00    -0.267 OA
ATOM     14  N4  <0> d          -0.853  -2.234  -0.444  0.00  0.00    -0.347 N 
ATOM     15  C17 <0> d          -0.327  -1.105  -1.224  0.00  0.00     0.130 C 
ATOM     16  C13 <0> d          -0.052  -2.756   0.672  0.00  0.00     0.130 C 
ATOM     17  C16 <0> d           1.079  -1.461  -1.718  0.00  0.00    -0.000 C 
ATOM     18  C15 <0> d           1.950  -1.860  -0.525  0.00  0.00     0.011 C 
ATOM     19  C18 <0> d           1.696  -0.248  -2.418  0.00  0.00     0.011 C 
ATOM     20  C14 <0> d           1.351  -3.093   0.156  0.00  0.00    -0.000 C 
ATOM     21  C19 <0> d           1.262  -4.240  -0.853  0.00  0.00     0.011 C 
ENDBRANCH   9  12
BRANCH   1  22
ATOM     22  C5  <0> d          -6.865  -1.937  -6.495  0.00  0.00     0.235 C 
BRANCH  22  23
ATOM     23  C4  <0> d          -6.095  -2.130  -7.775  0.00  0.00     0.235 C 
ATOM     24  N1  <0> d          -6.737  -2.513  -8.897  0.00  0.00    -0.360 N 
ATOM     25  H10 <0> d          -7.695  -2.665  -8.879  0.00  0.00     0.162 HD
ATOM     26  O1  <0> d          -4.897  -1.940  -7.797  0.00  0.00    -0.272 OA
BRANCH  24  27
ATOM     27  C3  <0> d          -5.988  -2.701 -10.142  0.00  0.00     0.122 C 
BRANCH  27  28
ATOM     28  C2  <0> d          -6.946  -3.133 -11.253  0.00  0.00     0.015 C 
ATOM     29  C1  <0> d          -6.164  -3.329 -12.554  0.00  0.00     0.006 C 
ENDBRANCH  27  28
ENDBRANCH  24  27
ENDBRANCH  22  23
ENDBRANCH   1  22
TORSDOF 5
