REMARK  5 active torsions:
REMARK  status: ('A' for Active; 'I' for Inactive)
REMARK    1  A    between atoms: C2_2  and  N1_4 
REMARK    2  A    between atoms: C6_7  and  C8_9 
REMARK    3  A    between atoms: C8_9  and  N2_10 
REMARK       I    between atoms: N2_10  and  C9_11 
REMARK    4  A    between atoms: C9_11  and  C10_13 
REMARK    5  A    between atoms: C10_13  and  N3_14 
ROOT
ATOM      1  N2  <0> d          -4.119  -4.048  -1.688  0.00  0.00    -0.359 N 
ATOM      2  C9  <0> d          -4.357  -5.227  -2.294  0.00  0.00     0.235 C 
ATOM      3  O1  <0> d          -3.462  -6.036  -2.419  0.00  0.00    -0.272 OA
ATOM      4  H17 <0> d          -4.835  -3.401  -1.587  0.00  0.00     0.162 HD
ENDROOT
BRANCH   2   5
ATOM      5  C10 <0> d          -5.735  -5.541  -2.816  0.00  0.00     0.235 C 
BRANCH   5   6
ATOM      6  N3  <0> d          -5.734  -6.873  -3.427  0.00  0.00    -0.299 N 
ATOM      7  C18 <0> d          -6.019  -7.958  -2.670  0.00  0.00     0.261 A 
ATOM      8  C17 <0> d          -6.008  -9.270  -3.335  0.00  0.00     0.061 A 
ATOM      9  O2  <0> d          -6.277  -7.852  -1.485  0.00  0.00    -0.267 OA
ATOM     10  C12 <0> d          -5.695  -9.312  -4.711  0.00  0.00     0.073 A 
ATOM     11  C16 <0> d          -6.292 -10.447  -2.647  0.00  0.00     0.019 A 
ATOM     12  N4  <0> d          -5.422  -8.152  -5.360  0.00  0.00    -0.243 NA
ATOM     13  C13 <0> d          -5.672 -10.543  -5.370  0.00  0.00     0.032 A 
ATOM     14  C11 <0> d          -5.443  -7.008  -4.747  0.00  0.00     0.213 A 
ATOM     15  C14 <0> d          -5.955 -11.695  -4.672  0.00  0.00     0.002 A 
ATOM     16  C15 <0> d          -6.263 -11.650  -3.318  0.00  0.00     0.001 A 
ENDBRANCH   5   6
ENDBRANCH   2   5
BRANCH   1  17
ATOM     17  C8  <0> d          -2.779  -3.742  -1.180  0.00  0.00     0.129 C 
BRANCH  17  18
ATOM     18  C6  <0> d          -2.780  -2.351  -0.542  0.00  0.00     0.031 C 
ATOM     19  C5  <0> d          -3.020  -1.260  -1.611  0.00  0.00     0.035 C 
ATOM     20  C4  <0> d          -2.080  -0.104  -1.222  0.00  0.00     0.236 C 
ATOM     21  N1  <0> d          -1.376  -0.512   0.012  0.00  0.00    -0.067 N 
ATOM     22  C7  <0> d          -1.374  -1.998   0.004  0.00  0.00     0.241 C 
ATOM     23  H25 <0> d          -1.868  -0.170   0.824  0.00  0.00     0.280 HD
BRANCH  21  24
ATOM     24  C2  <0> d           0.002  -0.004   0.002  0.00  0.00     0.180 C 
ATOM     25  C1  <0> d          -0.019   1.526   0.010  0.00  0.00     0.039 C 
ATOM     26  C3  <0> d           0.742  -0.511   1.242  0.00  0.00     0.039 C 
ENDBRANCH  21  24
ENDBRANCH  17  18
ENDBRANCH   1  17
TORSDOF 5
