REMARK  3 active torsions:
REMARK  status: ('A' for Active; 'I' for Inactive)
REMARK    1  A    between atoms: C3_3  and  S1_9 
REMARK    2  A    between atoms: S1_9  and  N3_12 
REMARK    3  A    between atoms: N3_12  and  C7_13 
ROOT
ATOM      1  C7  <0> d           2.184  -1.772  -3.342  0.00  0.00     0.129 C 
ATOM      2  C8  <0> d           2.215  -2.480  -1.986  0.00  0.00     0.047 C 
ATOM      3  C9  <0> d           2.934  -3.823  -2.128  0.00  0.00     0.004 C 
ATOM      4  C10 <0> d           4.366  -3.586  -2.612  0.00  0.00     0.000 C 
ATOM      5  C11 <0> d           4.335  -2.878  -3.968  0.00  0.00     0.004 C 
ATOM      6  C12 <0> d           3.616  -1.535  -3.826  0.00  0.00     0.047 C 
ATOM      7  C13 <0> d           1.469  -2.610  -4.317  0.00  0.00     0.091 C 
ATOM      8  N4  <0> d           0.916  -3.257  -5.070  0.00  0.00    -0.195 NA
ENDROOT
BRANCH   1   9
ATOM      9  N3  <0> d           1.496  -0.485  -3.205  0.00  0.00    -0.292 N 
ATOM     10  H10 <0> d           1.950   0.336  -3.449  0.00  0.00     0.174 HD
BRANCH   9  11
ATOM     11  S1  <0> d          -0.058  -0.434  -2.635  0.00  0.00     0.264 S 
ATOM     12  O1  <0> d          -0.473   0.922  -2.708  0.00  0.00    -0.200 OA
ATOM     13  O2  <0> d          -0.068  -1.169  -1.418  0.00  0.00    -0.200 OA
BRANCH  11  14
ATOM     14  C3  <0> d          -1.061  -1.331  -3.773  0.00  0.00     0.129 A 
ATOM     15  C2  <0> d          -1.487  -2.655  -3.629  0.00  0.00     0.076 A 
ATOM     16  C1  <0> d          -1.166  -3.565  -2.471  0.00  0.00     0.074 C 
ATOM     17  N2  <0> d          -2.207  -2.969  -4.675  0.00  0.00    -0.176 NA
ATOM     18  N1  <0> d          -2.269  -1.850  -5.515  0.00  0.00    -0.277 N 
ATOM     19  C4  <0> d          -1.556  -0.859  -4.941  0.00  0.00     0.051 A 
ATOM     20  C5  <0> d          -2.979  -1.771  -6.794  0.00  0.00     0.179 C 
ATOM     21  C6  <0> d          -1.347   0.525  -5.500  0.00  0.00     0.072 C 
ENDBRANCH  11  14
ENDBRANCH   9  11
ENDBRANCH   1   9
TORSDOF 3
