REMARK  5 active torsions:
REMARK  status: ('A' for Active; 'I' for Inactive)
REMARK    1  A    between atoms: C2_3  and  C14_20 
REMARK    2  A    between atoms: C3_4  and  C5_7 
REMARK       I    between atoms: C5_7  and  N3_9 
REMARK    3  A    between atoms: N3_9  and  N4_10 
REMARK       I    between atoms: N4_10  and  C6_11 
REMARK    4  A    between atoms: C6_11  and  C7_13 
REMARK    5  A    between atoms: C7_13  and  C8_14 
ROOT
ATOM      1  C5  <0> d           0.041  -3.294  -1.522  0.00  0.00     0.273 C 
ATOM      2  O1  <0> d           0.033  -3.176  -2.732  0.00  0.00    -0.266 OA
ATOM      3  N3  <0> d           0.060  -4.521  -0.965  0.00  0.00    -0.263 N 
ATOM      4  H5  <0> d           0.066  -4.615   0.001  0.00  0.00     0.190 HD
ENDROOT
BRANCH   3   5
ATOM      5  N4  <0> d           0.072  -5.661  -1.780  0.00  0.00    -0.267 N 
ATOM      6  C6  <0> d           0.092  -6.888  -1.222  0.00  0.00     0.236 C 
ATOM      7  O2  <0> d           0.099  -7.005  -0.015  0.00  0.00    -0.272 OA
ATOM      8  H6  <0> d           0.066  -5.567  -2.745  0.00  0.00     0.190 HD
BRANCH   6   9
ATOM      9  C7  <0> d           0.105  -8.114  -2.098  0.00  0.00     0.109 C 
BRANCH   9  10
ATOM     10  C8  <0> d           0.126  -9.367  -1.222  0.00  0.00    -0.006 C 
ATOM     11  C13 <0> d           0.014 -10.610  -2.106  0.00  0.00     0.005 C 
ATOM     12  C12 <0> d           0.035 -11.864  -1.230  0.00  0.00     0.000 C 
ATOM     13  C11 <0> d           1.347 -11.914  -0.444  0.00  0.00     0.000 C 
ATOM     14  C10 <0> d           1.460 -10.671   0.441  0.00  0.00     0.000 C 
ATOM     15  C9  <0> d           1.438  -9.418  -0.436  0.00  0.00     0.005 C 
ENDBRANCH   9  10
ENDBRANCH   6   9
ENDBRANCH   3   5
BRANCH   1  16
ATOM     16  C3  <0> d           0.028  -2.095  -0.665  0.00  0.00     0.082 A 
ATOM     17  C2  <0> d           0.008  -0.782  -1.092  0.00  0.00     0.111 A 
ATOM     18  N1  <0> d           0.002  -0.004   0.002  0.00  0.00    -0.272 N 
ATOM     19  C1  <0> d          -0.018   1.461   0.010  0.00  0.00     0.180 C 
ATOM     20  N2  <0> d           0.025  -0.828   1.133  0.00  0.00    -0.184 NA
ATOM     21  C4  <0> d           0.034  -2.074   0.748  0.00  0.00     0.158 A 
BRANCH  17  22
ATOM     22  C14 <0> d          -0.006  -0.310  -2.523  0.00  0.00     0.405 C 
ATOM     23  F1  <0> d           0.636   0.930  -2.611  0.00  0.00    -0.207 F 
ATOM     24  F2  <0> d           0.662  -1.240  -3.327  0.00  0.00    -0.207 F 
ENDBRANCH  17  22
ENDBRANCH   1  16
TORSDOF 5
