REMARK  3 active torsions:
REMARK  status: ('A' for Active; 'I' for Inactive)
REMARK    1  A    between atoms: C5_5  and  N2_19 
REMARK    2  A    between atoms: C6_6  and  S1_9 
REMARK    3  A    between atoms: S1_9  and  N1_12 
ROOT
ATOM      1  C1  <0> d          -0.047   0.987  -0.565  0.00  0.00     0.049 C 
ATOM      2  C2  <0> d           0.014  -0.511  -0.411  0.00  0.00    -0.054 A 
ATOM      3  C3  <0> d           0.262  -1.308  -1.513  0.00  0.00     0.009 A 
ATOM      4  C4  <0> d           0.318  -2.681  -1.375  0.00  0.00     0.031 A 
ATOM      5  C5  <0> d           0.125  -3.261  -0.128  0.00  0.00     0.049 A 
ATOM      6  C6  <0> d          -0.124  -2.457   0.977  0.00  0.00     0.112 A 
ATOM      7  C7  <0> d          -0.173  -1.084   0.834  0.00  0.00    -0.030 A 
ATOM      8  C8  <0> d          -0.437  -0.211   2.033  0.00  0.00     0.050 C 
ENDROOT
BRANCH   6   9
ATOM      9  S1  <0> d          -0.370  -3.188   2.562  0.00  0.00     0.263 S 
ATOM     10  O1  <0> d          -1.071  -2.232   3.345  0.00  0.00    -0.200 OA
ATOM     11  O2  <0> d          -0.870  -4.498   2.332  0.00  0.00    -0.200 OA
BRANCH   9  12
ATOM     12  N1  <0> d           1.123  -3.365   3.256  0.00  0.00    -0.302 N 
ATOM     13  C12 <0> d           1.650  -2.355   4.187  0.00  0.00     0.167 C 
ATOM     14  C11 <0> d           3.060  -1.968   3.739  0.00  0.00     0.136 C 
ATOM     15  O3  <0> d           3.845  -3.151   3.574  0.00  0.00    -0.383 OA
ATOM     16  C13 <0> d           3.706  -1.069   4.795  0.00  0.00     0.041 C 
ATOM     17  C10 <0> d           3.360  -4.039   2.564  0.00  0.00     0.189 C 
ATOM     18  C9  <0> d           1.963  -4.535   2.956  0.00  0.00     0.161 C 
ENDBRANCH   9  12
ENDBRANCH   6   9
BRANCH   5  19
ATOM     19  N2  <0> d           0.180  -4.649   0.015  0.00  0.00    -0.398 N 
ATOM     20  H19 <0> d           0.157  -5.219  -0.770  0.00  0.00     0.156 HD
ATOM     21  H20 <0> d           0.242  -5.044   0.899  0.00  0.00     0.156 HD
ENDBRANCH   5  19
TORSDOF 3
