REMARK  4 active torsions:
REMARK  status: ('A' for Active; 'I' for Inactive)
REMARK    1  A    between atoms: C2_2  and  C3_3 
REMARK    2  A    between atoms: C6_9  and  N5_31 
REMARK    3  A    between atoms: N3_18  and  C16_21 
REMARK    4  A    between atoms: C16_21  and  C17_22 
ROOT
ATOM      1  C3  <0> d           0.731  -0.503   1.223  0.00  0.00     0.147 A 
ATOM      2  N1  <0> d           0.181  -0.775   2.376  0.00  0.00    -0.227 NA
ATOM      3  C4  <0> d           1.133  -1.191   3.215  0.00  0.00     0.116 A 
ATOM      4  C5  <0> d           2.314  -1.167   2.540  0.00  0.00     0.178 A 
ATOM      5  O1  <0> d           2.053  -0.747   1.299  0.00  0.00    -0.277 OA
ATOM      6  N2  <0> d           3.517  -1.540   3.138  0.00  0.00    -0.320 N 
ATOM      7  C6  <0> d           3.538  -1.691   4.507  0.00  0.00     0.119 C 
ATOM      8  C7  <0> d           2.402  -1.734   5.250  0.00  0.00     0.095 C 
ATOM      9  C8  <0> d           1.030  -1.627   4.649  0.00  0.00     0.160 A 
ATOM     10  C9  <0> d           0.288  -2.921   4.765  0.00  0.00    -0.002 A 
ATOM     11  C10 <0> d           0.558  -4.178   4.266  0.00  0.00     0.011 A 
ATOM     12  C11 <0> d          -0.355  -5.184   4.563  0.00  0.00     0.001 A 
ATOM     13  C12 <0> d          -1.479  -4.933   5.323  0.00  0.00     0.002 A 
ATOM     14  C13 <0> d          -1.757  -3.673   5.829  0.00  0.00     0.030 A 
ATOM     15  C14 <0> d          -0.848  -2.654   5.539  0.00  0.00     0.045 A 
ATOM     16  N3  <0> d          -0.874  -1.321   5.911  0.00  0.00    -0.312 N 
ATOM     17  C15 <0> d           0.191  -0.642   5.434  0.00  0.00     0.250 A 
ATOM     18  O2  <0> d           0.430   0.535   5.603  0.00  0.00    -0.271 OA
ATOM     19  C23 <0> d           2.518  -1.886   6.670  0.00  0.00     0.101 C 
ATOM     20  N4  <0> d           2.610  -2.007   7.795  0.00  0.00    -0.191 NA
ATOM     21  H6  <0> d           4.315  -1.687   2.607  0.00  0.00     0.169 HD
ENDROOT
BRANCH   7  22
ATOM     22  N5  <0> d           4.751  -1.805   5.143  0.00  0.00    -0.384 N 
ATOM     23  H17 <0> d           5.572  -1.777   4.628  0.00  0.00     0.157 HD
ATOM     24  H18 <0> d           4.785  -1.912   6.106  0.00  0.00     0.157 HD
ENDBRANCH   7  22
BRANCH  16  25
ATOM     25  C16 <0> d          -1.931  -0.719   6.726  0.00  0.00     0.170 C 
BRANCH  25  26
ATOM     26  C17 <0> d          -1.566  -0.827   8.183  0.00  0.00    -0.039 A 
ATOM     27  C22 <0> d          -0.842   0.182   8.791  0.00  0.00     0.027 A 
ATOM     28  C21 <0> d          -0.511   0.085  10.130  0.00  0.00     0.011 A 
ATOM     29  C20 <0> d          -0.895  -1.026  10.859  0.00  0.00     0.019 A 
ATOM     30 Br1  <0> d           0.472   1.469  10.964  0.00  0.00    -0.051 Br
ATOM     31  C19 <0> d          -1.614  -2.038  10.249  0.00  0.00     0.002 A 
ATOM     32  C18 <0> d          -1.949  -1.938   8.912  0.00  0.00     0.009 A 
ENDBRANCH  25  26
ENDBRANCH  16  25
BRANCH   1  33
ATOM     33  C2  <0> d           0.002  -0.004   0.002  0.00  0.00     0.082 C 
ATOM     34  C1  <0> d          -0.019   1.526   0.010  0.00  0.00     0.013 C 
ENDBRANCH   1  33
TORSDOF 4
