REMARK  3 active torsions:
REMARK  status: ('A' for Active; 'I' for Inactive)
REMARK    1  A    between atoms: C2_2  and  N1_4 
REMARK    2  A    between atoms: N1_4  and  S1_5 
REMARK    3  A    between atoms: S1_5  and  C4_8 
ROOT
ATOM      1  C4  <0> d          -2.701  -0.513   0.061  0.00  0.00     0.080 A 
ATOM      2  C5  <0> d          -3.470   0.550   0.496  0.00  0.00     0.027 A 
ATOM      3  C6  <0> d          -4.681   0.818  -0.110  0.00  0.00     0.031 A 
ATOM      4  C7  <0> d          -5.133   0.011  -1.149  0.00  0.00     0.034 A 
ATOM      5  C8  <0> d          -4.363  -1.056  -1.583  0.00  0.00    -0.030 A 
ATOM      6  C9  <0> d          -3.147  -1.315  -0.973  0.00  0.00     0.034 A 
ATOM      7  C10 <0> d          -4.814  -1.944  -2.713  0.00  0.00     0.042 C 
ATOM      8  C11 <0> d          -6.327  -1.836  -2.906  0.00  0.00     0.024 C 
ATOM      9  C12 <0> d          -6.708  -0.354  -3.017  0.00  0.00     0.120 C 
ATOM     10  N2  <0> d          -6.368   0.293  -1.742  0.00  0.00    -0.389 N 
ATOM     11  H18 <0> d          -7.080   0.986  -1.271  0.00  0.00     0.159 HD
ENDROOT
BRANCH   1  12
ATOM     12  S1  <0> d          -1.153  -0.852   0.831  0.00  0.00     0.259 S 
ATOM     13  O1  <0> d          -0.883  -2.230   0.610  0.00  0.00    -0.201 OA
ATOM     14  O2  <0> d          -1.216  -0.287   2.134  0.00  0.00    -0.201 OA
BRANCH  12  15
ATOM     15  N1  <0> d           0.002  -0.004   0.002  0.00  0.00    -0.311 N 
ATOM     16  H8  <0> d           0.677  -0.541  -0.681  0.00  0.00     0.172 HD
BRANCH  15  17
ATOM     17  C2  <0> d          -0.018   1.461   0.010  0.00  0.00     0.085 C 
ATOM     18  C1  <0> d           1.418   1.990  -0.001  0.00  0.00     0.032 C 
ATOM     19  C3  <0> d          -0.758   1.968  -1.230  0.00  0.00     0.032 C 
ENDBRANCH  15  17
ENDBRANCH  12  15
ENDBRANCH   1  12
TORSDOF 3
