REMARK  5 active torsions:
REMARK  status: ('A' for Active; 'I' for Inactive)
REMARK    1  A    between atoms: C3_3  and  C10_15 
REMARK    2  A    between atoms: N1_5  and  C5_7 
REMARK    3  A    between atoms: C10_15  and  N5_31 
REMARK    4  A    between atoms: C12_17  and  N3_18 
REMARK    5  A    between atoms: C12_17  and  N5_31 
ROOT
ATOM      1  C11 <0> d          -0.013   1.086   0.008  0.00  0.00     0.272 C 
ATOM      2  N5  <0> d          -0.727   1.548   1.217  0.00  0.00    -0.055 N 
ATOM      3  H32 <0> d          -1.674   1.153   1.216  0.00  0.00     0.281 HD
ENDROOT
BRANCH   2   4
ATOM      4  C10 <0> d          -0.016   1.091   2.429  0.00  0.00     0.279 C 
BRANCH   4   5
ATOM      5  C3  <0> d          -0.125  -0.409   2.520  0.00  0.00     0.018 A 
ATOM      6  C2  <0> d          -1.144  -1.123   3.158  0.00  0.00     0.061 A 
ATOM      7  C1  <0> d          -2.326  -0.525   3.876  0.00  0.00     0.073 C 
ATOM      8  N2  <0> d          -0.896  -2.401   3.021  0.00  0.00    -0.176 NA
ATOM      9  N1  <0> d           0.296  -2.540   2.298  0.00  0.00    -0.268 N 
ATOM     10  C4  <0> d           0.749  -1.304   2.003  0.00  0.00     0.037 A 
ATOM     11  C9  <0> d           2.004  -0.977   1.235  0.00  0.00     0.070 C 
BRANCH   9  12
ATOM     12  C5  <0> d           0.937  -3.804   1.929  0.00  0.00     0.125 C 
ATOM     13  C8  <0> d           1.294  -4.593   3.212  0.00  0.00     0.167 C 
ATOM     14  S1  <0> d           1.126  -6.343   2.669  0.00  0.00     0.146 S 
ATOM     15  C7  <0> d           0.543  -6.072   0.942  0.00  0.00     0.142 C 
ATOM     16  O1  <0> d           0.087  -6.961   3.416  0.00  0.00    -0.228 OA
ATOM     17  O2  <0> d           2.414  -6.942   2.634  0.00  0.00    -0.228 OA
ATOM     18  C6  <0> d          -0.024  -4.628   1.056  0.00  0.00     0.043 C 
ENDBRANCH   9  12
ENDBRANCH   4   5
ENDBRANCH   2   4
BRANCH   2  19
ATOM     19  C12 <0> d          -0.822   3.023   1.213  0.00  0.00     0.371 C 
BRANCH  19  20
ATOM     20  N3  <0> d          -1.961   3.417   0.380  0.00  0.00    -0.242 N 
ATOM     21  C20 <0> d          -1.880   3.678  -0.931  0.00  0.00     0.327 A 
ATOM     22  N4  <0> d          -3.071   4.013  -1.462  0.00  0.00    -0.324 N 
ATOM     23  O4  <0> d          -0.848   3.616  -1.569  0.00  0.00    -0.247 OA
ATOM     24  C14 <0> d          -4.043   3.974  -0.362  0.00  0.00     0.116 A 
ATOM     25  H31 <0> d          -3.251   4.239  -2.388  0.00  0.00     0.165 HD
ATOM     26  C13 <0> d          -3.221   3.566   0.839  0.00  0.00     0.257 A 
ATOM     27  C19 <0> d          -5.126   2.938  -0.641  0.00  0.00     0.041 C 
ATOM     28  C15 <0> d          -4.657   5.352  -0.142  0.00  0.00     0.041 C 
ATOM     29  O3  <0> d          -3.611   3.408   1.976  0.00  0.00    -0.270 OA
ATOM     30  C18 <0> d          -5.929   3.354  -1.876  0.00  0.00     0.003 C 
ATOM     31  C17 <0> d          -6.562   4.726  -1.633  0.00  0.00     0.000 C 
ATOM     32  C16 <0> d          -5.462   5.758  -1.380  0.00  0.00     0.003 C 
ENDBRANCH  19  20
ENDBRANCH   2  19
TORSDOF 5
