REMARK  6 active torsions:
REMARK  status: ('A' for Active; 'I' for Inactive)
REMARK       I    between atoms: N2_12  and  C12_15 
REMARK    1  A    between atoms: C12_15  and  C13_17 
REMARK    2  A    between atoms: C18_22  and  C19_23 
REMARK       I    between atoms: C19_23  and  N3_25 
REMARK    3  A    between atoms: N3_25  and  C20_26 
REMARK    4  A    between atoms: C20_26  and  C21_27 
REMARK    5  A    between atoms: C21_27  and  C22_28 
REMARK    6  A    between atoms: C22_28  and  N4_29 
ROOT
ATOM      1  C13 <0> d           4.458  -5.495   1.776  0.00  0.00     0.095 C 
ATOM      2  C14 <0> d           5.579  -5.551   0.735  0.00  0.00     0.041 C 
ATOM      3  C15 <0> d           6.896  -5.804   1.407  0.00  0.00    -0.030 C 
ATOM      4  C16 <0> d           7.021  -6.260   2.612  0.00  0.00    -0.030 C 
ATOM      5  C17 <0> d           5.864  -6.591   3.509  0.00  0.00     0.041 C 
ATOM      6  C18 <0> d           4.578  -6.720   2.691  0.00  0.00     0.094 C 
ENDROOT
BRANCH   1   7
ATOM      7  C12 <0> d           3.121  -5.509   1.082  0.00  0.00     0.225 C 
ATOM      8  N2  <0> d           2.799  -4.526   0.218  0.00  0.00    -0.346 N 
ATOM      9  C9  <0> d           3.742  -3.429  -0.061  0.00  0.00     0.183 C 
ATOM     10  C10 <0> d           1.499  -4.522  -0.468  0.00  0.00     0.131 C 
ATOM     11  C8  <0> d           2.953  -2.138  -0.039  0.00  0.00     0.035 A 
ATOM     12  C7  <0> d           1.607  -2.091  -0.024  0.00  0.00    -0.020 A 
ATOM     13  N1  <0> d           3.458  -0.870  -0.036  0.00  0.00    -0.357 N 
ATOM     14  C5  <0> d           1.223  -0.682  -0.013  0.00  0.00    -0.001 A 
ATOM     15  C11 <0> d           0.699  -3.294  -0.014  0.00  0.00     0.061 C 
ATOM     16  C4  <0> d           2.428   0.046  -0.021  0.00  0.00     0.043 A 
ATOM     17  C6  <0> d           0.002  -0.004   0.002  0.00  0.00     0.014 A 
ATOM     18  C3  <0> d           2.385   1.436  -0.013  0.00  0.00     0.030 A 
ATOM     19  C2  <0> d           1.169   2.083   0.002  0.00  0.00     0.002 A 
ATOM     20  C1  <0> d          -0.016   1.362   0.009  0.00  0.00     0.001 A 
ATOM     21  H1  <0> d           4.402  -0.646  -0.044  0.00  0.00     0.166 HD
ATOM     22  O1  <0> d           2.333  -6.405   1.301  0.00  0.00    -0.273 OA
ENDBRANCH   1   7
BRANCH   6  23
ATOM     23  C19 <0> d           3.389  -6.781   3.615  0.00  0.00     0.222 C 
ATOM     24  O2  <0> d           2.528  -5.929   3.551  0.00  0.00    -0.273 OA
ATOM     25  N3  <0> d           3.283  -7.781   4.512  0.00  0.00    -0.361 N 
ATOM     26  H20 <0> d           3.971  -8.462   4.562  0.00  0.00     0.162 HD
BRANCH  25  27
ATOM     27  C20 <0> d           2.127  -7.840   5.410  0.00  0.00     0.124 C 
BRANCH  27  28
ATOM     28  C21 <0> d           2.250  -9.063   6.321  0.00  0.00     0.040 C 
BRANCH  28  29
ATOM     29  C22 <0> d           1.043  -9.124   7.259  0.00  0.00     0.130 C 
BRANCH  29  30
ATOM     30  N4  <0> d           1.161 -10.296   8.130  0.00  0.00    -0.352 N 
ATOM     31  C25 <0> d           1.764 -10.338   9.338  0.00  0.00     0.182 A 
ATOM     32  N5  <0> d           1.665 -11.550   9.812  0.00  0.00    -0.361 N 
ATOM     33  C24 <0> d           1.010 -12.319   8.930  0.00  0.00     0.106 A 
ATOM     34  H30 <0> d           2.014 -11.849  10.667  0.00  0.00     0.166 HD
ATOM     35  C23 <0> d           0.686 -11.553   7.870  0.00  0.00     0.108 A 
ENDBRANCH  29  30
ENDBRANCH  28  29
ENDBRANCH  27  28
ENDBRANCH  25  27
ENDBRANCH   6  23
TORSDOF 6
