REMARK  3 active torsions:
REMARK  status: ('A' for Active; 'I' for Inactive)
REMARK    1  A    between atoms: N1_15  and  C15_16 
REMARK    2  A    between atoms: C15_16  and  C16_17 
REMARK       I    between atoms: C16_17  and  N2_19 
REMARK    3  A    between atoms: N2_19  and  C17_20 
ROOT
ATOM      1  C1  <0> d          -0.257   1.103   0.165  0.00  0.00     0.045 C 
ATOM      2  C2  <0> d           0.104  -0.336  -0.208  0.00  0.00     0.218 C 
ATOM      3  C3  <0> d          -1.159  -1.146  -0.339  0.00  0.00    -0.018 A 
ATOM      4  C4  <0> d          -2.259  -0.565  -0.953  0.00  0.00     0.049 A 
ATOM      5  C5  <0> d          -3.438  -1.275  -1.099  0.00  0.00     0.102 A 
ATOM      6  C6  <0> d          -3.519  -2.581  -0.628  0.00  0.00     0.102 A 
ATOM      7  C7  <0> d          -2.420  -3.156  -0.012  0.00  0.00     0.048 A 
ATOM      8  C8  <0> d          -1.243  -2.439   0.134  0.00  0.00    -0.037 A 
ATOM      9  C9  <0> d          -0.073  -3.095   0.818  0.00  0.00     0.012 C 
ATOM     10  C10 <0> d           0.072  -4.546   0.322  0.00  0.00     0.016 C 
ATOM     11  C11 <0> d           0.502  -5.335   1.585  0.00  0.00     0.001 C 
ATOM     12  C12 <0> d          -0.323  -4.660   2.709  0.00  0.00     0.001 C 
ATOM     13  C13 <0> d          -0.323  -3.163   2.332  0.00  0.00     0.016 C 
ATOM     14  C14 <0> d           1.212  -2.321   0.535  0.00  0.00     0.250 C 
ATOM     15  N1  <0> d           0.975  -0.899   0.827  0.00  0.00    -0.054 N 
ATOM     16  O3  <0> d          -4.663  -3.303  -0.770  0.00  0.00    -0.346 OA
ATOM     17  C23 <0> d          -5.858  -2.567  -1.056  0.00  0.00     0.202 C 
ATOM     18  C24 <0> d          -5.545  -1.555  -2.167  0.00  0.00     0.202 C 
ATOM     19  O4  <0> d          -4.507  -0.685  -1.701  0.00  0.00    -0.346 OA
ATOM     20  H34 <0> d           0.531  -0.808   1.728  0.00  0.00     0.281 HD
ENDROOT
BRANCH  15  21
ATOM     21  C15 <0> d           2.256  -0.180   0.835  0.00  0.00     0.338 C 
BRANCH  21  22
ATOM     22  C16 <0> d           3.101  -0.672   1.982  0.00  0.00     0.244 C 
ATOM     23  O1  <0> d           2.638  -1.453   2.785  0.00  0.00    -0.272 OA
ATOM     24  N2  <0> d           4.372  -0.243   2.115  0.00  0.00    -0.346 N 
ATOM     25  H20 <0> d           4.742   0.383   1.472  0.00  0.00     0.163 HD
BRANCH  24  26
ATOM     26  C17 <0> d           5.193  -0.721   3.230  0.00  0.00     0.176 C 
ATOM     27  C22 <0> d           5.615  -2.152   2.974  0.00  0.00     0.240 C 
ATOM     28  N3  <0> d           6.139  -2.494   1.792  0.00  0.00    -0.359 N 
ATOM     29  O2  <0> d           5.481  -2.986   3.845  0.00  0.00    -0.271 OA
ATOM     30  C21 <0> d           6.299  -1.490   0.728  0.00  0.00     0.122 C 
ATOM     31  H29 <0> d           6.413  -3.411   1.635  0.00  0.00     0.162 HD
ATOM     32  C20 <0> d           7.439  -0.546   1.113  0.00  0.00     0.020 C 
ATOM     33  C19 <0> d           6.931   0.590   1.982  0.00  0.00     0.004 C 
ATOM     34  C18 <0> d           6.449   0.145   3.351  0.00  0.00     0.035 C 
ENDBRANCH  24  26
ENDBRANCH  21  22
ENDBRANCH  15  21
TORSDOF 3
