REMARK  7 active torsions:
REMARK  status: ('A' for Active; 'I' for Inactive)
REMARK    1  A    between atoms: C2_2  and  N1_3 
REMARK    2  A    between atoms: C2_2  and  C11_18 
REMARK    3  A    between atoms: N1_3  and  N2_4 
REMARK    4  A    between atoms: N2_4  and  C3_5 
REMARK    5  A    between atoms: N3_7  and  C4_8 
REMARK    6  A    between atoms: C9_13  and  C10_14 
REMARK    7  A    between atoms: C14_21  and  O1_24 
ROOT
ATOM      1  C3  <0> d          -1.494  -2.207   2.364  0.00  0.00     0.192 C 
ATOM      2  S1  <0> d          -2.027  -3.826   2.529  0.00  0.00    -0.039 SA
ATOM      3  N3  <0> d          -1.716  -1.320   3.354  0.00  0.00    -0.331 N 
ATOM      4  H5  <0> d          -1.379  -0.414   3.278  0.00  0.00     0.168 HD
ENDROOT
BRANCH   1   5
ATOM      5  N2  <0> d          -0.851  -1.821   1.244  0.00  0.00    -0.253 N 
ATOM      6  H4  <0> d          -0.691  -2.459   0.532  0.00  0.00     0.191 HD
BRANCH   5   7
ATOM      7  N1  <0> d          -0.414  -0.496   1.109  0.00  0.00    -0.177 NA
BRANCH   7   8
ATOM      8  C2  <0> d           0.110  -0.097  -0.009  0.00  0.00     0.061 C 
ATOM      9  C1  <0> d           0.643   1.308  -0.132  0.00  0.00     0.073 C 
BRANCH   8  10
ATOM     10  C11 <0> d           0.184  -1.016  -1.159  0.00  0.00    -0.010 A 
ATOM     11  C16 <0> d           1.304  -1.005  -1.994  0.00  0.00     0.016 A 
ATOM     12  C15 <0> d           1.371  -1.870  -3.065  0.00  0.00     0.037 A 
ATOM     13  C14 <0> d           0.323  -2.745  -3.320  0.00  0.00     0.065 A 
ATOM     14  C13 <0> d          -0.795  -2.756  -2.496  0.00  0.00     0.037 A 
ATOM     15  C12 <0> d          -0.868  -1.898  -1.420  0.00  0.00     0.016 A 
BRANCH  13  16
ATOM     16  O1  <0> d           0.391  -3.593  -4.380  0.00  0.00    -0.361 OA
ATOM     17  H14 <0> d           0.027  -3.229  -5.199  0.00  0.00     0.217 HD
ENDBRANCH  13  16
ENDBRANCH   8  10
ENDBRANCH   7   8
ENDBRANCH   5   7
ENDBRANCH   1   5
BRANCH   3  18
ATOM     18  C4  <0> d          -2.434  -1.706   4.491  0.00  0.00     0.049 A 
ATOM     19  C9  <0> d          -2.038  -1.264   5.746  0.00  0.00     0.074 A 
ATOM     20  C8  <0> d          -2.752  -1.643   6.867  0.00  0.00     0.018 A 
ATOM     21  C7  <0> d          -3.853  -2.470   6.740  0.00  0.00     0.001 A 
ATOM     22  C6  <0> d          -4.245  -2.917   5.491  0.00  0.00     0.002 A 
ATOM     23  C5  <0> d          -3.540  -2.537   4.367  0.00  0.00     0.030 A 
BRANCH  19  24
ATOM     24  C10 <0> d          -0.836  -0.367   5.886  0.00  0.00     0.419 C 
ATOM     25  F1  <0> d          -0.638  -0.058   7.236  0.00  0.00    -0.166 F 
ATOM     26  F2  <0> d           0.295  -1.023   5.388  0.00  0.00    -0.166 F 
ATOM     27  F3  <0> d          -1.047   0.812   5.164  0.00  0.00    -0.166 F 
ENDBRANCH  19  24
ENDBRANCH   3  18
TORSDOF 7
