REMARK  3 active torsions:
REMARK  status: ('A' for Active; 'I' for Inactive)
REMARK    1  A    between atoms: N1_2  and  C2_3 
REMARK       I    between atoms: N1_2  and  C4_7 
REMARK    2  A    between atoms: C2_3  and  C3_4 
REMARK    3  A    between atoms: C4_7  and  C5_9 
ROOT
ATOM      1  C1  <0> d          -0.082   1.461   0.012  0.00  0.00     0.153 C 
ATOM      2  N1  <0> d          -0.024  -0.003   0.003  0.00  0.00    -0.345 N 
ATOM      3  C4  <0> d          -0.102  -0.673  -1.163  0.00  0.00     0.272 C 
ATOM      4  O1  <0> d          -0.153  -1.887  -1.164  0.00  0.00    -0.266 OA
ENDROOT
BRANCH   3   5
ATOM      5  C5  <0> d          -0.124   0.070  -2.445  0.00  0.00     0.124 A 
ATOM      6  N3  <0> d           0.058   1.385  -2.446  0.00  0.00    -0.254 NA
ATOM      7  C9  <0> d           0.051   2.082  -3.561  0.00  0.00     0.136 A 
ATOM      8  C8  <0> d          -0.160   1.464  -4.785  0.00  0.00     0.028 A 
ATOM      9  C7  <0> d          -0.360   0.092  -4.828  0.00  0.00     0.023 A 
ATOM     10 Br1  <0> d          -0.174   2.482  -6.378  0.00  0.00    -0.050 Br
ATOM     11  C6  <0> d          -0.342  -0.616  -3.637  0.00  0.00     0.039 A 
ENDBRANCH   3   5
BRANCH   2  12
ATOM     12  C2  <0> d           0.120  -0.738   1.262  0.00  0.00     0.194 C 
BRANCH  12  13
ATOM     13  C3  <0> d          -1.245  -1.048   1.821  0.00  0.00     0.089 C 
ATOM     14  S1  <0> d          -2.556  -0.575   1.038  0.00  0.00    -0.064 SA
ATOM     15  N2  <0> d          -1.360  -1.722   2.982  0.00  0.00    -0.392 N 
ATOM     16  H6  <0> d          -0.565  -2.009   3.458  0.00  0.00     0.156 HD
ATOM     17  H7  <0> d          -2.239  -1.922   3.342  0.00  0.00     0.156 HD
ENDBRANCH  12  13
ENDBRANCH   2  12
TORSDOF 3
