REMARK  6 active torsions:
REMARK  status: ('A' for Active; 'I' for Inactive)
REMARK    1  A    between atoms: C6_7  and  C9_10 
REMARK    2  A    between atoms: C9_10  and  C10_11 
REMARK       I    between atoms: C10_11  and  N2_13 
REMARK    3  A    between atoms: N2_13  and  N3_14 
REMARK       I    between atoms: N3_14  and  C11_15 
REMARK    4  A    between atoms: C11_15  and  C12_17 
REMARK    5  A    between atoms: C12_17  and  N4_18 
REMARK    6  A    between atoms: C19_26  and  C20_27 
ROOT
ATOM      1  N3  <0> d          -0.567  -5.122  -3.001  0.00  0.00    -0.266 N 
ATOM      2  C11 <0> d          -1.380  -6.168  -3.245  0.00  0.00     0.254 C 
ATOM      3  O2  <0> d          -1.926  -6.740  -2.325  0.00  0.00    -0.270 OA
ATOM      4  H11 <0> d          -0.131  -4.665  -3.737  0.00  0.00     0.190 HD
ENDROOT
BRANCH   1   5
ATOM      5  N2  <0> d          -0.353  -4.693  -1.684  0.00  0.00    -0.267 N 
ATOM      6  C10 <0> d           0.460  -3.646  -1.440  0.00  0.00     0.240 C 
ATOM      7  O1  <0> d           1.006  -3.075  -2.360  0.00  0.00    -0.272 OA
ATOM      8  H10 <0> d          -0.790  -5.150  -0.948  0.00  0.00     0.190 HD
BRANCH   6   9
ATOM      9  C9  <0> d           0.691  -3.186  -0.024  0.00  0.00     0.141 C 
BRANCH   9  10
ATOM     10  C6  <0> d           1.631  -2.008  -0.025  0.00  0.00    -0.041 A 
ATOM     11  C5  <0> d           3.143  -2.053  -0.041  0.00  0.00     0.155 A 
ATOM     12  N1  <0> d           3.587  -0.654  -0.037  0.00  0.00    -0.385 N 
ATOM     13  C4  <0> d           2.529   0.120  -0.022  0.00  0.00     0.038 A 
ATOM     14  H19 <0> d           4.509  -0.353  -0.045  0.00  0.00     0.160 HD
ATOM     15  C3  <0> d           2.391   1.535  -0.013  0.00  0.00     0.030 A 
ATOM     16  C7  <0> d           1.295  -0.698  -0.014  0.00  0.00    -0.005 A 
ATOM     17  C2  <0> d           1.166   2.101   0.002  0.00  0.00     0.002 A 
ATOM     18  C1  <0> d          -0.016   1.348   0.009  0.00  0.00     0.001 A 
ATOM     19  C8  <0> d           0.002  -0.004   0.002  0.00  0.00     0.014 A 
ENDBRANCH   9  10
ENDBRANCH   6   9
ENDBRANCH   1   5
BRANCH   2  20
ATOM     20  C12 <0> d          -1.611  -6.629  -4.661  0.00  0.00     0.230 C 
BRANCH  20  21
ATOM     21  N4  <0> d          -2.526  -7.774  -4.660  0.00  0.00    -0.341 N 
ATOM     22  C19 <0> d          -3.990  -7.717  -4.748  0.00  0.00     0.295 A 
ATOM     23  N5  <0> d          -4.446  -9.111  -4.711  0.00  0.00    -0.360 N 
ATOM     24  C18 <0> d          -3.307  -9.920  -4.598  0.00  0.00     0.056 A 
ATOM     25  H18 <0> d          -5.365  -9.417  -4.754  0.00  0.00     0.162 HD
ATOM     26  C13 <0> d          -2.165  -9.125  -4.567  0.00  0.00     0.059 A 
ATOM     27  C17 <0> d          -3.186 -11.303  -4.520  0.00  0.00     0.031 A 
ATOM     28  C14 <0> d          -0.914  -9.720  -4.458  0.00  0.00     0.032 A 
ATOM     29  C15 <0> d          -0.803 -11.095  -4.381  0.00  0.00     0.002 A 
ATOM     30  C16 <0> d          -1.937 -11.885  -4.412  0.00  0.00     0.002 A 
BRANCH  22  31
ATOM     31  C20 <0> d          -4.414  -7.060  -6.064  0.00  0.00     0.425 C 
ATOM     32  F1  <0> d          -3.918  -7.806  -7.138  0.00  0.00    -0.167 F 
ATOM     33  F2  <0> d          -5.810  -7.014  -6.132  0.00  0.00    -0.167 F 
ATOM     34  F3  <0> d          -3.901  -5.760  -6.123  0.00  0.00    -0.167 F 
ENDBRANCH  22  31
ENDBRANCH  20  21
ENDBRANCH   2  20
TORSDOF 6
