REMARK  8 active torsions:
REMARK  status: ('A' for Active; 'I' for Inactive)
REMARK       I    between atoms: C2_2  and  N1_4 
REMARK    1  A    between atoms: N1_4  and  C3_5 
REMARK    2  A    between atoms: C3_5  and  C11_14 
REMARK    3  A    between atoms: C4_6  and  C5_7 
REMARK       I    between atoms: C11_14  and  N2_16 
REMARK    4  A    between atoms: N2_16  and  C12_17 
REMARK    5  A    between atoms: C12_17  and  C13_18 
REMARK    6  A    between atoms: C12_17  and  C16_22 
REMARK    7  A    between atoms: C13_18  and  C14_19 
REMARK    8  A    between atoms: C14_19  and  S1_20 
ROOT
ATOM      1  C3  <0> d          -1.039  -2.004  -0.085  0.00  0.00     0.104 C 
ATOM      2  C4  <0> d          -2.292  -2.515  -0.077  0.00  0.00     0.046 C 
ENDROOT
BRANCH   1   3
ATOM      3  N1  <0> d          -0.842  -0.639  -0.321  0.00  0.00    -0.323 N 
ATOM      4  C2  <0> d          -0.219   0.121   0.601  0.00  0.00     0.218 C 
ATOM      5  C1  <0> d           0.107   1.560   0.296  0.00  0.00     0.117 C 
ATOM      6  O1  <0> d           0.080  -0.353   1.677  0.00  0.00    -0.274 OA
ATOM      7  H5  <0> d          -1.154  -0.239  -1.148  0.00  0.00     0.169 HD
ENDBRANCH   1   3
BRANCH   1   8
ATOM      8  C11 <0> d           0.114  -2.882   0.153  0.00  0.00     0.269 C 
ATOM      9  O2  <0> d          -0.059  -4.062   0.395  0.00  0.00    -0.266 OA
ATOM     10  N2  <0> d           1.364  -2.382   0.103  0.00  0.00    -0.341 N 
ATOM     11  H11 <0> d           1.501  -1.429  -0.020  0.00  0.00     0.163 HD
BRANCH  10  12
ATOM     12  C12 <0> d           2.517  -3.276   0.234  0.00  0.00     0.186 C 
BRANCH  12  13
ATOM     13  C13 <0> d           3.732  -2.644  -0.449  0.00  0.00     0.046 C 
BRANCH  13  14
ATOM     14  C14 <0> d           3.474  -2.535  -1.952  0.00  0.00     0.076 C 
BRANCH  14  15
ATOM     15  S1  <0> d           4.914  -1.786  -2.761  0.00  0.00    -0.173 SA
ATOM     16  C15 <0> d           4.452  -1.729  -4.515  0.00  0.00     0.089 C 
ENDBRANCH  14  15
ENDBRANCH  13  14
ENDBRANCH  12  13
BRANCH  12  17
ATOM     17  C16 <0> d           2.819  -3.496   1.694  0.00  0.00     0.196 C 
ATOM     18  O3  <0> d           3.316  -4.547   2.062  0.00  0.00    -0.646 OA
ATOM     19  O4  <0> d           2.566  -2.624   2.507  0.00  0.00    -0.646 OA
ENDBRANCH  12  17
ENDBRANCH  10  12
ENDBRANCH   1   8
BRANCH   2  20
ATOM     20  C5  <0> d          -3.453  -1.617  -0.175  0.00  0.00    -0.034 A 
ATOM     21  C10 <0> d          -3.353  -0.290   0.254  0.00  0.00     0.014 A 
ATOM     22  C9  <0> d          -4.443   0.548   0.153  0.00  0.00     0.043 A 
ATOM     23  C8  <0> d          -5.641   0.073  -0.360  0.00  0.00     0.116 A 
ATOM     24  C7  <0> d          -5.748  -1.243  -0.782  0.00  0.00     0.043 A 
ATOM     25  F1  <0> d          -6.707   0.898  -0.451  0.00  0.00    -0.206 F 
ATOM     26  C6  <0> d          -4.664  -2.089  -0.693  0.00  0.00     0.014 A 
ENDBRANCH   2  20
TORSDOF 8
