REMARK  5 active torsions:
REMARK  status: ('A' for Active; 'I' for Inactive)
REMARK    1  A    between atoms: C5_5  and  C8_9 
REMARK       I    between atoms: C8_9  and  N1_11 
REMARK    2  A    between atoms: C10_13  and  C17_21 
REMARK       I    between atoms: C17_21  and  N3_23 
REMARK    3  A    between atoms: N3_23  and  C18_24 
REMARK    4  A    between atoms: C18_24  and  C19_25 
REMARK    5  A    between atoms: C19_25  and  N4_26 
ROOT
ATOM      1  C8  <0> d           0.058  -4.251  -0.024  0.00  0.00     0.253 C 
ATOM      2  O1  <0> d          -0.048  -4.852  -1.075  0.00  0.00    -0.267 OA
ATOM      3  N1  <0> d           0.174  -4.931   1.134  0.00  0.00    -0.346 N 
ATOM      4  C9  <0> d           0.185  -4.386   2.511  0.00  0.00     0.141 C 
ATOM      5  C10 <0> d          -0.634  -5.401   3.340  0.00  0.00     0.106 C 
ATOM      6  C11 <0> d          -0.539  -6.718   2.551  0.00  0.00    -0.007 C 
ATOM      7  C12 <0> d           0.315  -6.396   1.316  0.00  0.00     0.136 C 
ATOM      8  C13 <0> d           0.138  -7.793   3.397  0.00  0.00     0.039 C 
ATOM      9  C14 <0> d           0.168  -9.108   2.613  0.00  0.00     0.233 C 
ATOM     10  N2  <0> d          -1.202  -9.512   2.277  0.00  0.00    -0.075 N 
ATOM     11  C15 <0> d          -1.814  -8.518   1.388  0.00  0.00     0.233 C 
ATOM     12  C16 <0> d          -1.928  -7.177   2.120  0.00  0.00     0.039 C 
ATOM     13  H16 <0> d          -1.183 -10.409   1.815  0.00  0.00     0.277 HD
ATOM     14  H33 <0> d          -1.747  -9.585   3.124  0.00  0.00     0.277 HD
ENDROOT
BRANCH   5  15
ATOM     15  C17 <0> d          -0.033  -5.564   4.712  0.00  0.00     0.224 C 
ATOM     16  O2  <0> d           1.143  -5.332   4.891  0.00  0.00    -0.273 OA
ATOM     17  N3  <0> d          -0.804  -5.969   5.741  0.00  0.00    -0.359 N 
ATOM     18  H21 <0> d          -1.745  -6.155   5.598  0.00  0.00     0.162 HD
BRANCH  17  19
ATOM     19  C18 <0> d          -0.220  -6.127   7.075  0.00  0.00     0.144 C 
BRANCH  19  20
ATOM     20  C19 <0> d          -1.301  -6.592   8.053  0.00  0.00     0.170 C 
BRANCH  20  21
ATOM     21  N4  <0> d          -0.718  -6.751   9.387  0.00  0.00    -0.273 N 
ATOM     22  N5  <0> d          -0.638  -5.760  10.375  0.00  0.00    -0.177 NA
ATOM     23  C22 <0> d          -0.058  -6.278  11.427  0.00  0.00     0.053 A 
ATOM     24  C21 <0> d           0.260  -7.609  11.140  0.00  0.00     0.055 A 
ATOM     25  C23 <0> d           0.226  -5.561  12.722  0.00  0.00     0.072 C 
ATOM     26  C20 <0> d          -0.156  -7.875   9.880  0.00  0.00     0.028 A 
ATOM     27  C24 <0> d          -0.018  -9.189   9.157  0.00  0.00     0.070 C 
ENDBRANCH  20  21
ENDBRANCH  19  20
ENDBRANCH  17  19
ENDBRANCH   5  15
BRANCH   1  28
ATOM     28  C5  <0> d           0.058  -2.772  -0.015  0.00  0.00     0.035 A 
ATOM     29  C4  <0> d           0.668  -2.078   1.032  0.00  0.00     0.018 A 
ATOM     30  C3  <0> d           0.666  -0.698   1.035  0.00  0.00     0.011 A 
ATOM     31  C2  <0> d           0.061  -0.001   0.004  0.00  0.00    -0.023 A 
ATOM     32  C1  <0> d           0.064   1.506   0.014  0.00  0.00     0.051 C 
ATOM     33  C7  <0> d          -0.551  -0.683  -1.035  0.00  0.00     0.123 A 
ATOM     34  C6  <0> d          -0.551  -2.065  -1.052  0.00  0.00     0.059 A 
ATOM     35  F1  <0> d          -1.145   0.004  -2.036  0.00  0.00    -0.206 F 
ENDBRANCH   1  28
TORSDOF 5
