REMARK  4 active torsions:
REMARK  status: ('A' for Active; 'I' for Inactive)
REMARK    1  A    between atoms: C6_6  and  C8_8 
REMARK    2  A    between atoms: C6_6  and  N4_17 
REMARK    3  A    between atoms: C8_8  and  N1_9 
REMARK       I    between atoms: N1_9  and  C9_10 
REMARK       I    between atoms: C9_10  and  N3_12 
REMARK    4  A    between atoms: N3_12  and  C10_13 
ROOT
ATOM      1  C8  <0> d          -0.496  -2.480   1.784  0.00  0.00     0.177 C 
ENDROOT
BRANCH   1   2
ATOM      2  C6  <0> d           0.954  -2.059   2.030  0.00  0.00     0.143 C 
ATOM      3  C5  <0> d           1.759  -2.224   0.739  0.00  0.00     0.041 C 
ATOM      4  C4  <0> d           1.152  -1.345  -0.356  0.00  0.00     0.003 C 
ATOM      5  C3  <0> d           1.190   0.119   0.085  0.00  0.00     0.004 C 
ATOM      6  C2  <0> d           0.385   0.284   1.375  0.00  0.00    -0.016 C 
ATOM      7  C1  <0> d           0.422   1.749   1.817  0.00  0.00     0.010 C 
ATOM      8  C7  <0> d           0.992  -0.594   2.471  0.00  0.00     0.045 C 
BRANCH   2   9
ATOM      9  N4  <0> d           1.538  -2.902   3.082  0.00  0.00    -0.068 N 
ATOM     10  C14 <0> d           2.897  -2.437   3.385  0.00  0.00     0.270 C 
ATOM     11  C15 <0> d           0.710  -2.817   4.293  0.00  0.00     0.270 C 
ATOM     12  H34 <0> d           1.572  -3.860   2.765  0.00  0.00     0.280 HD
ENDBRANCH   2   9
ENDBRANCH   1   2
BRANCH   1  13
ATOM     13  N1  <0> d          -0.541  -3.908   1.460  0.00  0.00    -0.224 N 
ATOM     14  C9  <0> d          -1.734  -4.497   1.113  0.00  0.00     0.668 C 
ATOM     15  N2  <0> d          -2.815  -3.774   1.020  0.00  0.00    -0.235 N 
ATOM     16  N3  <0> d          -1.787  -5.848   0.863  0.00  0.00    -0.219 N 
ATOM     17  H16 <0> d          -3.670  -4.199   0.849  0.00  0.00     0.174 HD
ATOM     18  H33 <0> d          -2.764  -2.811   1.123  0.00  0.00     0.174 HD
ATOM     19  H17 <0> d          -2.630  -6.264   0.623  0.00  0.00     0.178 HD
ATOM     20  H15 <0> d           0.270  -4.439   1.491  0.00  0.00     0.177 HD
BRANCH  16  21
ATOM     21  C10 <0> d          -0.571  -6.659   0.959  0.00  0.00     0.036 C 
ATOM     22  C11 <0> d           0.014  -6.537   2.368  0.00  0.00     0.038 C 
ATOM     23  C12 <0> d          -0.910  -8.123   0.673  0.00  0.00     0.038 C 
ATOM     24  C13 <0> d           0.454  -6.163  -0.063  0.00  0.00     0.038 C 
ENDBRANCH  16  21
ENDBRANCH   1  13
TORSDOF 4
