REMARK  4 active torsions:
REMARK  status: ('A' for Active; 'I' for Inactive)
REMARK    1  A    between atoms: C2_2  and  O1_3 
REMARK    2  A    between atoms: O1_3  and  C3_4 
REMARK    3  A    between atoms: C3_4  and  C4_6 
REMARK    4  A    between atoms: N3_14  and  C9_17 
ROOT
ATOM      1  C4  <0> d          -2.852  -2.419   0.016  0.00  0.00     0.143 A 
ATOM      2  C5  <0> d          -3.177  -3.764   0.018  0.00  0.00     0.103 A 
ATOM      3  C6  <0> d          -4.601  -3.804   0.029  0.00  0.00     0.163 A 
ATOM      4  N1  <0> d          -5.022  -2.563   0.033  0.00  0.00    -0.168 NA
ATOM      5  N2  <0> d          -4.035  -1.739   0.032  0.00  0.00    -0.271 N 
ATOM      6  H1  <0> d          -4.119  -0.772   0.038  0.00  0.00     0.189 HD
ATOM      7  C7  <0> d          -4.953  -5.238   0.030  0.00  0.00     0.286 A 
ATOM      8  O3  <0> d          -6.081  -5.689   0.038  0.00  0.00    -0.265 OA
ATOM      9  N3  <0> d          -3.820  -5.962   0.021  0.00  0.00    -0.242 N 
ATOM     10  C8  <0> d          -2.734  -5.167   0.013  0.00  0.00     0.270 A 
ATOM     11  O4  <0> d          -1.580  -5.546   0.003  0.00  0.00    -0.266 OA
ENDROOT
BRANCH   9  12
ATOM     12  C9  <0> d          -3.775  -7.363   0.020  0.00  0.00     0.046 A 
ATOM     13  C14 <0> d          -4.954  -8.096   0.028  0.00  0.00     0.031 A 
ATOM     14  C13 <0> d          -4.908  -9.476   0.021  0.00  0.00     0.021 A 
ATOM     15  C12 <0> d          -3.688 -10.129   0.017  0.00  0.00     0.011 A 
ATOM     16  C11 <0> d          -2.511  -9.400   0.015  0.00  0.00     0.021 A 
ATOM     17 Br1  <0> d          -3.628 -12.019   0.015  0.00  0.00    -0.051 Br
ATOM     18  C10 <0> d          -2.552  -8.020   0.016  0.00  0.00     0.031 A 
ENDBRANCH   9  12
BRANCH   1  19
ATOM     19  C3  <0> d          -1.497  -1.837   0.006  0.00  0.00     0.312 C 
ATOM     20  O2  <0> d          -0.524  -2.564  -0.007  0.00  0.00    -0.258 OA
BRANCH  19  21
ATOM     21  O1  <0> d          -1.339  -0.499   0.012  0.00  0.00    -0.317 OA
BRANCH  21  22
ATOM     22  C2  <0> d           0.002  -0.004   0.002  0.00  0.00     0.175 C 
ATOM     23  C1  <0> d          -0.019   1.526   0.010  0.00  0.00     0.034 C 
ENDBRANCH  21  22
ENDBRANCH  19  21
ENDBRANCH   1  19
TORSDOF 4
