REMARK  5 active torsions:
REMARK  status: ('A' for Active; 'I' for Inactive)
REMARK    1  A    between atoms: N2_4  and  C18_24 
REMARK    2  A    between atoms: C5_8  and  C6_9 
REMARK    3  A    between atoms: C9_12  and  C10_14 
REMARK    4  A    between atoms: C21_27  and  S1_30 
REMARK    5  A    between atoms: S1_30  and  N3_33 
ROOT
ATOM      1  C1  <0> d          -0.018   1.503   0.010  0.00  0.00     0.073 C 
ATOM      2  C2  <0> d           0.002  -0.004   0.002  0.00  0.00     0.067 A 
ATOM      3  N1  <0> d           0.008  -0.766  -1.051  0.00  0.00    -0.168 NA
ATOM      4  N2  <0> d           0.028  -2.115  -0.699  0.00  0.00    -0.197 N 
ATOM      5  C3  <0> d           0.035  -2.243   0.643  0.00  0.00     0.281 A 
ATOM      6  O1  <0> d           0.052  -3.283   1.281  0.00  0.00    -0.265 OA
ATOM      7  C4  <0> d           0.025  -0.877   1.182  0.00  0.00     0.062 A 
ATOM      8  C5  <0> d           0.033  -0.493   2.522  0.00  0.00     0.056 C 
ENDROOT
BRANCH   8   9
ATOM      9  C6  <0> d           0.056  -1.466   3.529  0.00  0.00     0.077 A 
ATOM     10  O2  <0> d           0.071  -2.804   3.339  0.00  0.00    -0.310 OA
ATOM     11  C9  <0> d           0.095  -3.423   4.532  0.00  0.00     0.086 A 
ATOM     12  C8  <0> d           0.085  -2.466   5.526  0.00  0.00     0.041 A 
ATOM     13  C7  <0> d           0.061  -1.224   4.898  0.00  0.00     0.040 A 
BRANCH  11  14
ATOM     14  C10 <0> d           0.121  -4.883   4.742  0.00  0.00    -0.001 A 
ATOM     15  C15 <0> d           0.128  -5.747   3.647  0.00  0.00     0.032 A 
ATOM     16  C14 <0> d           0.159  -7.123   3.855  0.00  0.00     0.048 A 
ATOM     17  C13 <0> d           0.170  -7.625   5.161  0.00  0.00    -0.018 A 
ATOM     18  C16 <0> d           0.178  -8.275   2.934  0.00  0.00     0.294 A 
ATOM     19  C12 <0> d           0.157  -6.769   6.240  0.00  0.00     0.011 A 
ATOM     20  C17 <0> d           0.197  -9.128   5.032  0.00  0.00     0.218 A 
ATOM     21  C11 <0> d           0.132  -5.403   6.041  0.00  0.00     0.015 A 
ATOM     22  O4  <0> d           0.199  -9.422   3.633  0.00  0.00    -0.313 OA
ATOM     23  O3  <0> d           0.174  -8.197   1.722  0.00  0.00    -0.259 OA
ENDBRANCH  11  14
ENDBRANCH   8   9
BRANCH   4  24
ATOM     24  C18 <0> d           0.038  -3.181  -1.607  0.00  0.00     0.062 A 
ATOM     25  C23 <0> d           0.029  -2.932  -2.973  0.00  0.00     0.033 A 
ATOM     26  C22 <0> d           0.045  -3.985  -3.866  0.00  0.00     0.027 A 
ATOM     27  C21 <0> d           0.058  -5.287  -3.401  0.00  0.00     0.079 A 
ATOM     28  C20 <0> d           0.061  -5.539  -2.042  0.00  0.00     0.027 A 
ATOM     29  C19 <0> d           0.052  -4.490  -1.144  0.00  0.00     0.033 A 
BRANCH  27  30
ATOM     30  S1  <0> d           0.071  -6.629  -4.544  0.00  0.00     0.256 S 
ATOM     31  O5  <0> d           0.617  -6.125  -5.756  0.00  0.00    -0.201 OA
ATOM     32  O6  <0> d           0.633  -7.740  -3.860  0.00  0.00    -0.201 OA
BRANCH  30  33
ATOM     33  N3  <0> d          -1.507  -7.017  -4.861  0.00  0.00    -0.324 N 
ATOM     34  H16 <0> d          -2.224  -6.523  -4.433  0.00  0.00     0.169 HD
ATOM     35  H17 <0> d          -1.715  -7.740  -5.474  0.00  0.00     0.169 HD
ENDBRANCH  30  33
ENDBRANCH  27  30
ENDBRANCH   4  24
TORSDOF 5
