REMARK  7 active torsions:
REMARK  status: ('A' for Active; 'I' for Inactive)
REMARK    1  A    between atoms: C3_3  and  O1_8 
REMARK    2  A    between atoms: C6_6  and  N1_7 
REMARK    3  A    between atoms: O1_8  and  C7_9 
REMARK    4  A    between atoms: C7_9  and  C8_10 
REMARK    5  A    between atoms: C8_10  and  C9_11 
REMARK    6  A    between atoms: C9_11  and  S1_12 
REMARK    7  A    between atoms: S1_12  and  C10_14 
ROOT
ATOM      1  C7  <0> d           4.758   1.349  -0.036  0.00  0.00     0.176 C 
ENDROOT
BRANCH   1   2
ATOM      2  O1  <0> d           3.549   2.110  -0.021  0.00  0.00    -0.351 OA
BRANCH   2   3
ATOM      3  C3  <0> d           2.380   1.414  -0.013  0.00  0.00     0.068 A 
ATOM      4  C2  <0> d           1.170   2.091   0.002  0.00  0.00     0.039 A 
ATOM      5  C1  <0> d          -0.017   1.384   0.010  0.00  0.00     0.031 A 
ATOM      6  C6  <0> d           0.002  -0.004   0.002  0.00  0.00     0.025 A 
ATOM      7  C5  <0> d           1.214  -0.681  -0.013  0.00  0.00     0.031 A 
ATOM      8  C4  <0> d           2.400   0.027  -0.021  0.00  0.00     0.039 A 
BRANCH   6   9
ATOM      9  N1  <0> d          -1.200  -0.721   0.010  0.00  0.00    -0.399 N 
ATOM     10  H5  <0> d          -2.047  -0.247   0.021  0.00  0.00     0.156 HD
ATOM     11  H6  <0> d          -1.186  -1.690   0.005  0.00  0.00     0.156 HD
ENDBRANCH   6   9
ENDBRANCH   2   3
ENDBRANCH   1   2
BRANCH   1  12
ATOM     12  C8  <0> d           5.958   2.297  -0.043  0.00  0.00     0.040 C 
BRANCH  12  13
ATOM     13  C9  <0> d           7.253   1.482  -0.060  0.00  0.00     0.116 C 
BRANCH  13  14
ATOM     14  S1  <0> d           8.676   2.607  -0.068  0.00  0.00     0.050 S 
ATOM     15  O2  <0> d           8.742   3.278  -1.319  0.00  0.00    -0.253 OA
BRANCH  14  16
ATOM     16  C10 <0> d          10.070   1.530  -0.087  0.00  0.00     0.031 A 
ATOM     17  C15 <0> d          10.605   1.114  -1.292  0.00  0.00     0.022 A 
ATOM     18  C14 <0> d          11.702   0.273  -1.307  0.00  0.00     0.020 A 
ATOM     19  C13 <0> d          12.258  -0.160  -0.117  0.00  0.00     0.011 A 
ATOM     20  C12 <0> d          11.719   0.252   1.088  0.00  0.00     0.020 A 
ATOM     21 Br1  <0> d          13.755  -1.316  -0.138  0.00  0.00    -0.051 Br
ATOM     22  C11 <0> d          10.625   1.097   1.103  0.00  0.00     0.022 A 
ENDBRANCH  14  16
ENDBRANCH  13  14
ENDBRANCH  12  13
ENDBRANCH   1  12
TORSDOF 7
