REMARK  6 active torsions:
REMARK  status: ('A' for Active; 'I' for Inactive)
REMARK    1  A    between atoms: C6_7  and  C11_12 
REMARK    2  A    between atoms: C11_12  and  N2_13 
REMARK    3  A    between atoms: N3_16  and  C18_22 
REMARK    4  A    between atoms: C14_17  and  C16_19 
REMARK    5  A    between atoms: C16_19  and  C17_20 
REMARK    6  A    between atoms: C17_20  and  O1_21 
ROOT
ATOM      1  N2  <0> d           1.798  -6.439   1.215  0.00  0.00     0.094 N 
ATOM      2  C12 <0> d           0.688  -7.266   1.708  0.00  0.00     0.302 C 
ATOM      3  C13 <0> d           0.437  -8.414   0.728  0.00  0.00     0.303 C 
ATOM      4  N3  <0> d           1.663  -9.212   0.587  0.00  0.00     0.101 N 
ATOM      5  C14 <0> d           2.773  -8.385   0.095  0.00  0.00     0.253 C 
ATOM      6  C15 <0> d           3.024  -7.237   1.075  0.00  0.00     0.308 C 
ENDROOT
BRANCH   1   7
ATOM      7  C11 <0> d           2.021  -5.281   2.091  0.00  0.00     0.302 C 
BRANCH   7   8
ATOM      8  C6  <0> d           0.814  -4.345   2.017  0.00  0.00     0.140 A 
ATOM      9  N1  <0> d           0.570  -3.943   0.627  0.00  0.00    -0.379 N 
ATOM     10  C5  <0> d           0.682  -2.639   0.544  0.00  0.00     0.039 A 
ATOM     11  H37 <0> d           0.361  -4.541  -0.107  0.00  0.00     0.160 HD
ATOM     12  C4  <0> d           0.547  -1.746  -0.554  0.00  0.00     0.030 A 
ATOM     13  C8  <0> d           1.010  -2.067   1.869  0.00  0.00    -0.005 A 
ATOM     14  C3  <0> d           0.714  -0.418  -0.378  0.00  0.00     0.009 A 
ATOM     15  C2  <0> d           1.024   0.148   0.866  0.00  0.00    -0.061 A 
ATOM     16  C1  <0> d           1.193   1.641   0.972  0.00  0.00     0.048 C 
ATOM     17  C9  <0> d           1.181  -0.613   1.974  0.00  0.00     0.020 A 
ATOM     18  C7  <0> d           1.095  -3.067   2.776  0.00  0.00    -0.047 A 
ATOM     19  C10 <0> d           1.407  -2.935   4.244  0.00  0.00     0.046 C 
ENDBRANCH   7   8
ENDBRANCH   1   7
BRANCH   5  20
ATOM     20  C16 <0> d           4.035  -9.242  -0.023  0.00  0.00     0.063 C 
BRANCH  20  21
ATOM     21  C17 <0> d           5.168  -8.403  -0.617  0.00  0.00     0.166 C 
BRANCH  21  22
ATOM     22  O1  <0> d           6.322  -9.225  -0.804  0.00  0.00    -0.401 OA
ATOM     23  H24 <0> d           7.081  -8.757  -1.179  0.00  0.00     0.209 HD
ENDBRANCH  21  22
ENDBRANCH  20  21
ENDBRANCH   5  20
BRANCH   4  24
ATOM     24  C18 <0> d           1.439 -10.370  -0.289  0.00  0.00     0.227 C 
ATOM     25  C22 <0> d           0.918  -9.891  -1.647  0.00  0.00     0.063 C 
ATOM     26  C21 <0> d           0.613 -11.106  -2.527  0.00  0.00     0.236 C 
ATOM     27  N4  <0> d          -0.404 -11.941  -1.877  0.00  0.00    -0.075 N 
ATOM     28  C20 <0> d           0.116 -12.462  -0.607  0.00  0.00     0.236 C 
ATOM     29  C23 <0> d          -0.751 -13.063  -2.760  0.00  0.00     0.269 C 
ATOM     30  H38 <0> d          -1.230 -11.388  -1.700  0.00  0.00     0.279 HD
ATOM     31  C19 <0> d           0.402 -11.300   0.346  0.00  0.00     0.063 C 
ENDBRANCH   4  24
TORSDOF 6
