REMARK  6 active torsions:
REMARK  status: ('A' for Active; 'I' for Inactive)
REMARK    1  A    between atoms: C4_5  and  N2_7 
REMARK       I    between atoms: N2_7  and  C5_8 
REMARK    2  A    between atoms: C5_8  and  C6_10 
REMARK    3  A    between atoms: C10_14  and  C12_16 
REMARK    4  A    between atoms: C12_16  and  N3_17 
REMARK    5  A    between atoms: N3_17  and  C14_19 
REMARK    6  A    between atoms: C14_19  and  C16_21 
ROOT
ATOM      1  C6  <0> d           0.686  -6.293  -0.033  0.00  0.00     0.033 A 
ATOM      2  C7  <0> d           2.063  -6.523  -0.034  0.00  0.00     0.017 A 
ATOM      3  C8  <0> d           2.544  -7.816  -0.042  0.00  0.00     0.002 A 
ATOM      4  C9  <0> d           1.664  -8.884  -0.049  0.00  0.00     0.009 A 
ATOM      5  C10 <0> d           0.298  -8.663  -0.048  0.00  0.00    -0.032 A 
ATOM      6  C11 <0> d          -0.196  -7.375  -0.035  0.00  0.00     0.026 A 
ENDROOT
BRANCH   5   7
ATOM      7  C12 <0> d          -0.652  -9.833  -0.057  0.00  0.00     0.274 C 
BRANCH   7   8
ATOM      8  N3  <0> d          -0.962 -10.222   1.326  0.00  0.00    -0.060 N 
ATOM      9  C13 <0> d           0.257 -10.716   1.980  0.00  0.00     0.271 C 
ATOM     10  H22 <0> d          -1.313  -9.421   1.830  0.00  0.00     0.280 HD
BRANCH   8  11
ATOM     11  C14 <0> d          -1.979 -11.282   1.320  0.00  0.00     0.262 C 
ATOM     12  C15 <0> d          -3.248 -10.767   0.639  0.00  0.00     0.049 C 
BRANCH  11  13
ATOM     13  C16 <0> d          -2.296 -11.681   2.738  0.00  0.00     0.203 A 
ATOM     14  O2  <0> d          -2.508 -10.843   3.760  0.00  0.00    -0.194 OA
ATOM     15  N5  <0> d          -2.773 -11.657   4.893  0.00  0.00    -0.112 NA
ATOM     16  C17 <0> d          -2.695 -12.892   4.488  0.00  0.00     0.152 A 
ATOM     17  N4  <0> d          -2.406 -12.903   3.182  0.00  0.00    -0.207 NA
ATOM     18  C18 <0> d          -2.898 -14.112   5.350  0.00  0.00     0.096 C 
ENDBRANCH  11  13
ENDBRANCH   8  11
ENDBRANCH   7   8
ENDBRANCH   5   7
BRANCH   1  19
ATOM     19  C5  <0> d           0.164  -4.910  -0.024  0.00  0.00     0.257 C 
ATOM     20  N2  <0> d           1.018  -3.868  -0.023  0.00  0.00    -0.301 N 
ATOM     21  H6  <0> d           1.976  -4.025  -0.027  0.00  0.00     0.171 HD
ATOM     22  O1  <0> d          -1.035  -4.713  -0.018  0.00  0.00    -0.267 OA
BRANCH  20  23
ATOM     23  C4  <0> d           0.528  -2.568  -0.014  0.00  0.00     0.173 A 
ATOM     24  N1  <0> d          -0.725  -2.167  -0.007  0.00  0.00    -0.236 NA
ATOM     25  C3  <0> d          -1.030  -0.883   0.002  0.00  0.00     0.133 A 
ATOM     26  C2  <0> d           0.002  -0.004   0.002  0.00  0.00    -0.000 A 
ATOM     27  C1  <0> d          -0.018   1.503   0.010  0.00  0.00     0.058 C 
ATOM     28  S1  <0> d           1.393  -1.124  -0.018  0.00  0.00    -0.056 SA
ENDBRANCH  20  23
ENDBRANCH   1  19
TORSDOF 6
