REMARK  5 active torsions:
REMARK  status: ('A' for Active; 'I' for Inactive)
REMARK    1  A    between atoms: C2_2  and  O1_3 
REMARK    2  A    between atoms: O1_3  and  C3_4 
REMARK    3  A    between atoms: N1_7  and  C8_10 
REMARK    4  A    between atoms: C9_11  and  C15_18 
REMARK    5  A    between atoms: C15_18  and  N3_19 
ROOT
ATOM      1  C8  <0> d           2.980  -5.180   2.504  0.00  0.00     0.140 A 
ATOM      2  C9  <0> d           2.715  -6.555   2.623  0.00  0.00     0.059 A 
ATOM      3  C10 <0> d           3.647  -7.367   3.276  0.00  0.00    -0.042 A 
ATOM      4  C11 <0> d           4.794  -6.778   3.778  0.00  0.00     0.034 A 
ATOM      5  C12 <0> d           4.986  -5.417   3.623  0.00  0.00     0.033 A 
ATOM      6  N2  <0> d           4.096  -4.669   2.998  0.00  0.00    -0.235 NA
ATOM      7  C13 <0> d           6.235  -4.778   4.171  0.00  0.00     0.070 C 
ATOM      8  C14 <0> d           3.409  -8.847   3.429  0.00  0.00     0.049 C 
ENDROOT
BRANCH   1   9
ATOM      9  N1  <0> d           2.072  -4.357   1.862  0.00  0.00    -0.365 N 
ATOM     10  C5  <0> d           2.236  -4.027   0.440  0.00  0.00     0.127 C 
ATOM     11  C4  <0> d           2.217  -2.504   0.282  0.00  0.00     0.051 C 
ATOM     12  C3  <0> d           0.940  -1.945   0.913  0.00  0.00     0.124 C 
ATOM     13  C7  <0> d           0.920  -2.276   2.407  0.00  0.00     0.051 C 
ATOM     14  C6  <0> d           0.925  -3.797   2.589  0.00  0.00     0.127 C 
BRANCH  12  15
ATOM     15  O1  <0> d           0.903  -0.527   0.739  0.00  0.00    -0.386 OA
BRANCH  15  16
ATOM     16  C2  <0> d           0.262  -0.106  -0.466  0.00  0.00     0.163 C 
ATOM     17  C1  <0> d           0.281   1.422  -0.547  0.00  0.00     0.033 C 
ENDBRANCH  15  16
ENDBRANCH  12  15
ENDBRANCH   1   9
BRANCH   2  18
ATOM     18  C15 <0> d           1.474  -7.131   2.068  0.00  0.00     0.107 C 
ATOM     19  N4  <0> d           1.272  -7.136   0.751  0.00  0.00    -0.385 N 
ATOM     20  H23 <0> d           1.940  -6.761   0.156  0.00  0.00     0.157 HD
ATOM     21  H24 <0> d           0.457  -7.515   0.387  0.00  0.00     0.157 HD
BRANCH  18  22
ATOM     22  N3  <0> d           0.556  -7.647   2.885  0.00  0.00    -0.385 N 
ATOM     23  H22 <0> d           0.703  -7.644   3.844  0.00  0.00     0.157 HD
ATOM     24  H25 <0> d          -0.260  -8.026   2.521  0.00  0.00     0.157 HD
ENDBRANCH  18  22
ENDBRANCH   2  18
TORSDOF 5
