REMARK  3 active torsions:
REMARK  status: ('A' for Active; 'I' for Inactive)
REMARK    1  A    between atoms: C6_6  and  C7_7 
REMARK    2  A    between atoms: C9_10  and  C10_13 
REMARK    3  A    between atoms: C10_13  and  C11_14 
ROOT
ATOM      1  C7  <0> d          -1.267  -0.763   0.011  0.00  0.00     0.061 A 
ATOM      2  C8  <0> d          -2.526  -0.246   0.020  0.00  0.00     0.149 A 
ATOM      3  N1  <0> d          -3.390  -1.267   0.025  0.00  0.00    -0.245 NA
ATOM      4  C9  <0> d          -2.733  -2.396   0.019  0.00  0.00     0.106 A 
ATOM      5  N2  <0> d          -1.408  -2.133   0.005  0.00  0.00    -0.343 N 
ATOM      6  H1  <0> d          -0.691  -2.786  -0.006  0.00  0.00     0.167 HD
ENDROOT
BRANCH   1   7
ATOM      7  C6  <0> d           0.002  -0.004   0.002  0.00  0.00    -0.006 A 
ATOM      8  C1  <0> d          -0.017   1.391   0.010  0.00  0.00     0.017 A 
ATOM      9  C2  <0> d           1.170   2.095   0.002  0.00  0.00     0.044 A 
ATOM     10  C3  <0> d           2.379   1.419  -0.013  0.00  0.00     0.133 A 
ATOM     11  C4  <0> d           2.404   0.033  -0.021  0.00  0.00     0.050 A 
ATOM     12  F1  <0> d           3.538   2.114  -0.020  0.00  0.00    -0.205 F 
ATOM     13  C5  <0> d           1.223  -0.681  -0.014  0.00  0.00     0.036 A 
ATOM     14 Br1  <0> d           4.059  -0.881  -0.043  0.00  0.00    -0.048 Br
ENDBRANCH   1   7
BRANCH   4  15
ATOM     15  C10 <0> d          -3.353  -3.769   0.022  0.00  0.00     0.111 C 
BRANCH  15  16
ATOM     16  C11 <0> d          -4.309  -3.895   1.210  0.00  0.00     0.193 C 
ATOM     17  N3  <0> d          -5.443  -2.969   1.041  0.00  0.00    -0.070 N 
ATOM     18  C14 <0> d          -6.690  -3.766   0.967  0.00  0.00     0.233 C 
ATOM     19  H15 <0> d          -5.487  -2.338   1.827  0.00  0.00     0.277 HD
ATOM     20  H16 <0> d          -5.326  -2.440   0.190  0.00  0.00     0.277 HD
ATOM     21  C13 <0> d          -6.358  -5.089   1.700  0.00  0.00     0.029 C 
ATOM     22  C12 <0> d          -4.886  -5.325   1.270  0.00  0.00     0.035 C 
ENDBRANCH  15  16
ENDBRANCH   4  15
TORSDOF 3
