REMARK  3 active torsions:
REMARK  status: ('A' for Active; 'I' for Inactive)
REMARK    1  A    between atoms: C7_7  and  C8_8 
REMARK    2  A    between atoms: C8_8  and  C9_9 
REMARK    3  A    between atoms: C8_8  and  O2_14 
ROOT
ATOM      1  C1  <0> d          -0.018   1.503   0.010  0.00  0.00     0.049 C 
ATOM      2  C2  <0> d           0.002  -0.004   0.002  0.00  0.00    -0.045 A 
ATOM      3  C3  <0> d           0.006  -0.687  -1.199  0.00  0.00    -0.028 A 
ATOM      4  C4  <0> d           0.025  -2.075  -1.205  0.00  0.00     0.047 A 
ATOM      5  C5  <0> d           0.041  -2.772  -0.004  0.00  0.00    -0.030 A 
ATOM      6  C6  <0> d           0.037  -2.084   1.193  0.00  0.00     0.019 A 
ATOM      7  C7  <0> d           0.023  -0.701   1.196  0.00  0.00    -0.020 A 
ATOM      8  C13 <0> d           0.062  -4.279  -0.011  0.00  0.00     0.050 C 
ATOM      9  C14 <0> d          -0.740  -4.795  -1.205  0.00  0.00     0.108 C 
ATOM     10  C15 <0> d          -0.321  -4.072  -2.456  0.00  0.00     0.222 C 
ATOM     11  O3  <0> d          -0.297  -4.667  -3.513  0.00  0.00    -0.273 OA
ATOM     12  N1  <0> d           0.029  -2.773  -2.416  0.00  0.00    -0.326 N 
ATOM     13  C16 <0> d          -0.012   0.073  -2.500  0.00  0.00     0.051 C 
ATOM     14  H18 <0> d           0.285  -2.318  -3.234  0.00  0.00     0.169 HD
ENDROOT
BRANCH   7  15
ATOM     15  C8  <0> d           0.025   0.048   2.504  0.00  0.00     0.180 C 
BRANCH  15  16
ATOM     16  C9  <0> d           1.460   0.431   2.870  0.00  0.00     0.154 C 
ATOM     17  O1  <0> d           2.283  -0.744   2.953  0.00  0.00    -0.383 OA
ATOM     18  C12 <0> d           3.234  -0.599   4.017  0.00  0.00     0.168 C 
ATOM     19  C11 <0> d           2.974   0.764   4.694  0.00  0.00     0.029 C 
ATOM     20  C10 <0> d           1.505   1.059   4.286  0.00  0.00     0.037 C 
ENDBRANCH  15  16
BRANCH  15  21
ATOM     21  O2  <0> d          -0.523  -0.782   3.529  0.00  0.00    -0.388 OA
ATOM     22  H13 <0> d          -0.036  -1.605   3.671  0.00  0.00     0.210 HD
ENDBRANCH  15  21
ENDBRANCH   7  15
TORSDOF 3
