REMARK  8 active torsions:
REMARK  status: ('A' for Active; 'I' for Inactive)
REMARK    1  A    between atoms: C2_2  and  N1_3 
REMARK    2  A    between atoms: N1_3  and  S1_4 
REMARK    3  A    between atoms: S1_4  and  C3_7 
REMARK    4  A    between atoms: C7_11  and  C9_13 
REMARK       I    between atoms: C9_13  and  N2_15 
REMARK    5  A    between atoms: N2_15  and  C10_16 
REMARK    6  A    between atoms: C10_16  and  C11_17 
REMARK    7  A    between atoms: C10_16  and  C15_21 
REMARK    8  A    between atoms: C11_17  and  C12_18 
REMARK       I    between atoms: C15_21  and  N3_23 
ROOT
ATOM      1  C9  <0> d          -2.669  -4.557  -3.760  0.00  0.00     0.252 C 
ATOM      2  O3  <0> d          -2.213  -4.160  -4.814  0.00  0.00    -0.268 OA
ATOM      3  N2  <0> d          -3.773  -5.329  -3.751  0.00  0.00    -0.344 N 
ATOM      4  H11 <0> d          -4.137  -5.646  -2.909  0.00  0.00     0.163 HD
ENDROOT
BRANCH   1   5
ATOM      5  C7  <0> d          -2.010  -4.193  -2.487  0.00  0.00     0.033 A 
ATOM      6  C6  <0> d          -2.530  -4.648  -1.274  0.00  0.00     0.017 A 
ATOM      7  C5  <0> d          -1.911  -4.305  -0.090  0.00  0.00     0.003 A 
ATOM      8  C4  <0> d          -0.777  -3.513  -0.103  0.00  0.00     0.025 A 
ATOM      9  C3  <0> d          -0.256  -3.060  -1.302  0.00  0.00     0.080 A 
ATOM     10  C8  <0> d          -0.869  -3.390  -2.493  0.00  0.00     0.042 A 
BRANCH   9  11
ATOM     11  S1  <0> d           1.189  -2.051  -1.307  0.00  0.00     0.258 S 
ATOM     12  O1  <0> d           1.786  -2.204  -2.588  0.00  0.00    -0.201 OA
ATOM     13  O2  <0> d           1.887  -2.336  -0.102  0.00  0.00    -0.201 OA
BRANCH  11  14
ATOM     14  N1  <0> d           0.688  -0.476  -1.203  0.00  0.00    -0.316 N 
ATOM     15  H6  <0> d           0.848   0.133  -1.941  0.00  0.00     0.172 HD
BRANCH  14  16
ATOM     16  C2  <0> d           0.002  -0.004   0.002  0.00  0.00     0.128 C 
ATOM     17  C1  <0> d          -0.019   1.526   0.010  0.00  0.00     0.027 C 
ENDBRANCH  14  16
ENDBRANCH  11  14
ENDBRANCH   9  11
ENDBRANCH   1   5
BRANCH   3  18
ATOM     18  C10 <0> d          -4.426  -5.689  -5.012  0.00  0.00     0.177 C 
BRANCH  18  19
ATOM     19  C11 <0> d          -5.206  -6.992  -4.828  0.00  0.00     0.038 C 
BRANCH  19  20
ATOM     20  C12 <0> d          -4.231  -8.134  -4.537  0.00  0.00    -0.020 C 
ATOM     21  C13 <0> d          -5.016  -9.411  -4.230  0.00  0.00     0.009 C 
ATOM     22  C14 <0> d          -3.337  -8.366  -5.757  0.00  0.00     0.009 C 
ENDBRANCH  19  20
ENDBRANCH  18  19
BRANCH  18  23
ATOM     23  C15 <0> d          -5.373  -4.590  -5.420  0.00  0.00     0.240 C 
ATOM     24  O4  <0> d          -5.491  -3.603  -4.725  0.00  0.00    -0.271 OA
ATOM     25  N3  <0> d          -6.088  -4.704  -6.556  0.00  0.00    -0.364 N 
ATOM     26  C16 <0> d          -7.008  -3.635  -6.953  0.00  0.00     0.149 C 
ATOM     27  H22 <0> d          -5.993  -5.494  -7.112  0.00  0.00     0.161 HD
ENDBRANCH  18  23
ENDBRANCH   3  18
TORSDOF 8
