REMARK  4 active torsions:
REMARK  status: ('A' for Active; 'I' for Inactive)
REMARK    1  A    between atoms: C2_2  and  N1_4 
REMARK    2  A    between atoms: C7_8  and  N3_11 
REMARK       I    between atoms: N3_11  and  C9_12 
REMARK       I    between atoms: C9_12  and  N4_14 
REMARK    3  A    between atoms: N4_14  and  C10_15 
REMARK    4  A    between atoms: C10_15  and  C11_16 
ROOT
ATOM      1  N3  <0> d          -0.649  -3.676   5.447  0.00  0.00    -0.308 N 
ATOM      2  C9  <0> d           0.033  -3.540   6.601  0.00  0.00     0.321 C 
ATOM      3  O1  <0> d           0.859  -2.655   6.720  0.00  0.00    -0.247 OA
ATOM      4  N4  <0> d          -0.201  -4.385   7.625  0.00  0.00    -0.338 N 
ATOM      5  H10 <0> d          -1.361  -4.331   5.378  0.00  0.00     0.170 HD
ATOM      6  H11 <0> d          -0.859  -5.091   7.531  0.00  0.00     0.164 HD
ENDROOT
BRANCH   1   7
ATOM      7  C7  <0> d          -0.329  -2.870   4.345  0.00  0.00     0.054 A 
ATOM      8  C6  <0> d           0.978  -2.461   4.134  0.00  0.00     0.048 A 
ATOM      9  C5  <0> d           1.242  -1.657   3.018  0.00  0.00     0.033 A 
ATOM     10  C4  <0> d           0.185  -1.298   2.160  0.00  0.00     0.158 A 
ATOM     11  C15 <0> d           2.447  -1.043   2.471  0.00  0.00     0.154 A 
ATOM     12  N1  <0> d           0.732  -0.522   1.171  0.00  0.00    -0.248 N 
ATOM     13  N2  <0> d          -1.049  -1.718   2.411  0.00  0.00    -0.239 NA
ATOM     14  N5  <0> d           2.106  -0.397   1.393  0.00  0.00    -0.182 NA
ATOM     15  C8  <0> d          -1.323  -2.473   3.452  0.00  0.00     0.148 A 
BRANCH  12  16
ATOM     16  C2  <0> d          -0.006   0.076   0.056  0.00  0.00     0.104 C 
ATOM     17  C1  <0> d           0.145   1.598   0.102  0.00  0.00     0.034 C 
ATOM     18  C3  <0> d           0.553  -0.452  -1.267  0.00  0.00     0.034 C 
ENDBRANCH  12  16
ENDBRANCH   1   7
BRANCH   4  19
ATOM     19  C10 <0> d           0.541  -4.238   8.880  0.00  0.00     0.170 C 
BRANCH  19  20
ATOM     20  C11 <0> d           0.096  -5.298   9.854  0.00  0.00     0.001 A 
ATOM     21  S1  <0> d          -1.218  -5.236  11.061  0.00  0.00    -0.103 SA
ATOM     22  C14 <0> d          -1.023  -6.879  11.731  0.00  0.00     0.069 A 
ATOM     23  C13 <0> d           0.020  -7.355  11.007  0.00  0.00     0.018 A 
ATOM     24  C12 <0> d           0.593  -6.545  10.045  0.00  0.00     0.035 A 
ATOM     25 Br1  <0> d           0.680  -9.101  11.308  0.00  0.00    -0.051 Br
ENDBRANCH  19  20
ENDBRANCH   4  19
TORSDOF 4
