REMARK  3 active torsions:
REMARK  status: ('A' for Active; 'I' for Inactive)
REMARK    1  A    between atoms: C4_4  and  N1_9 
REMARK       I    between atoms: N1_9  and  C8_10 
REMARK    2  A    between atoms: C8_10  and  C9_12 
REMARK    3  A    between atoms: C9_12  and  C10_14 
ROOT
ATOM      1  N1  <0> d           0.028  -2.770  -2.417  0.00  0.00    -0.320 N 
ATOM      2  C8  <0> d           0.149  -4.113  -2.425  0.00  0.00     0.294 C 
ATOM      3  O1  <0> d           0.163  -4.727  -1.378  0.00  0.00    -0.264 OA
ATOM      4  H8  <0> d          -0.060  -2.287  -3.253  0.00  0.00     0.169 HD
ENDROOT
BRANCH   1   5
ATOM      5  C4  <0> d           0.031  -2.076  -1.205  0.00  0.00     0.035 A 
ATOM      6  C3  <0> d           0.794  -2.537  -0.140  0.00  0.00     0.037 A 
ATOM      7  C2  <0> d           0.795  -1.848   1.057  0.00  0.00    -0.043 A 
ATOM      8  C1  <0> d           1.622  -2.349   2.213  0.00  0.00     0.049 C 
ATOM      9  C7  <0> d           0.032  -0.703   1.197  0.00  0.00     0.017 A 
ATOM     10  C6  <0> d          -0.725  -0.237   0.136  0.00  0.00     0.022 A 
ATOM     11 Br1  <0> d           0.031   0.234   2.840  0.00  0.00    -0.051 Br
ATOM     12  C5  <0> d          -0.730  -0.922  -1.063  0.00  0.00     0.031 A 
ENDBRANCH   1   5
BRANCH   2  13
ATOM     13  C9  <0> d           0.264  -4.843  -3.719  0.00  0.00     0.244 C 
ATOM     14  O2  <0> d           0.250  -4.232  -4.760  0.00  0.00    -0.284 OA
BRANCH  13  15
ATOM     15  C10 <0> d           0.399  -6.344  -3.727  0.00  0.00     0.210 A 
ATOM     16  N2  <0> d           0.903  -6.801  -5.028  0.00  0.00    -0.284 NA
ATOM     17  C13 <0> d           0.011  -7.578  -5.552  0.00  0.00     0.111 A 
ATOM     18  C12 <0> d          -1.150  -7.715  -4.671  0.00  0.00     0.017 A 
ATOM     19  C11 <0> d          -0.959  -6.992  -3.569  0.00  0.00     0.010 A 
ENDBRANCH  13  15
ENDBRANCH   2  13
TORSDOF 3
