REMARK  7 active torsions:
REMARK  status: ('A' for Active; 'I' for Inactive)
REMARK    1  A    between atoms: C2_2  and  C3_3 
REMARK    2  A    between atoms: C3_3  and  C4_4 
REMARK    3  A    between atoms: C4_4  and  C5_5 
REMARK    4  A    between atoms: C5_5  and  C6_6 
REMARK    5  A    between atoms: C6_6  and  C7_7 
REMARK    6  A    between atoms: C11_11  and  C16_19 
REMARK    7  A    between atoms: C15_17  and  O2_18 
ROOT
ATOM      1  C7  <0> d          -7.241   0.674   0.369  0.00  0.00    -0.024 A 
ATOM      2  C8  <0> d          -6.097   1.409   0.263  0.00  0.00     0.024 A 
ATOM      3  C9  <0> d          -4.850   0.766   0.250  0.00  0.00    -0.001 A 
ATOM      4  C10 <0> d          -3.659   1.530   0.146  0.00  0.00     0.033 A 
ATOM      5  C11 <0> d          -2.444   0.872   0.129  0.00  0.00     0.053 A 
ATOM      6  C12 <0> d          -2.432  -0.598   0.233  0.00  0.00     0.155 A 
ATOM      7  N1  <0> d          -1.297  -1.244   0.225  0.00  0.00    -0.379 N 
ATOM      8  O1  <0> d          -3.593  -1.277   0.336  0.00  0.00    -0.292 OA
ATOM      9  C13 <0> d          -4.783  -0.636   0.347  0.00  0.00     0.090 A 
ATOM     10  C14 <0> d          -5.957  -1.367   0.454  0.00  0.00     0.075 A 
ATOM     11  C15 <0> d          -7.180  -0.715   0.465  0.00  0.00     0.074 A 
ATOM     12  H16 <0> d          -1.287  -2.341   0.303  0.00  0.00     0.158 HD
ATOM     13  H21 <0> d          -0.350  -0.690   0.142  0.00  0.00     0.158 HD
ENDROOT
BRANCH   1  14
ATOM     14  C6  <0> d          -8.579   1.368   0.382  0.00  0.00     0.041 C 
BRANCH  14  15
ATOM     15  C5  <0> d          -9.213   1.280  -1.008  0.00  0.00     0.005 C 
BRANCH  15  16
ATOM     16  C4  <0> d         -10.571   1.984  -0.995  0.00  0.00     0.000 C 
BRANCH  16  17
ATOM     17  C3  <0> d         -11.204   1.896  -2.385  0.00  0.00    -0.000 C 
BRANCH  17  18
ATOM     18  C2  <0> d         -12.562   2.600  -2.372  0.00  0.00    -0.005 C 
ATOM     19  C1  <0> d         -13.196   2.512  -3.761  0.00  0.00     0.005 C 
ENDBRANCH  17  18
ENDBRANCH  16  17
ENDBRANCH  15  16
ENDBRANCH  14  15
ENDBRANCH   1  14
BRANCH  11  20
ATOM     20  O2  <0> d          -8.326  -1.434   0.570  0.00  0.00    -0.360 OA
ATOM     21  H18 <0> d          -8.282  -2.530   0.646  0.00  0.00     0.217 HD
ENDBRANCH  11  20
BRANCH   5  22
ATOM     22  C16 <0> d          -1.187   1.624   0.017  0.00  0.00     0.108 C 
ATOM     23  S1  <0> d           0.299   0.789  -0.141  0.00  0.00    -0.060 SA
ATOM     24  N2  <0> d          -1.204   2.971   0.037  0.00  0.00    -0.389 N 
ATOM     25  H19 <0> d          -0.263   3.535  -0.048  0.00  0.00     0.157 HD
ATOM     26  H20 <0> d          -2.159   3.508   0.138  0.00  0.00     0.157 HD
ENDBRANCH   5  22
TORSDOF 7
