REMARK  8 active torsions:
REMARK  status: ('A' for Active; 'I' for Inactive)
REMARK    1  A    between atoms: C2_2  and  P1_4 
REMARK    2  A    between atoms: P1_4  and  C4_6 
REMARK    3  A    between atoms: P1_4  and  C8_16 
REMARK    4  A    between atoms: C4_6  and  C5_7 
REMARK    5  A    between atoms: C5_7  and  C6_8 
REMARK    6  A    between atoms: C5_7  and  C7_12 
REMARK       I    between atoms: C6_8  and  N1_10 
REMARK    7  A    between atoms: N1_10  and  N2_11 
REMARK       I    between atoms: C7_12  and  N3_14 
REMARK    8  A    between atoms: N3_14  and  N4_15 
ROOT
ATOM      1  C5  <0> d          -3.292   2.210  -3.101  0.00  0.00     0.179 C 
ENDROOT
BRANCH   1   2
ATOM      2  C4  <0> d          -4.573   1.504  -2.652  0.00  0.00     0.098 C 
BRANCH   2   3
ATOM      3  P1  <0> d          -5.727   1.385  -4.058  0.00  0.00     0.086 P 
ATOM      4  O1  <0> d          -5.041   0.753  -5.207  0.00  0.00    -0.321 OA
BRANCH   3   5
ATOM      5  C2  <0> d          -7.167   0.375  -3.580  0.00  0.00     0.043 C 
ATOM      6  C1  <0> d          -8.081   0.183  -4.792  0.00  0.00     0.017 C 
ATOM      7  C3  <0> d          -6.690  -0.990  -3.080  0.00  0.00     0.017 C 
ENDBRANCH   3   5
BRANCH   3   8
ATOM      8  C8  <0> d          -6.286   3.056  -4.528  0.00  0.00     0.043 C 
ATOM      9  C9  <0> d          -6.829   3.778  -3.294  0.00  0.00     0.017 C 
ATOM     10  C10 <0> d          -5.107   3.845  -5.103  0.00  0.00     0.017 C 
ENDBRANCH   3   8
ENDBRANCH   2   3
ENDBRANCH   1   2
BRANCH   1  11
ATOM     11  C6  <0> d          -2.141   1.238  -3.055  0.00  0.00     0.245 C 
ATOM     12  O2  <0> d          -2.327   0.094  -2.698  0.00  0.00    -0.271 OA
ATOM     13  N1  <0> d          -0.905   1.641  -3.410  0.00  0.00    -0.293 N 
ATOM     14  H11 <0> d          -0.757   2.557  -3.696  0.00  0.00     0.183 HD
BRANCH  13  15
ATOM     15  N2  <0> d           0.139   0.761  -3.369  0.00  0.00    -0.247 NA
ATOM     16  H12 <0> d          -0.055  -0.056  -3.927  0.00  0.00     0.143 HD
ATOM     17  H13 <0> d           0.997   1.204  -3.661  0.00  0.00     0.143 HD
ENDBRANCH  13  15
ENDBRANCH   1  11
BRANCH   1  18
ATOM     18  C7  <0> d          -3.009   3.369  -2.181  0.00  0.00     0.245 C 
ATOM     19  O3  <0> d          -2.102   3.299  -1.379  0.00  0.00    -0.271 OA
ATOM     20  N3  <0> d          -3.763   4.484  -2.249  0.00  0.00    -0.293 N 
ATOM     21  H14 <0> d          -4.535   4.512  -2.836  0.00  0.00     0.183 HD
BRANCH  20  22
ATOM     22  N4  <0> d          -3.440   5.575  -1.493  0.00  0.00    -0.247 NA
ATOM     23  H15 <0> d          -2.493   5.872  -1.673  0.00  0.00     0.143 HD
ATOM     24  H16 <0> d          -4.092   6.329  -1.649  0.00  0.00     0.143 HD
ENDBRANCH  20  22
ENDBRANCH   1  18
TORSDOF 8
