REMARK  9 active torsions:
REMARK  status: ('A' for Active; 'I' for Inactive)
REMARK    1  A    between atoms: C4_4  and  C7_7 
REMARK    2  A    between atoms: C7_7  and  C8_8 
REMARK    3  A    between atoms: C8_8  and  N1_9 
REMARK    4  A    between atoms: N1_9  and  C9_10 
REMARK       I    between atoms: N1_9  and  C16_17 
REMARK    5  A    between atoms: C9_10  and  C10_11 
REMARK    6  A    between atoms: C16_17  and  C17_19 
REMARK    7  A    between atoms: C17_19  and  S1_20 
REMARK    8  A    between atoms: S1_20  and  C18_21 
REMARK    9  A    between atoms: C18_21  and  N3_23 
ROOT
ATOM      1  N1  <0> d          -0.020   1.094   2.454  0.00  0.00    -0.347 N 
ATOM      2  C16 <0> d           0.967   1.833   2.998  0.00  0.00     0.229 C 
ATOM      3  O1  <0> d           1.553   1.431   3.981  0.00  0.00    -0.273 OA
ENDROOT
BRANCH   1   4
ATOM      4  C8  <0> d          -0.729   1.579   1.267  0.00  0.00     0.130 C 
BRANCH   4   5
ATOM      5  C7  <0> d          -0.013   1.086   0.008  0.00  0.00     0.058 C 
BRANCH   5   6
ATOM      6  C4  <0> d          -0.742   1.585  -1.213  0.00  0.00    -0.057 A 
ATOM      7  C3  <0> d          -0.398   2.801  -1.774  0.00  0.00     0.007 A 
ATOM      8  C2  <0> d          -1.066   3.259  -2.894  0.00  0.00     0.001 A 
ATOM      9  C1  <0> d          -2.079   2.501  -3.453  0.00  0.00     0.000 A 
ATOM     10  C6  <0> d          -2.422   1.285  -2.892  0.00  0.00     0.001 A 
ATOM     11  C5  <0> d          -1.750   0.825  -1.775  0.00  0.00     0.007 A 
ENDBRANCH   5   6
ENDBRANCH   4   5
ENDBRANCH   1   4
BRANCH   1  12
ATOM     12  C9  <0> d          -0.384  -0.195   3.048  0.00  0.00     0.164 C 
BRANCH  12  13
ATOM     13  C10 <0> d           0.439  -1.289   2.419  0.00  0.00    -0.040 A 
ATOM     14  C15 <0> d           1.657  -1.641   2.970  0.00  0.00     0.009 A 
ATOM     15  C14 <0> d           2.412  -2.645   2.393  0.00  0.00     0.001 A 
ATOM     16  C13 <0> d           1.950  -3.296   1.266  0.00  0.00     0.000 A 
ATOM     17  C12 <0> d           0.732  -2.945   0.715  0.00  0.00     0.001 A 
ATOM     18  C11 <0> d          -0.026  -1.944   1.295  0.00  0.00     0.009 A 
ENDBRANCH  12  13
ENDBRANCH   1  12
BRANCH   2  19
ATOM     19  C17 <0> d           1.341   3.158   2.387  0.00  0.00     0.185 C 
BRANCH  19  20
ATOM     20  S1  <0> d           2.689   3.902   3.338  0.00  0.00    -0.086 SA
BRANCH  20  21
ATOM     21  C18 <0> d           2.917   5.395   2.429  0.00  0.00     0.131 C 
ATOM     22  N2  <0> d           2.174   5.644   1.387  0.00  0.00    -0.380 N 
ATOM     23  H19 <0> d           2.316   6.575   0.820  0.00  0.00     0.158 HD
ATOM     24  H22 <0> d           1.404   4.923   1.076  0.00  0.00     0.158 HD
BRANCH  21  25
ATOM     25  N3  <0> d           3.880   6.297   2.819  0.00  0.00    -0.380 N 
ATOM     26  H20 <0> d           4.023   7.228   2.252  0.00  0.00     0.158 HD
ATOM     27  H21 <0> d           4.507   6.087   3.698  0.00  0.00     0.158 HD
ENDBRANCH  21  25
ENDBRANCH  20  21
ENDBRANCH  19  20
ENDBRANCH   2  19
TORSDOF 9
