REMARK  3 active torsions:
REMARK  status: ('A' for Active; 'I' for Inactive)
REMARK    1  A    between atoms: C5_6  and  C6_7 
REMARK    2  A    between atoms: C14_20  and  C15_21 
REMARK    3  A    between atoms: C15_21  and  O4_23 
ROOT
ATOM      1  C6  <0> d          -0.090   1.392  -0.004  0.00  0.00     0.109 C 
ATOM      2  C7  <0> d           1.255   2.062   0.029  0.00  0.00     0.068 A 
ATOM      3  C8  <0> d           2.388   1.380  -0.299  0.00  0.00     0.124 A 
ATOM      4  N1  <0> d           3.601   2.026  -0.265  0.00  0.00    -0.289 N 
ATOM      5  C9  <0> d           3.672   3.320   0.094  0.00  0.00     0.332 A 
ATOM      6  O1  <0> d           4.753   3.876   0.119  0.00  0.00    -0.246 OA
ATOM      7  N2  <0> d           2.565   4.009   0.425  0.00  0.00    -0.270 N 
ATOM      8  C10 <0> d           1.356   3.414   0.402  0.00  0.00     0.262 A 
ATOM      9  O2  <0> d           0.356   4.044   0.703  0.00  0.00    -0.267 OA
ATOM     10  C11 <0> d           2.674   5.417   0.814  0.00  0.00     0.164 C 
ATOM     11  C12 <0> d           4.823   1.300  -0.620  0.00  0.00     0.163 C 
ATOM     12  N3  <0> d           2.325   0.056  -0.661  0.00  0.00    -0.345 N 
ATOM     13  C13 <0> d           1.220  -0.691  -0.358  0.00  0.00     0.020 C 
ATOM     14  C14 <0> d           0.056  -0.102  -0.037  0.00  0.00     0.053 C 
ATOM     15  C17 <0> d           1.309  -2.195  -0.384  0.00  0.00     0.069 C 
ATOM     16  H13 <0> d           3.068  -0.351  -1.134  0.00  0.00     0.167 HD
ENDROOT
BRANCH   1  17
ATOM     17  C5  <0> d          -0.838   1.844  -1.232  0.00  0.00     0.002 A 
ATOM     18  C2  <0> d          -2.014   2.513  -1.317  0.00  0.00    -0.047 A 
ATOM     19  C1  <0> d          -2.761   2.908  -0.069  0.00  0.00     0.049 C 
ATOM     20  C3  <0> d          -2.518   2.827  -2.565  0.00  0.00     0.015 A 
ATOM     21  C4  <0> d          -1.821   2.457  -3.667  0.00  0.00     0.051 A 
ATOM     22  S1  <0> d          -0.402   1.644  -2.951  0.00  0.00    -0.105 SA
ENDBRANCH   1  17
BRANCH  14  23
ATOM     23  C15 <0> d          -1.061  -0.910   0.279  0.00  0.00     0.291 C 
ATOM     24  O3  <0> d          -0.992  -2.119   0.154  0.00  0.00    -0.260 OA
BRANCH  23  25
ATOM     25  O4  <0> d          -2.203  -0.341   0.718  0.00  0.00    -0.323 OA
ATOM     26  C16 <0> d          -3.291  -1.218   1.018  0.00  0.00     0.213 C 
ENDBRANCH  23  25
ENDBRANCH  14  23
TORSDOF 3
