REMARK  5 active torsions:
REMARK  status: ('A' for Active; 'I' for Inactive)
REMARK    1  A    between atoms: C5_5  and  C6_7 
REMARK    2  A    between atoms: C6_7  and  N3_29 
REMARK    3  A    between atoms: C9_10  and  C12_13 
REMARK    4  A    between atoms: C12_13  and  C15_20 
REMARK    5  A    between atoms: C15_20  and  C16_21 
ROOT
ATOM      1  C12 <0> d           1.221  -2.689  -1.465  0.00  0.00     0.123 A 
ATOM      2  C13 <0> d           2.487  -2.266  -2.184  0.00  0.00     0.254 A 
ATOM      3  O2  <0> d           3.627  -2.568  -1.900  0.00  0.00    -0.270 OA
ATOM      4  N1  <0> d           2.083  -1.484  -3.204  0.00  0.00    -0.277 N 
ATOM      5  C14 <0> d           0.751  -1.355  -3.230  0.00  0.00     0.323 A 
ATOM      6  O3  <0> d           0.152  -0.697  -4.058  0.00  0.00    -0.247 OA
ATOM      7  N2  <0> d           0.150  -2.034  -2.236  0.00  0.00    -0.324 N 
ATOM      8  H17 <0> d           2.683  -1.065  -3.841  0.00  0.00     0.173 HD
ATOM      9  H18 <0> d          -0.803  -2.084  -2.062  0.00  0.00     0.165 HD
ENDROOT
BRANCH   1  10
ATOM     10  C9  <0> d           1.064  -4.210  -1.503  0.00  0.00     0.027 C 
ATOM     11  C8  <0> d           1.187  -4.702  -2.948  0.00  0.00     0.035 C 
ATOM     12  C7  <0> d           1.090  -6.229  -2.972  0.00  0.00     0.235 C 
ATOM     13  N3  <0> d           2.188  -6.793  -2.158  0.00  0.00    -0.065 N 
ATOM     14  C11 <0> d           2.036  -6.382  -0.746  0.00  0.00     0.235 C 
ATOM     15  H26 <0> d           3.083  -6.437  -2.514  0.00  0.00     0.280 HD
ATOM     16  C10 <0> d           2.161  -4.859  -0.654  0.00  0.00     0.035 C 
BRANCH  13  17
ATOM     17  C6  <0> d           2.184  -8.267  -2.258  0.00  0.00     0.299 C 
BRANCH  17  18
ATOM     18  C5  <0> d           3.122  -8.834  -1.224  0.00  0.00     0.079 A 
ATOM     19  C4  <0> d           2.787  -9.197   0.027  0.00  0.00     0.037 A 
ATOM     20  C3  <0> d           3.966  -9.672   0.646  0.00  0.00     0.035 A 
ATOM     21  C2  <0> d           4.951  -9.571  -0.264  0.00  0.00     0.049 A 
ATOM     22  C1  <0> d           6.391  -9.962  -0.050  0.00  0.00     0.076 C 
ATOM     23  O1  <0> d           4.433  -9.069  -1.396  0.00  0.00    -0.318 OA
ENDBRANCH  17  18
ENDBRANCH  13  17
ENDBRANCH   1  10
BRANCH   1  24
ATOM     24  C15 <0> d           1.229  -2.186  -0.021  0.00  0.00     0.080 C 
BRANCH  24  25
ATOM     25  C16 <0> d           1.208  -0.679  -0.013  0.00  0.00    -0.055 A 
ATOM     26  C21 <0> d           2.396   0.029  -0.021  0.00  0.00     0.007 A 
ATOM     27  C20 <0> d           2.377   1.411  -0.015  0.00  0.00     0.001 A 
ATOM     28  C19 <0> d           1.171   2.086   0.002  0.00  0.00     0.000 A 
ATOM     29  C18 <0> d          -0.017   1.378   0.010  0.00  0.00     0.001 A 
ATOM     30  C17 <0> d           0.002  -0.004   0.002  0.00  0.00     0.007 A 
ENDBRANCH  24  25
ENDBRANCH   1  24
TORSDOF 5
