REMARK  5 active torsions:
REMARK  status: ('A' for Active; 'I' for Inactive)
REMARK    1  A    between atoms: C2_2  and  C3_3 
REMARK    2  A    between atoms: C3_3  and  C4_4 
REMARK    3  A    between atoms: C3_3  and  N3_18 
REMARK    4  A    between atoms: C4_4  and  C5_5 
REMARK    5  A    between atoms: C4_4  and  N1_11 
ROOT
ATOM      1  C4  <0> d           0.630  -2.023  -1.329  0.00  0.00     0.180 C 
ENDROOT
BRANCH   1   2
ATOM      2  C3  <0> d           0.718  -0.497  -1.257  0.00  0.00     0.213 C 
BRANCH   2   3
ATOM      3  C2  <0> d           0.002  -0.004   0.002  0.00  0.00     0.031 C 
ATOM      4  C1  <0> d          -0.019   1.526   0.010  0.00  0.00     0.007 C 
ENDBRANCH   2   3
BRANCH   2   5
ATOM      5  N3  <0> d           2.129  -0.090  -1.209  0.00  0.00    -0.073 N 
ATOM      6  H17 <0> d           2.567  -0.491  -0.394  0.00  0.00     0.274 HD
ATOM      7  H18 <0> d           2.601  -0.415  -2.039  0.00  0.00     0.274 HD
ATOM      8  H19 <0> d           2.187   0.916  -1.162  0.00  0.00     0.274 HD
ENDBRANCH   2   5
ENDBRANCH   1   2
BRANCH   1   9
ATOM      9  C5  <0> d          -0.817  -2.441  -1.377  0.00  0.00     0.011 A 
ATOM     10  S1  <0> d          -2.065  -2.032  -2.586  0.00  0.00    -0.103 SA
ATOM     11  C8  <0> d          -3.423  -2.936  -1.862  0.00  0.00     0.069 A 
ATOM     12  C7  <0> d          -2.846  -3.474  -0.760  0.00  0.00     0.018 A 
ATOM     13  C6  <0> d          -1.510  -3.221  -0.511  0.00  0.00     0.036 A 
ATOM     14 Br1  <0> d          -3.853  -4.556   0.420  0.00  0.00    -0.051 Br
ENDBRANCH   1   9
BRANCH   1  15
ATOM     15  N1  <0> d           1.316  -2.496  -2.534  0.00  0.00    -0.262 N 
ATOM     16  N2  <0> d           0.992  -2.155  -3.853  0.00  0.00    -0.177 NA
ATOM     17  C11 <0> d           1.828  -2.768  -4.651  0.00  0.00     0.053 A 
ATOM     18  C10 <0> d           2.705  -3.526  -3.867  0.00  0.00     0.055 A 
ATOM     19  C12 <0> d           1.841  -2.679  -6.155  0.00  0.00     0.072 C 
ATOM     20  C9  <0> d           2.368  -3.340  -2.569  0.00  0.00     0.029 A 
ATOM     21  C13 <0> d           3.047  -3.965  -1.377  0.00  0.00     0.070 C 
ENDBRANCH   1  15
TORSDOF 5
