REMARK  2 active torsions:
REMARK  status: ('A' for Active; 'I' for Inactive)
REMARK    1  A    between atoms: C4_4  and  C7_7 
REMARK    2  A    between atoms: C8_8  and  O4_17 
ROOT
ATOM      1  C7  <0> d           0.002  -0.004   0.002  0.00  0.00     0.186 C 
ATOM      2  C8  <0> d          -0.239  -0.544   1.440  0.00  0.00     0.184 C 
ATOM      3  C9  <0> d          -1.135  -1.759   1.153  0.00  0.00     0.196 C 
ATOM      4  C10 <0> d          -1.994  -1.164   0.003  0.00  0.00     0.177 C 
ATOM      5  O1  <0> d          -1.068  -0.506  -0.834  0.00  0.00    -0.367 OA
ATOM      6  C11 <0> d          -2.893  -2.226  -0.507  0.00  0.00     0.013 C 
ATOM      7  C12 <0> d          -3.330  -3.150   0.365  0.00  0.00     0.081 C 
ATOM      8  C13 <0> d          -2.923  -3.103   1.780  0.00  0.00     0.283 C 
ATOM      9  O2  <0> d          -3.354  -3.922   2.568  0.00  0.00    -0.260 OA
ATOM     10  O3  <0> d          -2.056  -2.132   2.202  0.00  0.00    -0.307 OA
ENDROOT
BRANCH   1  11
ATOM     11  C4  <0> d          -0.018   1.503   0.010  0.00  0.00    -0.027 A 
ATOM     12  C3  <0> d           1.169   2.210   0.003  0.00  0.00     0.010 A 
ATOM     13  C2  <0> d           1.151   3.592   0.010  0.00  0.00     0.001 A 
ATOM     14  C1  <0> d          -0.056   4.267   0.025  0.00  0.00     0.000 A 
ATOM     15  C6  <0> d          -1.244   3.560   0.033  0.00  0.00     0.001 A 
ATOM     16  C5  <0> d          -1.225   2.178   0.020  0.00  0.00     0.010 A 
ENDBRANCH   1  11
BRANCH   2  17
ATOM     17  O4  <0> d           0.990  -0.943   2.053  0.00  0.00    -0.390 OA
ATOM     18  H12 <0> d           1.628  -0.224   2.156  0.00  0.00     0.210 HD
ENDBRANCH   2  17
TORSDOF 2
