REMARK  5 active torsions:
REMARK  status: ('A' for Active; 'I' for Inactive)
REMARK    1  A    between atoms: C7_9  and  S1_15 
REMARK    2  A    between atoms: S1_15  and  N3_18 
REMARK    3  A    between atoms: N3_18  and  C11_19 
REMARK    4  A    between atoms: C13_21  and  O6_27 
REMARK    5  A    between atoms: C15_23  and  O5_25 
ROOT
ATOM      1  C1  <0> d          -0.136  -0.697  -0.698  0.00  0.00     0.030 C 
ATOM      2  C2  <0> d          -0.098   0.813  -0.944  0.00  0.00     0.166 C 
ATOM      3  C3  <0> d          -0.914   1.150  -2.166  0.00  0.00     0.235 C 
ATOM      4  O1  <0> d          -0.386   1.727  -3.093  0.00  0.00    -0.272 OA
ATOM      5  N1  <0> d          -2.203   0.827  -2.245  0.00  0.00    -0.324 N 
ATOM      6  C4  <0> d          -2.924   0.129  -1.281  0.00  0.00     0.061 A 
ATOM      7  C5  <0> d          -3.817  -0.842  -1.740  0.00  0.00     0.033 A 
ATOM      8  C6  <0> d          -4.573  -1.579  -0.855  0.00  0.00     0.028 A 
ATOM      9  C7  <0> d          -4.450  -1.360   0.505  0.00  0.00     0.082 A 
ATOM     10  C8  <0> d          -3.572  -0.405   0.970  0.00  0.00     0.057 A 
ATOM     11  C9  <0> d          -2.800   0.348   0.082  0.00  0.00     0.063 A 
ATOM     12  N2  <0> d          -1.939   1.289   0.639  0.00  0.00    -0.324 N 
ATOM     13  C10 <0> d          -0.695   1.535   0.236  0.00  0.00     0.235 C 
ATOM     14  O2  <0> d          -0.029   2.356   0.831  0.00  0.00    -0.272 OA
ATOM     15  H5  <0> d          -2.680   1.100  -3.044  0.00  0.00     0.169 HD
ATOM     16  H9  <0> d          -2.276   1.810   1.384  0.00  0.00     0.169 HD
ENDROOT
BRANCH   9  17
ATOM     17  S1  <0> d          -5.415  -2.299   1.641  0.00  0.00     0.263 S 
ATOM     18  O3  <0> d          -5.865  -3.449   0.938  0.00  0.00    -0.200 OA
ATOM     19  O4  <0> d          -4.658  -2.388   2.841  0.00  0.00    -0.200 OA
BRANCH  17  20
ATOM     20  N3  <0> d          -6.762  -1.404   1.997  0.00  0.00    -0.280 N 
ATOM     21  H10 <0> d          -6.913  -1.095   2.904  0.00  0.00     0.179 HD
BRANCH  20  22
ATOM     22  C11 <0> d          -7.680  -1.095   0.992  0.00  0.00     0.048 A 
ATOM     23  C16 <0> d          -8.537  -2.075   0.507  0.00  0.00     0.067 A 
ATOM     24  C15 <0> d          -9.448  -1.766  -0.490  0.00  0.00     0.073 A 
ATOM     25  C14 <0> d          -9.505  -0.480  -1.005  0.00  0.00     0.073 A 
ATOM     26  C13 <0> d          -8.650   0.500  -0.522  0.00  0.00     0.073 A 
ATOM     27  C12 <0> d          -7.741   0.195   0.479  0.00  0.00     0.067 A 
BRANCH  24  28
ATOM     28  O5  <0> d         -10.287  -2.725  -0.965  0.00  0.00    -0.356 OA
ATOM     29  C17 <0> d         -11.200  -2.338  -1.993  0.00  0.00     0.210 C 
ENDBRANCH  24  28
BRANCH  26  30
ATOM     30  O6  <0> d          -8.707   1.760  -1.027  0.00  0.00    -0.356 OA
ATOM     31  C18 <0> d          -9.670   2.005  -2.054  0.00  0.00     0.210 C 
ENDBRANCH  26  30
ENDBRANCH  20  22
ENDBRANCH  17  20
ENDBRANCH   9  17
TORSDOF 5
