REMARK  6 active torsions:
REMARK  status: ('A' for Active; 'I' for Inactive)
REMARK    1  A    between atoms: C8_11  and  C9_13 
REMARK    2  A    between atoms: C9_13  and  N3_14 
REMARK    3  A    between atoms: N3_14  and  C10_15 
REMARK    4  A    between atoms: N3_14  and  C14_19 
REMARK    5  A    between atoms: C10_15  and  C11_16 
REMARK    6  A    between atoms: C14_19  and  C15_20 
ROOT
ATOM      1  C1  <0> d           5.308  -5.972   5.020  0.00  0.00     0.002 A 
ATOM      2  C2  <0> d           6.115  -4.843   5.060  0.00  0.00     0.002 A 
ATOM      3  C3  <0> d           6.171  -3.990   3.997  0.00  0.00     0.034 A 
ATOM      4  C4  <0> d           5.409  -4.250   2.848  0.00  0.00     0.084 A 
ATOM      5  C5  <0> d           4.591  -5.394   2.808  0.00  0.00     0.064 A 
ATOM      6  C6  <0> d           4.549  -6.250   3.905  0.00  0.00     0.032 A 
ATOM      7  N1  <0> d           3.836  -5.663   1.684  0.00  0.00    -0.320 N 
ATOM      8  H1  <0> d           3.269  -6.450   1.648  0.00  0.00     0.169 HD
ATOM      9  C7  <0> d           3.897  -4.814   0.636  0.00  0.00     0.272 A 
ATOM     10  O1  <0> d           3.242  -5.025  -0.368  0.00  0.00    -0.266 OA
ATOM     11  C8  <0> d           4.763  -3.633   0.722  0.00  0.00     0.128 A 
ATOM     12  N2  <0> d           5.463  -3.409   1.797  0.00  0.00    -0.244 NA
ENDROOT
BRANCH  11  13
ATOM     13  C9  <0> d           4.844  -2.674  -0.439  0.00  0.00     0.300 C 
BRANCH  13  14
ATOM     14  N3  <0> d           5.878  -1.667  -0.171  0.00  0.00    -0.056 N 
ATOM     15  H17 <0> d           5.702  -1.233   0.723  0.00  0.00     0.281 HD
BRANCH  14  16
ATOM     16  C10 <0> d           7.197  -2.313  -0.150  0.00  0.00     0.240 C 
BRANCH  16  17
ATOM     17  C11 <0> d           8.261  -1.289   0.252  0.00  0.00     0.011 A 
ATOM     18  C13 <0> d           9.692  -1.795   0.445  0.00  0.00     0.007 A 
ATOM     19  C12 <0> d           9.339  -0.949  -0.779  0.00  0.00     0.007 A 
ENDBRANCH  16  17
ENDBRANCH  14  16
BRANCH  14  20
ATOM     20  C14 <0> d           5.851  -0.644  -1.225  0.00  0.00     0.347 C 
BRANCH  20  21
ATOM     21  C15 <0> d           4.558   0.126  -1.143  0.00  0.00     0.199 C 
ATOM     22  O2  <0> d           3.786  -0.074  -0.221  0.00  0.00    -0.647 OA
ATOM     23  O3  <0> d           4.284   0.950  -2.000  0.00  0.00    -0.647 OA
ENDBRANCH  20  21
ENDBRANCH  14  20
ENDBRANCH  13  14
ENDBRANCH  11  13
TORSDOF 6
