REMARK  8 active torsions:
REMARK  status: ('A' for Active; 'I' for Inactive)
REMARK    1  A    between atoms: O1_2  and  C2_3 
REMARK    2  A    between atoms: C2_3  and  C3_4 
REMARK    3  A    between atoms: C3_4  and  N1_5 
REMARK    4  A    between atoms: N1_5  and  C4_6 
REMARK    5  A    between atoms: N2_8  and  C5_9 
REMARK    6  A    between atoms: C5_9  and  C6_10 
REMARK    7  A    between atoms: C12_16  and  C13_17 
REMARK    8  A    between atoms: C13_17  and  N4_26 
ROOT
ATOM      1  C6  <0> d           0.641  -0.517  -1.218  0.00  0.00     0.206 C 
ATOM      2  C7  <0> d           2.098  -0.045  -1.264  0.00  0.00     0.040 C 
ATOM      3  C8  <0> d           2.385   0.800  -0.016  0.00  0.00    -0.004 C 
ATOM      4  C9  <0> d           2.140  -0.065   1.227  0.00  0.00     0.032 C 
ATOM      5  C10 <0> d           0.664  -0.530   1.204  0.00  0.00     0.236 C 
ATOM      6  C11 <0> d          -0.018   1.465   0.010  0.00  0.00     0.242 C 
ATOM      7  C12 <0> d           1.420   1.992  -0.001  0.00  0.00     0.041 C 
ATOM      8  N3  <0> d          -0.025  -0.014   0.002  0.00  0.00    -0.065 N 
ATOM      9  H33 <0> d          -0.998  -0.342   0.010  0.00  0.00     0.280 HD
ENDROOT
BRANCH   1  10
ATOM     10  C5  <0> d          -0.105   0.010  -2.445  0.00  0.00     0.155 C 
BRANCH  10  11
ATOM     11  N2  <0> d          -1.524  -0.337  -2.340  0.00  0.00    -0.365 N 
ATOM     12  C4  <0> d          -2.381   0.027  -3.314  0.00  0.00     0.167 C 
ATOM     13  S1  <0> d          -1.811   0.895  -4.675  0.00  0.00    -0.041 SA
ATOM     14  H12 <0> d          -1.847  -0.829  -1.569  0.00  0.00     0.161 HD
BRANCH  12  15
ATOM     15  N1  <0> d          -3.687  -0.293  -3.217  0.00  0.00    -0.365 N 
ATOM     16  H11 <0> d          -4.010  -0.785  -2.446  0.00  0.00     0.161 HD
BRANCH  15  17
ATOM     17  C3  <0> d          -4.618   0.103  -4.277  0.00  0.00     0.148 C 
BRANCH  17  18
ATOM     18  C2  <0> d          -6.027  -0.379  -3.924  0.00  0.00     0.186 C 
BRANCH  18  19
ATOM     19  O1  <0> d          -6.481   0.297  -2.749  0.00  0.00    -0.394 OA
ATOM     20  C1  <0> d          -7.794  -0.083  -2.331  0.00  0.00     0.201 C 
ENDBRANCH  18  19
ENDBRANCH  17  18
ENDBRANCH  15  17
ENDBRANCH  12  15
ENDBRANCH  10  11
ENDBRANCH   1  10
BRANCH   7  21
ATOM     21  C13 <0> d           1.642   2.848  -1.249  0.00  0.00     0.241 C 
BRANCH  21  22
ATOM     22  N4  <0> d           0.787   4.071  -1.180  0.00  0.00    -0.071 N 
ATOM     23  C14 <0> d           0.987   4.764   0.103  0.00  0.00     0.235 C 
ATOM     24  C15 <0> d           0.466   6.190  -0.208  0.00  0.00     0.029 C 
ATOM     25  C16 <0> d           0.933   6.419  -1.663  0.00  0.00     0.029 C 
ATOM     26  C17 <0> d           1.148   5.009  -2.244  0.00  0.00     0.235 C 
ATOM     27  H34 <0> d          -0.198   3.799  -1.277  0.00  0.00     0.279 HD
ENDBRANCH  21  22
ENDBRANCH   7  21
TORSDOF 8
