REMARK  4 active torsions:
REMARK  status: ('A' for Active; 'I' for Inactive)
REMARK    1  A    between atoms: C4_4  and  N3_14 
REMARK    2  A    between atoms: N1_5  and  C5_7 
REMARK    3  A    between atoms: N3_14  and  S2_15 
REMARK    4  A    between atoms: S2_15  and  C9_18 
ROOT
ATOM      1  C1  <0> d          -0.018   1.503   0.010  0.00  0.00     0.072 C 
ATOM      2  C2  <0> d           0.002  -0.004   0.002  0.00  0.00     0.054 A 
ATOM      3  C3  <0> d           0.008  -0.816  -1.136  0.00  0.00     0.079 A 
ATOM      4  C4  <0> d           0.027  -2.113  -0.721  0.00  0.00     0.136 A 
ATOM      5  N1  <0> d           0.034  -2.110   0.631  0.00  0.00    -0.247 N 
ATOM      6  N2  <0> d           0.023  -0.776   1.058  0.00  0.00    -0.175 NA
ENDROOT
BRANCH   4   7
ATOM      7  N3  <0> d           0.038  -3.238  -1.541  0.00  0.00    -0.264 N 
ATOM      8  H12 <0> d           0.052  -4.125  -1.147  0.00  0.00     0.180 HD
BRANCH   7   9
ATOM      9  S2  <0> d           0.028  -3.063  -3.188  0.00  0.00     0.270 S 
ATOM     10  O3  <0> d           0.070  -4.374  -3.736  0.00  0.00    -0.200 OA
ATOM     11  O4  <0> d          -1.011  -2.143  -3.492  0.00  0.00    -0.200 OA
BRANCH   9  12
ATOM     12  C9  <0> d           1.541  -2.281  -3.638  0.00  0.00     0.120 A 
ATOM     13  S3  <0> d           1.905  -0.540  -3.790  0.00  0.00    -0.088 SA
ATOM     14  C12 <0> d           3.619  -0.681  -4.269  0.00  0.00     0.051 A 
ATOM     15  C11 <0> d           3.795  -2.025  -4.288  0.00  0.00     0.009 A 
ATOM     16  C10 <0> d           2.730  -2.845  -3.964  0.00  0.00     0.033 A 
ENDBRANCH   9  12
ENDBRANCH   7   9
ENDBRANCH   4   7
BRANCH   5  17
ATOM     17  C5  <0> d           0.053  -3.292   1.496  0.00  0.00     0.127 C 
ATOM     18  C8  <0> d          -1.219  -3.304   2.378  0.00  0.00     0.167 C 
ATOM     19  S1  <0> d          -0.634  -4.115   3.921  0.00  0.00     0.146 S 
ATOM     20  C7  <0> d           1.146  -4.330   3.496  0.00  0.00     0.142 C 
ATOM     21  O1  <0> d          -1.242  -5.394   4.031  0.00  0.00    -0.228 OA
ATOM     22  O2  <0> d          -0.744  -3.194   4.998  0.00  0.00    -0.228 OA
ATOM     23  C6  <0> d           1.306  -3.253   2.386  0.00  0.00     0.043 C 
ENDBRANCH   5  17
TORSDOF 4
