REMARK  4 active torsions:
REMARK  status: ('A' for Active; 'I' for Inactive)
REMARK    1  A    between atoms: C3_3  and  C5_6 
REMARK    2  A    between atoms: C7_8  and  C15_20 
REMARK    3  A    between atoms: C9_10  and  N3_19 
REMARK    4  A    between atoms: C10_11  and  C12_15 
ROOT
ATOM      1  C5  <0> d           0.913   5.129   0.020  0.00  0.00     0.076 A 
ATOM      2  C6  <0> d           2.291   5.387   0.008  0.00  0.00     0.050 A 
ATOM      3  C7  <0> d           2.752   6.667   0.010  0.00  0.00     0.065 A 
ATOM      4  C8  <0> d           1.823   7.740   0.024  0.00  0.00     0.043 A 
ATOM      5  C9  <0> d           2.090   9.169   0.029  0.00  0.00     0.061 A 
ATOM      6  C10 <0> d           1.022  10.035   0.044  0.00  0.00     0.077 A 
ATOM      7  S2  <0> d          -0.390   8.949   0.052  0.00  0.00    -0.064 SA
ATOM      8  C11 <0> d           0.454   7.386   0.036  0.00  0.00     0.112 A 
ATOM      9  N1  <0> d           0.046   6.137   0.028  0.00  0.00    -0.239 NA
ENDROOT
BRANCH   6  10
ATOM     10  C12 <0> d           1.041  11.501   0.051  0.00  0.00     0.116 A 
ATOM     11  N2  <0> d          -0.102  12.264   0.061  0.00  0.00    -0.374 N 
ATOM     12  C14 <0> d           0.290  13.684   0.069  0.00  0.00     0.141 A 
ATOM     13  H9  <0> d          -1.011  11.926   0.064  0.00  0.00     0.161 HD
ATOM     14  C13 <0> d           1.830  13.630   0.053  0.00  0.00     0.141 A 
ATOM     15  N4  <0> d           2.143  12.193   0.043  0.00  0.00    -0.374 N 
ATOM     16  H12 <0> d           3.090  11.795   0.031  0.00  0.00     0.161 HD
ENDBRANCH   6  10
BRANCH   5  17
ATOM     17  N3  <0> d           3.397   9.650   0.019  0.00  0.00    -0.397 N 
ATOM     18  H10 <0> d           4.142   9.029   0.009  0.00  0.00     0.156 HD
ATOM     19  H11 <0> d           3.562  10.606   0.023  0.00  0.00     0.156 HD
ENDBRANCH   5  17
BRANCH   3  20
ATOM     20  C15 <0> d           4.234   6.942  -0.003  0.00  0.00     0.418 C 
ATOM     21  F1  <0> d           4.933   5.731  -0.015  0.00  0.00    -0.166 F 
ATOM     22  F2  <0> d           4.561   7.682  -1.144  0.00  0.00    -0.166 F 
ATOM     23  F3  <0> d           4.582   7.671   1.140  0.00  0.00    -0.166 F 
ENDBRANCH   3  20
BRANCH   1  24
ATOM     24  C3  <0> d           0.425   3.737   0.018  0.00  0.00     0.033 A 
ATOM     25  C2  <0> d          -0.866   3.275   0.028  0.00  0.00     0.021 A 
ATOM     26  C1  <0> d          -1.081   1.916   0.017  0.00  0.00     0.008 A 
ATOM     27  C4  <0> d          -0.013   1.076   0.008  0.00  0.00     0.050 A 
ATOM     28  S1  <0> d           1.360   2.217   0.001  0.00  0.00    -0.100 SA
ENDBRANCH   1  24
TORSDOF 4
