REMARK  6 active torsions:
REMARK  status: ('A' for Active; 'I' for Inactive)
REMARK    1  A    between atoms: C7_7  and  C8_8 
REMARK    2  A    between atoms: C8_8  and  N1_10 
REMARK    3  A    between atoms: N1_10  and  S1_11 
REMARK    4  A    between atoms: S1_11  and  C10_14 
REMARK    5  A    between atoms: C13_17  and  C14_19 
REMARK    6  A    between atoms: C14_19  and  N2_20 
ROOT
ATOM      1  S1  <0> d           1.542  -0.099   4.739  0.00  0.00     0.266 S 
ATOM      2  O1  <0> d           1.960  -1.154   5.594  0.00  0.00    -0.200 OA
ATOM      3  O2  <0> d           2.464   0.769   4.094  0.00  0.00    -0.200 OA
ENDROOT
BRANCH   1   4
ATOM      4  N1  <0> d           0.630  -0.793   3.543  0.00  0.00    -0.306 N 
ATOM      5  H12 <0> d           0.497  -1.753   3.530  0.00  0.00     0.173 HD
BRANCH   4   6
ATOM      6  C8  <0> d           0.025   0.045   2.504  0.00  0.00     0.122 C 
ATOM      7  C9  <0> d          -1.413   0.387   2.899  0.00  0.00     0.038 C 
BRANCH   6   8
ATOM      8  C7  <0> d           0.023  -0.702   1.195  0.00  0.00    -0.029 A 
ATOM      9  C2  <0> d           0.002  -0.004   0.002  0.00  0.00    -0.054 A 
ATOM     10  C1  <0> d          -0.018   1.503   0.010  0.00  0.00     0.049 C 
ATOM     11  C3  <0> d           0.006  -0.689  -1.199  0.00  0.00     0.007 A 
ATOM     12  C4  <0> d           0.025  -2.071  -1.207  0.00  0.00     0.001 A 
ATOM     13  C5  <0> d           0.040  -2.768  -0.013  0.00  0.00     0.001 A 
ATOM     14  C6  <0> d           0.037  -2.084   1.188  0.00  0.00     0.010 A 
ENDBRANCH   6   8
ENDBRANCH   4   6
ENDBRANCH   1   4
BRANCH   1  15
ATOM     15  C10 <0> d           0.466   0.923   5.688  0.00  0.00     0.120 A 
ATOM     16  S2  <0> d           0.060   2.646   5.460  0.00  0.00    -0.080 SA
ATOM     17  C13 <0> d          -1.062   2.826   6.836  0.00  0.00     0.009 A 
ATOM     18  C12 <0> d          -1.047   1.581   7.374  0.00  0.00     0.018 A 
ATOM     19  C11 <0> d          -0.264   0.606   6.786  0.00  0.00     0.034 A 
BRANCH  17  20
ATOM     20  C14 <0> d          -1.823   4.045   7.287  0.00  0.00     0.275 C 
BRANCH  20  21
ATOM     21  N2  <0> d          -1.009   4.805   8.245  0.00  0.00    -0.075 N 
ATOM     22  H17 <0> d          -1.518   5.622   8.547  0.00  0.00     0.274 HD
ATOM     23  H18 <0> d          -0.800   4.224   9.044  0.00  0.00     0.274 HD
ATOM     24  H19 <0> d          -0.148   5.090   7.803  0.00  0.00     0.274 HD
ENDBRANCH  20  21
ENDBRANCH  17  20
ENDBRANCH   1  15
TORSDOF 6
