REMARK  9 active torsions:
REMARK  status: ('A' for Active; 'I' for Inactive)
REMARK    1  A    between atoms: C2_2  and  N1_5 
REMARK       I    between atoms: N1_5  and  C5_6 
REMARK    2  A    between atoms: C5_6  and  C6_8 
REMARK    3  A    between atoms: C6_8  and  C7_9 
REMARK    4  A    between atoms: C6_8  and  N2_16 
REMARK    5  A    between atoms: C11_13  and  O2_15 
REMARK    6  A    between atoms: N2_16  and  C13_17 
REMARK       I    between atoms: N2_16  and  C19_24 
REMARK    7  A    between atoms: C19_24  and  C20_26 
REMARK    8  A    between atoms: C20_26  and  C21_27 
REMARK    9  A    between atoms: C21_27  and  S1_28 
ROOT
ATOM      1  C6  <0> d           2.571  -0.661  -2.999  0.00  0.00     0.218 C 
ENDROOT
BRANCH   1   2
ATOM      2  C5  <0> d           1.126  -0.595  -2.576  0.00  0.00     0.246 C 
ATOM      3  N1  <0> d           0.158  -1.008  -3.418  0.00  0.00    -0.351 N 
ATOM      4  H11 <0> d           0.392  -1.349  -4.296  0.00  0.00     0.163 HD
ATOM      5  O1  <0> d           0.834  -0.169  -1.479  0.00  0.00    -0.271 OA
BRANCH   3   6
ATOM      6  C2  <0> d          -1.246  -0.943  -3.008  0.00  0.00     0.022 C 
ATOM      7  C1  <0> d          -1.621   0.507  -2.698  0.00  0.00     0.037 C 
ATOM      8  C3  <0> d          -1.453  -1.801  -1.758  0.00  0.00     0.037 C 
ATOM      9  C4  <0> d          -2.133  -1.469  -4.139  0.00  0.00     0.037 C 
ENDBRANCH   3   6
ENDBRANCH   1   2
BRANCH   1  10
ATOM     10  C7  <0> d           2.734   0.006  -4.340  0.00  0.00    -0.023 A 
ATOM     11  C12 <0> d           2.169  -0.560  -5.466  0.00  0.00     0.046 A 
ATOM     12  C11 <0> d           2.314   0.058  -6.699  0.00  0.00     0.066 A 
ATOM     13  C10 <0> d           3.036   1.237  -6.801  0.00  0.00     0.036 A 
ATOM     14  C9  <0> d           3.605   1.797  -5.673  0.00  0.00     0.003 A 
ATOM     15  C8  <0> d           3.454   1.182  -4.444  0.00  0.00     0.010 A 
BRANCH  12  16
ATOM     16  O2  <0> d           1.753  -0.495  -7.808  0.00  0.00    -0.361 OA
ATOM     17  H16 <0> d           2.329  -1.119  -8.270  0.00  0.00     0.217 HD
ENDBRANCH  12  16
ENDBRANCH   1  10
BRANCH   1  18
ATOM     18  N2  <0> d           3.402   0.027  -2.007  0.00  0.00    -0.300 N 
ATOM     19  C19 <0> d           3.080   1.272  -1.606  0.00  0.00     0.226 C 
ATOM     20  O3  <0> d           2.036   1.775  -1.966  0.00  0.00    -0.273 OA
BRANCH  18  21
ATOM     21  C13 <0> d           4.530  -0.610  -1.477  0.00  0.00     0.040 A 
ATOM     22  C18 <0> d           5.709   0.101  -1.297  0.00  0.00     0.053 A 
ATOM     23  C17 <0> d           6.819  -0.529  -0.767  0.00  0.00     0.036 A 
ATOM     24  C16 <0> d           6.760  -1.869  -0.427  0.00  0.00     0.024 A 
ATOM     25 Cl1  <0> d           8.292   0.359  -0.534  0.00  0.00    -0.084 Cl
ATOM     26  C15 <0> d           5.588  -2.580  -0.611  0.00  0.00     0.004 A 
ATOM     27  C14 <0> d           4.473  -1.955  -1.134  0.00  0.00     0.030 A 
ENDBRANCH  18  21
BRANCH  19  28
ATOM     28  C20 <0> d           4.016   2.041  -0.709  0.00  0.00     0.113 C 
BRANCH  28  29
ATOM     29  C21 <0> d           3.208   2.782   0.357  0.00  0.00     0.080 C 
BRANCH  29  30
ATOM     30  S1  <0> d           4.335   3.707   1.436  0.00  0.00    -0.182 SA
ATOM     31  H25 <0> d           3.519   4.308   2.321  0.00  0.00     0.101 HD
ENDBRANCH  29  30
ENDBRANCH  28  29
ENDBRANCH  19  28
ENDBRANCH   1  18
TORSDOF 9
