REMARK  6 active torsions:
REMARK  status: ('A' for Active; 'I' for Inactive)
REMARK    1  A    between atoms: C6_7  and  C8_11 
REMARK    2  A    between atoms: C8_11  and  S1_12 
REMARK    3  A    between atoms: S1_12  and  C9_13 
REMARK    4  A    between atoms: C9_13  and  C11_15 
REMARK       I    between atoms: C11_15  and  N3_17 
REMARK    5  A    between atoms: N3_17  and  C12_18 
REMARK    6  A    between atoms: N5_24  and  C18_27 
ROOT
ATOM      1  C11 <0> d          -5.363  -5.945   6.358  0.00  0.00     0.235 C 
ATOM      2  O2  <0> d          -6.305  -5.545   5.706  0.00  0.00    -0.272 OA
ATOM      3  N3  <0> d          -5.511  -7.007   7.175  0.00  0.00    -0.325 N 
ATOM      4  H11 <0> d          -4.743  -7.369   7.644  0.00  0.00     0.169 HD
ENDROOT
BRANCH   1   5
ATOM      5  C9  <0> d          -4.027  -5.256   6.253  0.00  0.00     0.136 C 
ATOM      6  C10 <0> d          -3.844  -4.315   7.445  0.00  0.00     0.031 C 
BRANCH   5   7
ATOM      7  S1  <0> d          -3.959  -4.301   4.712  0.00  0.00    -0.147 SA
BRANCH   7   8
ATOM      8  C8  <0> d          -2.260  -3.667   4.663  0.00  0.00     0.155 C 
BRANCH   8   9
ATOM      9  C6  <0> d          -2.067  -2.844   3.415  0.00  0.00     0.140 A 
ATOM     10  N1  <0> d          -0.881  -2.295   3.204  0.00  0.00    -0.225 NA
ATOM     11  C5  <0> d          -0.646  -1.567   2.138  0.00  0.00     0.112 A 
ATOM     12  C4  <0> d          -1.708  -1.339   1.135  0.00  0.00     0.073 A 
ATOM     13  S2  <0> d           0.763  -0.687   1.511  0.00  0.00    -0.100 SA
ATOM     14  C3  <0> d          -1.405  -0.585   0.067  0.00  0.00    -0.051 A 
ATOM     15  C7  <0> d          -3.010  -2.002   1.464  0.00  0.00     0.281 A 
ATOM     16  C2  <0> d          -0.002  -0.029  -0.026  0.00  0.00     0.079 A 
ATOM     17  C21 <0> d          -2.428  -0.302  -1.002  0.00  0.00     0.046 C 
ATOM     18  C1  <0> d          -0.018   1.501  -0.019  0.00  0.00     0.026 C 
ATOM     19  N2  <0> d          -3.082  -2.710   2.596  0.00  0.00    -0.193 NA
ATOM     20  O1  <0> d          -3.974  -1.898   0.724  0.00  0.00    -0.265 OA
ENDBRANCH   8   9
ENDBRANCH   7   8
ENDBRANCH   5   7
ENDBRANCH   1   5
BRANCH   3  21
ATOM     21  C12 <0> d          -6.775  -7.587   7.348  0.00  0.00     0.053 A 
ATOM     22  C16 <0> d          -7.147  -8.115   8.575  0.00  0.00     0.148 A 
ATOM     23  N4  <0> d          -8.335  -8.658   8.751  0.00  0.00    -0.239 NA
ATOM     24  C15 <0> d          -9.225  -8.738   7.766  0.00  0.00     0.147 A 
ATOM     25  C14 <0> d          -8.907  -8.231   6.510  0.00  0.00     0.006 A 
ATOM     26  N5  <0> d         -10.508  -9.270   7.741  0.00  0.00    -0.292 N 
ATOM     27  C13 <0> d          -7.679  -7.650   6.286  0.00  0.00     0.043 A 
ATOM     28  C17 <0> d         -10.110  -8.474   5.631  0.00  0.00     0.153 A 
ATOM     29  N6  <0> d         -11.083  -9.145   6.513  0.00  0.00    -0.232 NA
ATOM     30  H14 <0> d         -11.345 -10.047   6.143  0.00  0.00     0.147 HD
BRANCH  26  31
ATOM     31  C18 <0> d         -11.164  -9.889   8.896  0.00  0.00     0.096 C 
ATOM     32  C19 <0> d         -12.444  -9.121   9.229  0.00  0.00     0.033 C 
ATOM     33  C20 <0> d         -11.512 -11.342   8.566  0.00  0.00     0.033 C 
ENDBRANCH  26  31
ENDBRANCH   3  21
TORSDOF 6
