REMARK  5 active torsions:
REMARK  status: ('A' for Active; 'I' for Inactive)
REMARK    1  A    between atoms: C2_2  and  C3_3 
REMARK    2  A    between atoms: C2_2  and  N3_9 
REMARK    3  A    between atoms: C3_3  and  N1_4 
REMARK       I    between atoms: N3_9  and  C7_10 
REMARK    4  A    between atoms: C7_10  and  C8_12 
REMARK    5  A    between atoms: C12_17  and  N5_18 
ROOT
ATOM      1  N3  <0> d           0.692  -0.446  -1.212  0.00  0.00    -0.351 N 
ATOM      2  C7  <0> d           0.012  -0.576  -2.369  0.00  0.00     0.255 C 
ATOM      3  O1  <0> d          -1.169  -0.287  -2.416  0.00  0.00    -0.268 OA
ATOM      4  H10 <0> d           1.633  -0.676  -1.175  0.00  0.00     0.163 HD
ENDROOT
BRANCH   2   5
ATOM      5  C8  <0> d           0.699  -1.068  -3.577  0.00  0.00     0.077 A 
ATOM      6  C12 <0> d          -0.022  -1.325  -4.755  0.00  0.00     0.140 A 
ATOM      7  N4  <0> d           0.602  -1.762  -5.839  0.00  0.00    -0.242 NA
ATOM      8  C11 <0> d           1.902  -1.980  -5.851  0.00  0.00     0.119 A 
ATOM      9  C10 <0> d           2.678  -1.755  -4.728  0.00  0.00     0.020 A 
ATOM     10  C9  <0> d           2.080  -1.293  -3.569  0.00  0.00     0.022 A 
BRANCH   6  11
ATOM     11  N5  <0> d          -1.388  -1.116  -4.785  0.00  0.00    -0.374 N 
ATOM     12  C13 <0> d          -1.923   0.160  -5.268  0.00  0.00     0.150 C 
ATOM     13  C14 <0> d          -2.301  -2.169  -4.335  0.00  0.00     0.150 C 
ENDBRANCH   6  11
ENDBRANCH   2   5
BRANCH   1  14
ATOM     14  C2  <0> d           0.009   0.043  -0.012  0.00  0.00     0.099 C 
ATOM     15  C1  <0> d           0.008   1.573  -0.013  0.00  0.00     0.034 C 
BRANCH  14  16
ATOM     16  C3  <0> d           0.739  -0.466   1.233  0.00  0.00     0.153 C 
BRANCH  16  17
ATOM     17  N1  <0> d           0.636  -1.926   1.296  0.00  0.00    -0.348 N 
ATOM     18  C6  <0> d           1.498  -2.814   0.756  0.00  0.00     0.209 A 
ATOM     19  N2  <0> d           1.078  -4.020   1.022  0.00  0.00    -0.255 NA
ATOM     20  C5  <0> d          -0.060  -3.947   1.727  0.00  0.00     0.135 A 
ATOM     21  C4  <0> d          -0.354  -2.645   1.909  0.00  0.00     0.111 A 
ENDBRANCH  16  17
ENDBRANCH  14  16
ENDBRANCH   1  14
TORSDOF 5
