REMARK  7 active torsions:
REMARK  status: ('A' for Active; 'I' for Inactive)
REMARK    1  A    between atoms: C2_2  and  C3_3 
REMARK    2  A    between atoms: C3_3  and  C14_23 
REMARK    3  A    between atoms: N1_6  and  N3_10 
REMARK       I    between atoms: N3_10  and  C6_11 
REMARK    4  A    between atoms: C6_11  and  C7_13 
REMARK    5  A    between atoms: C7_13  and  C8_14 
REMARK    6  A    between atoms: C8_14  and  N4_15 
REMARK       I    between atoms: N4_15  and  C9_16 
REMARK    7  A    between atoms: C9_16  and  C10_18 
ROOT
ATOM      1  C3  <0> d          -1.433  -0.534   0.013  0.00  0.00     0.145 A 
ATOM      2  C4  <0> d          -2.205   0.042   1.184  0.00  0.00     0.280 A 
ATOM      3  O1  <0> d          -1.958  -0.098   2.363  0.00  0.00    -0.268 OA
ATOM      4  N1  <0> d          -3.222   0.740   0.642  0.00  0.00    -0.167 N 
ATOM      5  C5  <0> d          -3.200   0.687  -0.695  0.00  0.00     0.345 A 
ATOM      6  O2  <0> d          -4.016   1.240  -1.406  0.00  0.00    -0.245 OA
ATOM      7  N2  <0> d          -2.175  -0.046  -1.163  0.00  0.00    -0.319 N 
ATOM      8  H6  <0> d          -1.964  -0.220  -2.094  0.00  0.00     0.166 HD
ENDROOT
BRANCH   4   9
ATOM      9  N3  <0> d          -4.184   1.436   1.387  0.00  0.00    -0.256 N 
ATOM     10  C6  <0> d          -4.133   2.781   1.464  0.00  0.00     0.238 C 
ATOM     11  O3  <0> d          -3.256   3.389   0.888  0.00  0.00    -0.272 OA
ATOM     12  H7  <0> d          -4.886   0.950   1.847  0.00  0.00     0.190 HD
BRANCH  10  13
ATOM     13  C7  <0> d          -5.168   3.529   2.264  0.00  0.00     0.124 C 
BRANCH  13  14
ATOM     14  C8  <0> d          -4.884   5.030   2.188  0.00  0.00     0.132 C 
BRANCH  14  15
ATOM     15  N4  <0> d          -5.889   5.758   2.966  0.00  0.00    -0.355 N 
ATOM     16  C9  <0> d          -5.839   7.102   3.043  0.00  0.00     0.275 C 
ATOM     17  O4  <0> d          -4.958   7.712   2.466  0.00  0.00    -0.265 OA
ATOM     18  H12 <0> d          -6.591   5.271   3.426  0.00  0.00     0.162 HD
BRANCH  16  19
ATOM     19  C10 <0> d          -6.846   7.830   3.823  0.00  0.00     0.142 A 
ATOM     20  O5  <0> d          -7.870   7.279   4.506  0.00  0.00    -0.317 OA
ATOM     21  C13 <0> d          -8.581   8.248   5.098  0.00  0.00     0.143 A 
ATOM     22  C12 <0> d          -8.026   9.442   4.795  0.00  0.00     0.027 A 
ATOM     23  C11 <0> d          -6.914   9.185   3.978  0.00  0.00     0.045 A 
ENDBRANCH  16  19
ENDBRANCH  14  15
ENDBRANCH  13  14
ENDBRANCH  10  13
ENDBRANCH   4   9
BRANCH   1  24
ATOM     24  C2  <0> d           0.002  -0.004   0.002  0.00  0.00     0.042 C 
ATOM     25  C1  <0> d          -0.019   1.526   0.010  0.00  0.00     0.008 C 
ENDBRANCH   1  24
BRANCH   1  26
ATOM     26  C14 <0> d          -1.441  -2.040   0.057  0.00  0.00    -0.021 A 
ATOM     27  C19 <0> d          -2.479  -2.744  -0.524  0.00  0.00     0.010 A 
ATOM     28  C18 <0> d          -2.483  -4.125  -0.487  0.00  0.00     0.001 A 
ATOM     29  C17 <0> d          -1.454  -4.803   0.139  0.00  0.00     0.000 A 
ATOM     30  C16 <0> d          -0.419  -4.100   0.725  0.00  0.00     0.001 A 
ATOM     31  C15 <0> d          -0.412  -2.718   0.684  0.00  0.00     0.010 A 
ENDBRANCH   1  26
TORSDOF 7
