REMARK  9 active torsions:
REMARK  status: ('A' for Active; 'I' for Inactive)
REMARK    1  A    between atoms: C2_2  and  C3_3 
REMARK    2  A    between atoms: C2_2  and  S1_7 
REMARK    3  A    between atoms: C3_3  and  O2_5 
REMARK    4  A    between atoms: S1_7  and  N1_10 
REMARK    5  A    between atoms: N1_10  and  C6_12 
REMARK    6  A    between atoms: C6_12  and  C7_13 
REMARK    7  A    between atoms: C9_15  and  C11_18 
REMARK    8  A    between atoms: C12_19  and  C13_20 
REMARK    9  A    between atoms: C13_20  and  O5_21 
ROOT
ATOM      1  N1  <0> d          -0.175   0.011   2.734  0.00  0.00    -0.310 N 
ATOM      2  C5  <0> d          -1.303  -0.533   3.495  0.00  0.00     0.163 C 
ENDROOT
BRANCH   1   3
ATOM      3  S1  <0> d           0.641  -0.951   1.661  0.00  0.00     0.241 S 
ATOM      4  O3  <0> d           1.064  -0.068   0.632  0.00  0.00    -0.205 OA
ATOM      5  O4  <0> d          -0.254  -2.018   1.378  0.00  0.00    -0.205 OA
BRANCH   3   6
ATOM      6  C2  <0> d           2.075  -1.567   2.585  0.00  0.00     0.224 C 
ATOM      7  C1  <0> d           1.596  -2.333   3.820  0.00  0.00     0.039 C 
BRANCH   6   8
ATOM      8  C3  <0> d           2.881  -2.488   1.705  0.00  0.00     0.278 C 
ATOM      9  O1  <0> d           2.373  -2.994   0.733  0.00  0.00    -0.264 OA
BRANCH   8  10
ATOM     10  O2  <0> d           4.165  -2.746   2.001  0.00  0.00    -0.325 OA
ATOM     11  C4  <0> d           4.869  -3.627   1.124  0.00  0.00     0.213 C 
ENDBRANCH   8  10
ENDBRANCH   6   8
ENDBRANCH   3   6
ENDBRANCH   1   3
BRANCH   1  12
ATOM     12  C6  <0> d           0.231   1.405   2.923  0.00  0.00     0.173 C 
BRANCH  12  13
ATOM     13  C7  <0> d          -0.647   2.302   2.088  0.00  0.00    -0.031 A 
ATOM     14  C10 <0> d          -1.848   2.724   2.562  0.00  0.00     0.060 A 
ATOM     15  S2  <0> d          -2.451   3.727   1.214  0.00  0.00    -0.092 SA
ATOM     16  C9  <0> d          -1.071   3.514   0.102  0.00  0.00     0.058 A 
ATOM     17  C8  <0> d          -0.244   2.698   0.832  0.00  0.00     0.037 A 
BRANCH  16  18
ATOM     18  C11 <0> d          -0.876   4.054  -1.210  0.00  0.00    -0.057 C 
ATOM     19  C12 <0> d          -0.717   4.497  -2.285  0.00  0.00    -0.075 C 
BRANCH  19  20
ATOM     20  C13 <0> d          -0.518   5.053  -3.634  0.00  0.00     0.258 C 
BRANCH  20  21
ATOM     21  O5  <0> d          -1.647   5.851  -3.992  0.00  0.00    -0.389 OA
ATOM     22  H17 <0> d          -1.584   6.250  -4.870  0.00  0.00     0.210 HD
ENDBRANCH  20  21
ENDBRANCH  19  20
ENDBRANCH  16  18
ENDBRANCH  12  13
ENDBRANCH   1  12
TORSDOF 9
