REMARK  6 active torsions:
REMARK  status: ('A' for Active; 'I' for Inactive)
REMARK    1  A    between atoms: N1_2  and  C2_3 
REMARK    2  A    between atoms: N1_2  and  S1_6 
REMARK    3  A    between atoms: S1_6  and  C5_9 
REMARK    4  A    between atoms: C10_14  and  C11_15 
REMARK    5  A    between atoms: C12_16  and  C13_17 
REMARK    6  A    between atoms: C13_17  and  N2_18 
ROOT
ATOM      1  C5  <0> d           1.682  -1.059  -1.905  0.00  0.00     0.098 A 
ATOM      2  C6  <0> d           2.208  -2.333  -1.976  0.00  0.00     0.027 A 
ATOM      3  C7  <0> d           3.529  -2.519  -2.344  0.00  0.00     0.002 A 
ATOM      4  C8  <0> d           4.330  -1.431  -2.643  0.00  0.00     0.002 A 
ATOM      5  C9  <0> d           3.816  -0.153  -2.576  0.00  0.00     0.022 A 
ATOM      6  C10 <0> d           2.483   0.041  -2.211  0.00  0.00     0.041 A 
ENDROOT
BRANCH   1   7
ATOM      7  S1  <0> d          -0.000  -0.824  -1.437  0.00  0.00     0.262 S 
ATOM      8  O1  <0> d          -0.531  -2.115  -1.167  0.00  0.00    -0.200 OA
ATOM      9  O2  <0> d          -0.572   0.049  -2.401  0.00  0.00    -0.200 OA
BRANCH   7  10
ATOM     10  N1  <0> d           0.002  -0.004   0.002  0.00  0.00    -0.306 N 
ATOM     11  C1  <0> d          -0.018   1.461   0.010  0.00  0.00     0.163 C 
BRANCH  10  12
ATOM     12  C2  <0> d           0.024  -0.743   1.267  0.00  0.00     0.095 A 
ATOM     13  C4  <0> d           1.205  -0.498   2.208  0.00  0.00     0.028 A 
ATOM     14  C3  <0> d          -0.178   0.056   2.556  0.00  0.00     0.028 A 
ENDBRANCH  10  12
ENDBRANCH   7  10
ENDBRANCH   1   7
BRANCH   6  15
ATOM     15  C11 <0> d           1.941   1.365  -2.145  0.00  0.00    -0.064 C 
ATOM     16  C12 <0> d           1.497   2.451  -2.091  0.00  0.00    -0.074 C 
BRANCH  16  17
ATOM     17  C13 <0> d           0.940   3.812  -2.023  0.00  0.00     0.323 C 
BRANCH  17  18
ATOM     18  N2  <0> d           1.978   4.784  -2.389  0.00  0.00    -0.069 N 
ATOM     19  H15 <0> d           2.753   4.706  -1.748  0.00  0.00     0.275 HD
ATOM     20  H16 <0> d           2.298   4.598  -3.328  0.00  0.00     0.275 HD
ATOM     21  H17 <0> d           1.597   5.717  -2.342  0.00  0.00     0.275 HD
ENDBRANCH  17  18
ENDBRANCH  16  17
ENDBRANCH   6  15
TORSDOF 6
