REMARK  4 active torsions:
REMARK  status: ('A' for Active; 'I' for Inactive)
REMARK    1  A    between atoms: C4_6  and  C5_7 
REMARK       I    between atoms: C5_7  and  N3_9 
REMARK    2  A    between atoms: C7_11  and  C14_19 
REMARK       I    between atoms: C14_19  and  N5_21 
REMARK    3  A    between atoms: N5_21  and  C15_22 
REMARK    4  A    between atoms: N6_25  and  C20_28 
ROOT
ATOM      1  C5  <0> d          -0.187  -0.426   2.505  0.00  0.00     0.272 C 
ATOM      2  O1  <0> d          -0.129  -1.262   3.387  0.00  0.00    -0.266 OA
ATOM      3  N3  <0> d          -0.390   0.869   2.817  0.00  0.00    -0.345 N 
ATOM      4  C6  <0> d          -0.629   2.000   1.889  0.00  0.00     0.141 C 
ATOM      5  C7  <0> d          -1.700   2.863   2.594  0.00  0.00     0.106 C 
ATOM      6  C8  <0> d          -1.559   2.522   4.087  0.00  0.00    -0.007 C 
ATOM      7  C9  <0> d          -0.430   1.484   4.165  0.00  0.00     0.136 C 
ATOM      8  C10 <0> d          -2.857   1.921   4.617  0.00  0.00     0.039 C 
ATOM      9  C11 <0> d          -2.711   1.643   6.116  0.00  0.00     0.233 C 
ATOM     10  N4  <0> d          -2.404   2.895   6.819  0.00  0.00    -0.075 N 
ATOM     11  C12 <0> d          -1.108   3.417   6.370  0.00  0.00     0.233 C 
ATOM     12  C13 <0> d          -1.186   3.770   4.881  0.00  0.00     0.039 C 
ATOM     13  H15 <0> d          -3.124   3.574   6.625  0.00  0.00     0.277 HD
ATOM     14  H33 <0> d          -2.368   2.720   7.813  0.00  0.00     0.277 HD
ENDROOT
BRANCH   5  15
ATOM     15  C14 <0> d          -3.076   2.500   2.098  0.00  0.00     0.224 C 
ATOM     16  O2  <0> d          -3.284   1.395   1.642  0.00  0.00    -0.273 OA
ATOM     17  N5  <0> d          -4.075   3.402   2.163  0.00  0.00    -0.356 N 
ATOM     18  H20 <0> d          -3.909   4.285   2.528  0.00  0.00     0.162 HD
BRANCH  17  19
ATOM     19  C15 <0> d          -5.413   3.049   1.681  0.00  0.00     0.087 C 
ATOM     20  C19 <0> d          -6.456   3.916   2.390  0.00  0.00     0.045 C 
ATOM     21  C18 <0> d          -7.856   3.520   1.910  0.00  0.00     0.126 C 
ATOM     22  N6  <0> d          -7.894   3.607   0.444  0.00  0.00    -0.364 N 
ATOM     23  C17 <0> d          -6.880   2.884  -0.334  0.00  0.00     0.126 C 
ATOM     24  C16 <0> d          -5.491   3.287   0.172  0.00  0.00     0.045 C 
BRANCH  22  25
ATOM     25  C20 <0> d          -8.873   4.361  -0.196  0.00  0.00     0.147 A 
ATOM     26  N7  <0> d          -8.614   5.612  -0.544  0.00  0.00    -0.242 NA
ATOM     27  C24 <0> d          -9.513   6.360  -1.156  0.00  0.00     0.119 A 
ATOM     28  C23 <0> d         -10.767   5.863  -1.448  0.00  0.00     0.021 A 
ATOM     29  C22 <0> d         -11.082   4.557  -1.095  0.00  0.00     0.029 A 
ATOM     30  C21 <0> d         -10.117   3.795  -0.459  0.00  0.00     0.079 A 
ATOM     31 Cl1  <0> d         -10.455   2.157   0.005  0.00  0.00    -0.080 Cl
ENDBRANCH  22  25
ENDBRANCH  17  19
ENDBRANCH   5  15
BRANCH   1  32
ATOM     32  C4  <0> d          -0.037  -0.829   1.102  0.00  0.00     0.121 A 
ATOM     33  N1  <0> d           0.025  -2.119   0.612  0.00  0.00    -0.340 N 
ATOM     34  C1  <0> d          -0.047  -3.353   1.398  0.00  0.00     0.157 C 
ATOM     35  C2  <0> d           0.159  -2.028  -0.723  0.00  0.00     0.209 A 
ATOM     36  N2  <0> d           0.186  -0.766  -1.067  0.00  0.00    -0.253 NA
ATOM     37  C3  <0> d           0.072  -0.002   0.019  0.00  0.00     0.153 A 
ENDBRANCH   1  32
TORSDOF 4
