REMARK  5 active torsions:
REMARK  status: ('A' for Active; 'I' for Inactive)
REMARK    1  A    between atoms: C6_6  and  C7_7 
REMARK    2  A    between atoms: N1_8  and  N2_9 
REMARK    3  A    between atoms: C10_14  and  C11_16 
REMARK    4  A    between atoms: C11_16  and  C12_17 
REMARK    5  A    between atoms: C12_17  and  O2_18 
ROOT
ATOM      1  N2  <0> d          -2.346  -2.728   0.011  0.00  0.00    -0.125 NA
ATOM      2  C8  <0> d          -2.325  -4.045   0.003  0.00  0.00     0.191 A 
ATOM      3  N3  <0> d          -1.227  -4.879  -0.006  0.00  0.00    -0.304 N 
ATOM      4  C9  <0> d          -1.336  -6.196  -0.012  0.00  0.00     0.238 A 
ATOM      5  O1  <0> d          -0.365  -6.923  -0.020  0.00  0.00    -0.272 OA
ATOM      6  C10 <0> d          -2.755  -6.743  -0.008  0.00  0.00     0.149 A 
ATOM      7  S1  <0> d          -3.712  -5.171   0.011  0.00  0.00    -0.076 SA
ATOM      8  H7  <0> d          -0.341  -4.484  -0.008  0.00  0.00     0.171 HD
ENDROOT
BRANCH   1   9
ATOM      9  N1  <0> d          -1.239  -2.066   0.003  0.00  0.00    -0.159 NA
ATOM     10  C7  <0> d          -1.260  -0.760   0.011  0.00  0.00     0.152 C 
BRANCH  10  11
ATOM     11  C6  <0> d           0.002  -0.004   0.002  0.00  0.00    -0.017 A 
ATOM     12  C1  <0> d          -0.017   1.394   0.010  0.00  0.00     0.016 A 
ATOM     13  C2  <0> d           1.169   2.097   0.002  0.00  0.00     0.043 A 
ATOM     14  C3  <0> d           2.379   1.420  -0.013  0.00  0.00     0.116 A 
ATOM     15  C4  <0> d           2.405   0.034  -0.021  0.00  0.00     0.043 A 
ATOM     16  F1  <0> d           3.538   2.114  -0.022  0.00  0.00    -0.206 F 
ATOM     17  C5  <0> d           1.226  -0.681  -0.013  0.00  0.00     0.016 A 
ENDBRANCH  10  11
ENDBRANCH   1   9
BRANCH   6  18
ATOM     18  C11 <0> d          -3.039  -7.556  -1.272  0.00  0.00     0.051 C 
BRANCH  18  19
ATOM     19  C12 <0> d          -4.428  -8.189  -1.170  0.00  0.00     0.165 C 
BRANCH  19  20
ATOM     20  O2  <0> d          -4.694  -8.949  -2.350  0.00  0.00    -0.401 OA
ATOM     21  H12 <0> d          -5.560  -9.379  -2.355  0.00  0.00     0.209 HD
ENDBRANCH  19  20
ENDBRANCH  18  19
ENDBRANCH   6  18
TORSDOF 5
