REMARK  7 active torsions:
REMARK  status: ('A' for Active; 'I' for Inactive)
REMARK    1  A    between atoms: N1_2  and  C2_3 
REMARK    2  A    between atoms: N1_2  and  C11_16 
REMARK    3  A    between atoms: C2_3  and  C3_4 
REMARK    4  A    between atoms: C3_4  and  C4_5 
REMARK       I    between atoms: C4_5  and  N2_7 
REMARK    5  A    between atoms: N2_7  and  C5_8 
REMARK    6  A    between atoms: C11_16  and  C12_17 
REMARK    7  A    between atoms: C12_17  and  N3_18 
ROOT
ATOM      1  C4  <0> d          -0.537  -1.299   3.993  0.00  0.00     0.223 C 
ATOM      2  O1  <0> d          -0.521  -2.507   4.105  0.00  0.00    -0.273 OA
ATOM      3  N2  <0> d           0.122  -0.531   4.883  0.00  0.00    -0.324 N 
ATOM      4  H8  <0> d           0.170   0.429   4.753  0.00  0.00     0.169 HD
ENDROOT
BRANCH   1   5
ATOM      5  C3  <0> d          -1.293  -0.658   2.858  0.00  0.00     0.133 C 
BRANCH   5   6
ATOM      6  C2  <0> d          -1.946  -1.745   2.001  0.00  0.00     0.281 C 
BRANCH   6   7
ATOM      7  N1  <0> d          -2.683  -1.120   0.895  0.00  0.00     0.086 N 
ATOM      8  C1  <0> d          -1.766  -0.445  -0.034  0.00  0.00     0.310 C 
BRANCH   7   9
ATOM      9  C11 <0> d          -3.513  -2.107   0.192  0.00  0.00     0.299 C 
BRANCH   9  10
ATOM     10  C12 <0> d          -4.447  -1.386  -0.782  0.00  0.00     0.259 C 
BRANCH  10  11
ATOM     11  N3  <0> d          -5.278  -2.373  -1.485  0.00  0.00    -0.078 N 
ATOM     12  H16 <0> d          -4.684  -3.008  -1.997  0.00  0.00     0.274 HD
ATOM     13  H17 <0> d          -5.826  -2.890  -0.815  0.00  0.00     0.274 HD
ATOM     14  H18 <0> d          -5.894  -1.897  -2.127  0.00  0.00     0.274 HD
ENDBRANCH  10  11
ENDBRANCH   9  10
ENDBRANCH   7   9
ENDBRANCH   6   7
ENDBRANCH   5   6
ENDBRANCH   1   5
BRANCH   3  15
ATOM     15  C5  <0> d           0.736  -1.119   5.996  0.00  0.00     0.078 A 
ATOM     16  C10 <0> d           0.022  -1.290   7.175  0.00  0.00     0.062 A 
ATOM     17  C9  <0> d           0.630  -1.876   8.270  0.00  0.00     0.026 A 
ATOM     18 Cl1  <0> d          -1.633  -0.776   7.272  0.00  0.00    -0.082 Cl
ATOM     19  C8  <0> d           1.950  -2.281   8.195  0.00  0.00     0.003 A 
ATOM     20  C7  <0> d           2.666  -2.106   7.025  0.00  0.00     0.026 A 
ATOM     21  C6  <0> d           2.062  -1.526   5.925  0.00  0.00     0.062 A 
ATOM     22 Cl2  <0> d           2.961  -1.308   4.455  0.00  0.00    -0.082 Cl
ENDBRANCH   3  15
TORSDOF 7
