REMARK  3 active torsions:
REMARK  status: ('A' for Active; 'I' for Inactive)
REMARK    1  A    between atoms: C3_4  and  N3_7 
REMARK       I    between atoms: N3_7  and  C5_8 
REMARK    2  A    between atoms: C5_8  and  C6_10 
REMARK    3  A    between atoms: C6_10  and  N4_11 
ROOT
ATOM      1  C6  <0> d          -4.179  -0.384   0.020  0.00  0.00     0.236 C 
ENDROOT
BRANCH   1   2
ATOM      2  C5  <0> d          -2.753   0.104   0.016  0.00  0.00     0.240 C 
ATOM      3  N3  <0> d          -2.493   1.426   0.021  0.00  0.00    -0.323 N 
ATOM      4  H7  <0> d          -3.321   2.150   0.028  0.00  0.00     0.169 HD
ATOM      5  O1  <0> d          -1.839  -0.694   0.008  0.00  0.00    -0.271 OA
BRANCH   3   6
ATOM      6  C3  <0> d          -1.161   1.881   0.017  0.00  0.00     0.071 A 
ATOM      7  C2  <0> d          -0.759   3.178   0.025  0.00  0.00     0.142 A 
ATOM      8  N1  <0> d           0.599   3.186   0.013  0.00  0.00    -0.283 N 
ATOM      9  C1  <0> d           1.454   4.376   0.011  0.00  0.00     0.179 C 
ATOM     10  N2  <0> d           1.038   1.856   0.002  0.00  0.00    -0.183 NA
ATOM     11  C4  <0> d          -0.013   1.076   0.008  0.00  0.00     0.169 A 
ENDBRANCH   3   6
ENDBRANCH   1   2
BRANCH   1  12
ATOM     12  N4  <0> d          -4.194  -1.848   0.013  0.00  0.00    -0.299 N 
ATOM     13  C10 <0> d          -4.212  -2.509  -1.158  0.00  0.00     0.329 A 
ATOM     14  N5  <0> d          -4.222  -3.855  -1.194  0.00  0.00    -0.274 N 
ATOM     15  O3  <0> d          -4.215  -1.882  -2.200  0.00  0.00    -0.246 OA
ATOM     16  C9  <0> d          -4.224  -4.565  -0.048  0.00  0.00     0.268 A 
ATOM     17  H1  <0> d          -4.228  -4.375  -2.163  0.00  0.00     0.173 HD
ATOM     18  C8  <0> d          -4.211  -3.882   1.193  0.00  0.00     0.094 A 
ATOM     19  O2  <0> d          -4.238  -5.782  -0.079  0.00  0.00    -0.267 OA
ATOM     20  C7  <0> d          -4.197  -2.532   1.200  0.00  0.00     0.121 A 
ATOM     21 Br1  <0> d          -4.214  -4.848   2.819  0.00  0.00    -0.044 Br
ENDBRANCH   1  12
TORSDOF 3
