REMARK  8 active torsions:
REMARK  status: ('A' for Active; 'I' for Inactive)
REMARK    1  A    between atoms: C6_6  and  C7_7 
REMARK    2  A    between atoms: C12_13  and  O4_27 
REMARK    3  A    between atoms: C13_14  and  C17_22 
REMARK    4  A    between atoms: C15_17  and  C16_18 
REMARK    5  A    between atoms: C17_22  and  N1_23 
REMARK    6  A    between atoms: N1_23  and  C18_24 
REMARK    7  A    between atoms: C18_24  and  C19_25 
REMARK    8  A    between atoms: C19_25  and  O3_26 
ROOT
ATOM      1  C7  <0> d          -1.790  -3.862  -3.654  0.00  0.00     0.064 A 
ATOM      2  C8  <0> d          -1.787  -4.766  -2.491  0.00  0.00     0.198 A 
ATOM      3  O1  <0> d          -2.239  -5.896  -2.558  0.00  0.00    -0.286 OA
ATOM      4  C9  <0> d          -1.210  -4.238  -1.241  0.00  0.00     0.050 A 
ATOM      5  C10 <0> d          -1.159  -5.014  -0.083  0.00  0.00     0.021 A 
ATOM      6  C11 <0> d          -0.618  -4.494   1.058  0.00  0.00     0.038 A 
ATOM      7  C12 <0> d          -0.118  -3.193   1.070  0.00  0.00     0.076 A 
ATOM      8  C13 <0> d          -0.162  -2.411  -0.071  0.00  0.00     0.035 A 
ATOM      9  C14 <0> d          -0.714  -2.922  -1.238  0.00  0.00     0.101 A 
ATOM     10  O2  <0> d          -0.759  -2.176  -2.360  0.00  0.00    -0.303 OA
ATOM     11  C15 <0> d          -1.272  -2.615  -3.512  0.00  0.00     0.174 A 
ENDROOT
BRANCH   8  12
ATOM     12  C17 <0> d           0.382  -1.006  -0.045  0.00  0.00     0.276 C 
BRANCH  12  13
ATOM     13  N1  <0> d           1.804  -1.024  -0.410  0.00  0.00    -0.069 N 
ATOM     14  H9  <0> d           2.359  -1.645   0.308  0.00  0.00     0.277 HD
ATOM     15  H16 <0> d           1.918  -1.442  -1.421  0.00  0.00     0.277 HD
BRANCH  13  16
ATOM     16  C18 <0> d           2.369   0.332  -0.395  0.00  0.00     0.258 C 
BRANCH  16  17
ATOM     17  C19 <0> d           3.849   0.273  -0.780  0.00  0.00     0.191 C 
BRANCH  17  18
ATOM     18  O3  <0> d           3.972  -0.173  -2.132  0.00  0.00    -0.399 OA
ATOM     19  H14 <0> d           4.967  -0.279  -2.588  0.00  0.00     0.209 HD
ENDBRANCH  17  18
ENDBRANCH  16  17
ENDBRANCH  13  16
ENDBRANCH  12  13
ENDBRANCH   8  12
BRANCH   7  20
ATOM     20  O4  <0> d           0.417  -2.689   2.211  0.00  0.00    -0.360 OA
ATOM     21  H15 <0> d           0.814  -1.663   2.226  0.00  0.00     0.217 HD
ENDBRANCH   7  20
BRANCH  11  22
ATOM     22  C16 <0> d          -1.276  -1.690  -4.702  0.00  0.00     0.440 C 
ATOM     23  F1  <0> d          -2.592  -1.329  -5.008  0.00  0.00    -0.164 F 
ATOM     24  F2  <0> d          -0.535  -0.541  -4.402  0.00  0.00    -0.164 F 
ATOM     25  F3  <0> d          -0.703  -2.340  -5.800  0.00  0.00    -0.164 F 
ENDBRANCH  11  22
BRANCH   1  26
ATOM     26  C6  <0> d          -2.350  -4.305  -4.954  0.00  0.00    -0.019 A 
ATOM     27  C1  <0> d          -3.548  -3.766  -5.419  0.00  0.00     0.015 A 
ATOM     28  C2  <0> d          -4.063  -4.178  -6.631  0.00  0.00     0.043 A 
ATOM     29  C3  <0> d          -3.396  -5.133  -7.380  0.00  0.00     0.116 A 
ATOM     30  C4  <0> d          -2.207  -5.675  -6.920  0.00  0.00     0.043 A 
ATOM     31  F4  <0> d          -3.906  -5.537  -8.565  0.00  0.00    -0.206 F 
ATOM     32  C5  <0> d          -1.683  -5.266  -5.711  0.00  0.00     0.015 A 
ENDBRANCH   1  26
TORSDOF 8
