REMARK  4 active torsions:
REMARK  status: ('A' for Active; 'I' for Inactive)
REMARK    1  A    between atoms: C3_3  and  C6_8 
REMARK    2  A    between atoms: C6_8  and  N3_10 
REMARK       I    between atoms: N3_10  and  C8_11 
REMARK    3  A    between atoms: C8_11  and  C9_13 
REMARK       I    between atoms: N4_15  and  C17_23 
REMARK    4  A    between atoms: C17_23  and  C18_25 
ROOT
ATOM      1  C9  <0> d          -3.950   3.012  -1.774  0.00  0.00     0.106 C 
ATOM      2  C10 <0> d          -3.664   3.864  -0.518  0.00  0.00     0.141 C 
ATOM      3  N4  <0> d          -4.744   4.879  -0.499  0.00  0.00    -0.348 N 
ATOM      4  C11 <0> d          -5.954   4.137  -0.928  0.00  0.00     0.136 C 
ATOM      5  C12 <0> d          -5.454   3.193  -2.039  0.00  0.00    -0.007 C 
ATOM      6  C13 <0> d          -5.676   3.827  -3.409  0.00  0.00     0.039 C 
ATOM      7  C14 <0> d          -7.180   3.945  -3.674  0.00  0.00     0.233 C 
ATOM      8  N5  <0> d          -7.793   2.612  -3.624  0.00  0.00    -0.075 N 
ATOM      9  C15 <0> d          -7.656   2.047  -2.276  0.00  0.00     0.233 C 
ATOM     10  C16 <0> d          -6.172   1.850  -1.952  0.00  0.00     0.039 C 
ATOM     11  C17 <0> d          -4.648   6.181  -0.167  0.00  0.00     0.251 C 
ATOM     12  O2  <0> d          -5.632   6.890  -0.201  0.00  0.00    -0.270 OA
ATOM     13  H23 <0> d          -8.772   2.685  -3.859  0.00  0.00     0.277 HD
ATOM     14  H34 <0> d          -7.335   2.007  -4.289  0.00  0.00     0.277 HD
ENDROOT
BRANCH   1  15
ATOM     15  C8  <0> d          -3.635   1.562  -1.508  0.00  0.00     0.224 C 
ATOM     16  N3  <0> d          -3.241   0.762  -2.518  0.00  0.00    -0.353 N 
ATOM     17  H14 <0> d          -3.161   1.119  -3.416  0.00  0.00     0.163 HD
ATOM     18  O1  <0> d          -3.736   1.116  -0.385  0.00  0.00    -0.273 OA
BRANCH  16  19
ATOM     19  C6  <0> d          -2.935  -0.647  -2.259  0.00  0.00     0.113 C 
ATOM     20  C7  <0> d          -4.229  -1.464  -2.291  0.00  0.00     0.037 C 
BRANCH  19  21
ATOM     21  C3  <0> d          -1.992  -1.159  -3.317  0.00  0.00    -0.006 A 
ATOM     22  C2  <0> d          -2.197  -1.183  -4.821  0.00  0.00     0.160 A 
ATOM     23  C1  <0> d          -2.364   0.236  -5.368  0.00  0.00     0.041 C 
ATOM     24  N2  <0> d          -0.951  -1.790  -5.319  0.00  0.00    -0.183 NA
ATOM     25  N1  <0> d          -0.237  -2.035  -4.339  0.00  0.00    -0.159 NA
ATOM     26  C4  <0> d          -0.781  -1.695  -3.149  0.00  0.00     0.059 A 
ATOM     27  C5  <0> d          -0.111  -1.895  -1.814  0.00  0.00     0.072 C 
ENDBRANCH  19  21
ENDBRANCH  16  19
ENDBRANCH   1  15
BRANCH  11  28
ATOM     28  C18 <0> d          -3.318   6.758   0.246  0.00  0.00     0.245 C 
ATOM     29  O4  <0> d          -3.446   8.169   0.449  0.00  0.00    -0.331 OA
ATOM     30  C25 <0> d          -2.426   8.788   1.105  0.00  0.00     0.103 A 
ATOM     31  C20 <0> d          -1.512   8.054   1.852  0.00  0.00     0.102 A 
ATOM     32  C24 <0> d          -2.305  10.167   1.028  0.00  0.00     0.040 A 
ATOM     33  O3  <0> d          -1.610   6.699   1.937  0.00  0.00    -0.345 OA
ATOM     34  C21 <0> d          -0.486   8.706   2.520  0.00  0.00     0.039 A 
ATOM     35  C19 <0> d          -2.866   6.121   1.567  0.00  0.00     0.218 C 
ATOM     36  C22 <0> d          -0.372  10.081   2.440  0.00  0.00     0.003 A 
ATOM     37  C23 <0> d          -1.279  10.810   1.695  0.00  0.00     0.003 A 
ENDBRANCH  11  28
TORSDOF 4
