REMARK  6 active torsions:
REMARK  status: ('A' for Active; 'I' for Inactive)
REMARK       I    between atoms: C2_2  and  N1_4 
REMARK    1  A    between atoms: N1_4  and  C3_5 
REMARK    2  A    between atoms: C6_8  and  C9_11 
REMARK    3  A    between atoms: C9_11  and  C10_13 
REMARK    4  A    between atoms: C10_13  and  O3_14 
REMARK    5  A    between atoms: O3_14  and  C11_15 
REMARK    6  A    between atoms: C11_15  and  C12_17 
ROOT
ATOM      1  C9  <0> d          -5.053   3.462  -0.178  0.00  0.00     0.183 C 
ATOM      2  O2  <0> d          -6.063   2.794  -0.110  0.00  0.00    -0.290 OA
ENDROOT
BRANCH   1   3
ATOM      3  C6  <0> d          -3.737   2.811  -0.129  0.00  0.00     0.012 A 
ATOM      4  C5  <0> d          -2.570   3.580  -0.207  0.00  0.00     0.017 A 
ATOM      5  C4  <0> d          -1.344   2.968  -0.157  0.00  0.00     0.030 A 
ATOM      6  C3  <0> d          -1.259   1.584  -0.038  0.00  0.00     0.034 A 
ATOM      7  C8  <0> d          -2.417   0.815   0.041  0.00  0.00     0.030 A 
ATOM      8  C7  <0> d          -3.647   1.419  -0.004  0.00  0.00     0.017 A 
BRANCH   6   9
ATOM      9  N1  <0> d          -0.011   0.966   0.007  0.00  0.00    -0.328 N 
ATOM     10  C2  <0> d           1.022   1.578   0.619  0.00  0.00     0.218 C 
ATOM     11  C1  <0> d           2.346   0.870   0.753  0.00  0.00     0.117 C 
ATOM     12  O1  <0> d           0.887   2.699   1.061  0.00  0.00    -0.274 OA
ATOM     13  H4  <0> d           0.115   0.097  -0.405  0.00  0.00     0.169 HD
ENDBRANCH   6   9
ENDBRANCH   1   3
BRANCH   1  14
ATOM     14  C10 <0> d          -5.148   4.960  -0.312  0.00  0.00     0.263 C 
BRANCH  14  15
ATOM     15  O3  <0> d          -6.544   5.356  -0.337  0.00  0.00    -0.310 OA
BRANCH  15  16
ATOM     16  C11 <0> d          -6.805   6.673  -0.454  0.00  0.00     0.294 C 
ATOM     17  O4  <0> d          -5.889   7.469  -0.533  0.00  0.00    -0.259 OA
BRANCH  16  18
ATOM     18  C12 <0> d          -8.196   7.148  -0.487  0.00  0.00     0.053 A 
ATOM     19  C15 <0> d          -8.503   8.561  -0.606  0.00  0.00    -0.028 A 
ATOM     20  C14 <0> d          -9.822   8.862  -0.628  0.00  0.00    -0.010 A 
ATOM     21  C16 <0> d          -7.448   9.654  -0.721  0.00  0.00     0.041 C 
ATOM     22  S1  <0> d         -10.640   7.299  -0.481  0.00  0.00    -0.105 SA
ATOM     23  C19 <0> d         -10.436  10.222  -0.745  0.00  0.00     0.046 C 
ATOM     24  C13 <0> d          -9.251   6.266  -0.399  0.00  0.00     0.068 A 
ATOM     25  C18 <0> d          -9.347  11.269  -0.469  0.00  0.00     0.005 C 
ATOM     26  C17 <0> d          -8.102  10.915  -1.288  0.00  0.00     0.005 C 
ENDBRANCH  16  18
ENDBRANCH  15  16
ENDBRANCH  14  15
ENDBRANCH   1  14
TORSDOF 6
