REMARK  8 active torsions:
REMARK  status: ('A' for Active; 'I' for Inactive)
REMARK    1  A    between atoms: C2_2  and  C3_3 
REMARK    2  A    between atoms: C3_3  and  C4_4 
REMARK    3  A    between atoms: C4_4  and  N1_5 
REMARK       I    between atoms: N1_5  and  C5_6 
REMARK    4  A    between atoms: N2_8  and  S1_9 
REMARK    5  A    between atoms: S1_9  and  C6_12 
REMARK    6  A    between atoms: C9_15  and  N3_18 
REMARK       I    between atoms: N3_18  and  C12_19 
REMARK    7  A    between atoms: C12_19  and  C13_21 
REMARK    8  A    between atoms: C13_21  and  N4_22 
ROOT
ATOM      1  C6  <0> d          -6.266  -6.250   0.035  0.00  0.00     0.082 A 
ATOM      2  C7  <0> d          -6.919  -6.513   1.226  0.00  0.00     0.027 A 
ATOM      3  C8  <0> d          -8.289  -6.687   1.239  0.00  0.00     0.031 A 
ATOM      4  C9  <0> d          -9.010  -6.598   0.055  0.00  0.00     0.034 A 
ATOM      5  C10 <0> d          -8.351  -6.335  -1.138  0.00  0.00     0.031 A 
ATOM      6  C11 <0> d          -6.981  -6.157  -1.144  0.00  0.00     0.027 A 
ENDROOT
BRANCH   4   7
ATOM      7  N3  <0> d         -10.398  -6.775   0.065  0.00  0.00    -0.326 N 
ATOM      8  C12 <0> d         -11.121  -6.375   1.130  0.00  0.00     0.240 C 
ATOM      9  O4  <0> d         -10.584  -5.776   2.037  0.00  0.00    -0.271 OA
ATOM     10  H15 <0> d         -10.841  -7.186  -0.695  0.00  0.00     0.169 HD
BRANCH   8  11
ATOM     11  C13 <0> d         -12.597  -6.671   1.193  0.00  0.00     0.234 C 
BRANCH  11  12
ATOM     12  N4  <0> d         -13.150  -6.137   2.440  0.00  0.00    -0.315 N 
ATOM     13  C18 <0> d         -13.628  -4.878   2.471  0.00  0.00     0.253 A 
ATOM     14  C17 <0> d         -14.165  -4.359   3.661  0.00  0.00     0.006 A 
ATOM     15  O5  <0> d         -13.599  -4.190   1.463  0.00  0.00    -0.267 OA
ATOM     16  C16 <0> d         -14.185  -5.138   4.780  0.00  0.00     0.013 A 
ATOM     17  C19 <0> d         -14.707  -2.953   3.702  0.00  0.00     0.054 C 
ATOM     18  C15 <0> d         -13.675  -6.442   4.717  0.00  0.00     0.018 A 
ATOM     19  C14 <0> d         -13.169  -6.914   3.553  0.00  0.00     0.095 A 
ENDBRANCH  11  12
ENDBRANCH   8  11
ENDBRANCH   4   7
BRANCH   1  20
ATOM     20  S1  <0> d          -4.518  -6.029   0.023  0.00  0.00     0.286 S 
ATOM     21  O2  <0> d          -4.080  -6.330  -1.295  0.00  0.00    -0.198 OA
ATOM     22  O3  <0> d          -4.014  -6.705   1.167  0.00  0.00    -0.198 OA
BRANCH  20  23
ATOM     23  N2  <0> d          -4.227  -4.416   0.262  0.00  0.00    -0.115 NA
ATOM     24  C5  <0> d          -3.004  -3.974   0.297  0.00  0.00     0.284 C 
ATOM     25  N1  <0> d          -2.763  -2.636   0.495  0.00  0.00    -0.352 N 
ATOM     26  O1  <0> d          -1.971  -4.830   0.139  0.00  0.00    -0.149 OA
ATOM     27  H10 <0> d          -3.505  -2.021   0.608  0.00  0.00     0.163 HD
BRANCH  25  28
ATOM     28  C4  <0> d          -1.386  -2.138   0.534  0.00  0.00     0.123 C 
BRANCH  28  29
ATOM     29  C3  <0> d          -1.397  -0.625   0.765  0.00  0.00     0.019 C 
BRANCH  29  30
ATOM     30  C2  <0> d           0.041  -0.105   0.807  0.00  0.00    -0.003 C 
ATOM     31  C1  <0> d           0.030   1.407   1.038  0.00  0.00     0.005 C 
ENDBRANCH  29  30
ENDBRANCH  28  29
ENDBRANCH  25  28
ENDBRANCH  20  23
ENDBRANCH   1  20
TORSDOF 8
