REMARK  3 active torsions:
REMARK  status: ('A' for Active; 'I' for Inactive)
REMARK    1  A    between atoms: C8_8  and  N2_22 
REMARK    2  A    between atoms: C9_9  and  C13_14 
REMARK    3  A    between atoms: C13_14  and  N1_15 
ROOT
ATOM      1  C1  <0> d           0.160   0.670  -1.048  0.00  0.00     0.048 C 
ATOM      2  C2  <0> d           0.132  -0.793  -0.687  0.00  0.00    -0.061 A 
ATOM      3  C3  <0> d           0.241  -1.752  -1.677  0.00  0.00     0.009 A 
ATOM      4  C4  <0> d           0.216  -3.091  -1.344  0.00  0.00     0.038 A 
ATOM      5  C5  <0> d           0.081  -3.480  -0.015  0.00  0.00     0.078 A 
ATOM      6  C6  <0> d          -0.032  -2.518   0.973  0.00  0.00     0.006 A 
ATOM      7  C7  <0> d           0.001  -1.175   0.634  0.00  0.00     0.019 A 
ATOM      8  C8  <0> d          -0.192  -2.896   2.424  0.00  0.00     0.227 C 
ATOM      9  C9  <0> d           0.235  -4.352   2.627  0.00  0.00     0.081 C 
ATOM     10  C10 <0> d          -0.441  -5.207   1.548  0.00  0.00     0.068 C 
ATOM     11  O1  <0> d           0.066  -4.807   0.274  0.00  0.00    -0.340 OA
ATOM     12  C11 <0> d          -0.123  -6.685   1.788  0.00  0.00     0.047 C 
ATOM     13  C12 <0> d          -1.955  -4.992   1.592  0.00  0.00     0.047 C 
ENDROOT
BRANCH   9  14
ATOM     14  C13 <0> d           1.755  -4.465   2.500  0.00  0.00     0.245 C 
BRANCH  14  15
ATOM     15  N1  <0> d           2.386  -4.015   3.748  0.00  0.00    -0.067 N 
ATOM     16  C18 <0> d           3.844  -4.002   3.580  0.00  0.00     0.184 C 
ATOM     17  C17 <0> d           4.502  -3.457   4.849  0.00  0.00     0.033 C 
ATOM     18  C19 <0> d           4.212  -3.110   2.392  0.00  0.00     0.040 C 
ATOM     19  C16 <0> d           4.132  -4.352   6.035  0.00  0.00     0.004 C 
ATOM     20  C15 <0> d           2.607  -4.419   6.155  0.00  0.00     0.028 C 
ATOM     21  C14 <0> d           2.019  -4.928   4.837  0.00  0.00     0.235 C 
ATOM     22  H32 <0> d           2.065  -3.085   3.969  0.00  0.00     0.280 HD
ENDBRANCH  14  15
ENDBRANCH   9  14
BRANCH   8  23
ATOM     23  N2  <0> d           0.647  -2.021   3.252  0.00  0.00    -0.070 N 
ATOM     24  H29 <0> d           0.287  -1.079   3.219  0.00  0.00     0.275 HD
ATOM     25  H30 <0> d           0.638  -2.351   4.206  0.00  0.00     0.275 HD
ATOM     26  H31 <0> d           1.593  -2.031   2.902  0.00  0.00     0.275 HD
ENDBRANCH   8  23
TORSDOF 3
