REMARK  7 active torsions:
REMARK  status: ('A' for Active; 'I' for Inactive)
REMARK    1  A    between atoms: C4_5  and  C8_11 
REMARK    2  A    between atoms: C8_11  and  C9_12 
REMARK    3  A    between atoms: C9_12  and  N3_13 
REMARK       I    between atoms: N3_13  and  C10_14 
REMARK    4  A    between atoms: C10_14  and  C11_16 
REMARK    5  A    between atoms: N4_18  and  C24_33 
REMARK    6  A    between atoms: C14_20  and  C16_23 
REMARK       I    between atoms: C16_23  and  N5_25 
REMARK    7  A    between atoms: N5_25  and  C17_26 
ROOT
ATOM      1  C11 <0> d           9.135  -1.288   3.673  0.00  0.00     0.176 C 
ATOM      2  C12 <0> d          10.104  -2.430   3.594  0.00  0.00     0.080 C 
ATOM      3  N4  <0> d          11.310  -2.300   3.240  0.00  0.00    -0.383 N 
ATOM      4  C13 <0> d          11.924  -1.037   2.862  0.00  0.00     0.169 C 
ATOM      5  C14 <0> d          11.143   0.133   3.381  0.00  0.00     0.061 C 
ATOM      6  C15 <0> d           9.864   0.022   3.753  0.00  0.00     0.116 C 
ATOM      7  O2  <0> d           9.214   1.111   4.210  0.00  0.00    -0.195 OA
ENDROOT
BRANCH   1   8
ATOM      8  C10 <0> d           8.259  -1.295   2.447  0.00  0.00     0.233 C 
ATOM      9  N3  <0> d           7.289  -0.370   2.308  0.00  0.00    -0.360 N 
ATOM     10  H9  <0> d           7.155   0.300   2.996  0.00  0.00     0.162 HD
ATOM     11  O1  <0> d           8.427  -2.132   1.586  0.00  0.00    -0.272 OA
BRANCH   9  12
ATOM     12  C9  <0> d           6.436  -0.376   1.116  0.00  0.00     0.126 C 
BRANCH  12  13
ATOM     13  C8  <0> d           5.425   0.768   1.206  0.00  0.00     0.066 C 
BRANCH  13  14
ATOM     14  C4  <0> d           4.535   0.762  -0.038  0.00  0.00     0.183 A 
ATOM     15  N1  <0> d           3.639   1.925  -0.023  0.00  0.00    -0.367 N 
ATOM     16  C3  <0> d           2.417   1.477  -0.013  0.00  0.00     0.056 A 
ATOM     17  H32 <0> d           3.908   2.857  -0.021  0.00  0.00     0.161 HD
ATOM     18  C2  <0> d           1.108   2.145   0.003  0.00  0.00     0.033 A 
ATOM     19  C5  <0> d           2.438  -0.012  -0.021  0.00  0.00     0.058 A 
ATOM     20  C1  <0> d          -0.017   1.404   0.010  0.00  0.00     0.026 A 
ATOM     21  C7  <0> d           0.002  -0.004   0.002  0.00  0.00     0.036 A 
ATOM     22  C6  <0> d           1.149  -0.715  -0.012  0.00  0.00     0.055 A 
ATOM     23 Cl1  <0> d          -1.509  -0.859   0.012  0.00  0.00    -0.084 Cl
ATOM     24  N2  <0> d           3.672  -0.426  -0.036  0.00  0.00    -0.367 N 
ATOM     25  H33 <0> d           3.968  -1.350  -0.044  0.00  0.00     0.161 HD
ENDBRANCH  13  14
ENDBRANCH  12  13
ENDBRANCH   9  12
ENDBRANCH   1   8
BRANCH   5  26
ATOM     26  C16 <0> d          11.781   1.396   3.479  0.00  0.00     0.252 C 
ATOM     27  O3  <0> d          11.165   2.358   3.898  0.00  0.00    -0.268 OA
ATOM     28  N5  <0> d          13.070   1.530   3.110  0.00  0.00    -0.352 N 
ATOM     29  H13 <0> d          13.562   0.763   2.776  0.00  0.00     0.163 HD
BRANCH  28  30
ATOM     30  C17 <0> d          13.729   2.834   3.212  0.00  0.00     0.084 C 
ATOM     31  C23 <0> d          15.164   2.629   3.342  0.00  0.00     0.025 C 
ATOM     32  C22 <0> d          15.934   3.953   3.522  0.00  0.00     0.002 C 
ATOM     33  C21 <0> d          16.101   4.597   2.173  0.00  0.00     0.000 C 
ATOM     34  C20 <0> d          14.988   5.618   1.865  0.00  0.00     0.000 C 
ATOM     35  C19 <0> d          13.592   5.128   2.296  0.00  0.00     0.002 C 
ATOM     36  C18 <0> d          13.366   3.676   1.972  0.00  0.00     0.025 C 
ENDBRANCH  28  30
ENDBRANCH   5  26
BRANCH   3  37
ATOM     37  C24 <0> d          12.146  -3.503   3.210  0.00  0.00     0.084 A 
ATOM     38  C26 <0> d          12.770  -3.896   1.869  0.00  0.00     0.027 A 
ATOM     39  C25 <0> d          13.647  -3.314   2.980  0.00  0.00     0.027 A 
ENDBRANCH   3  37
TORSDOF 7
