REMARK  3 active torsions:
REMARK  status: ('A' for Active; 'I' for Inactive)
REMARK       I    between atoms: N1_2  and  C3_4 
REMARK    1  A    between atoms: C3_4  and  C4_6 
REMARK    2  A    between atoms: C9_11  and  N2_12 
REMARK       I    between atoms: N2_12  and  C10_13 
REMARK    3  A    between atoms: C10_13  and  C11_15 
ROOT
ATOM      1  C4  <0> d          -0.933  -2.185  -0.066  0.00  0.00     0.059 A 
ATOM      2  C5  <0> d           0.337  -2.752   0.067  0.00  0.00     0.021 A 
ATOM      3  C6  <0> d           0.473  -4.119   0.165  0.00  0.00     0.025 A 
ATOM      4  C7  <0> d          -0.647  -4.938   0.131  0.00  0.00     0.036 A 
ATOM      5  C8  <0> d          -1.909  -4.391   0.001  0.00  0.00     0.054 A 
ATOM      6  C9  <0> d          -2.064  -3.015  -0.093  0.00  0.00     0.052 A 
ATOM      7 Cl1  <0> d          -0.460  -6.659   0.254  0.00  0.00    -0.084 Cl
ENDROOT
BRANCH   6   8
ATOM      8  N2  <0> d          -3.336  -2.461  -0.219  0.00  0.00    -0.324 N 
ATOM      9  C10 <0> d          -4.419  -3.166   0.163  0.00  0.00     0.253 C 
ATOM     10  O2  <0> d          -4.281  -4.237   0.716  0.00  0.00    -0.270 OA
ATOM     11  H11 <0> d          -3.442  -1.568  -0.582  0.00  0.00     0.169 HD
BRANCH   9  12
ATOM     12  C11 <0> d          -5.801  -2.625  -0.098  0.00  0.00     0.239 C 
ATOM     13  O3  <0> d          -6.776  -3.597   0.290  0.00  0.00    -0.373 OA
ATOM     14  C14 <0> d          -8.126  -3.153   0.127  0.00  0.00     0.196 C 
ATOM     15  C13 <0> d          -8.339  -1.874   0.940  0.00  0.00     0.258 C 
ATOM     16  N3  <0> d          -7.378  -0.852   0.504  0.00  0.00    -0.070 N 
ATOM     17  C12 <0> d          -6.011  -1.345   0.715  0.00  0.00     0.274 C 
ATOM     18  H14 <0> d          -7.518  -0.008   1.039  0.00  0.00     0.277 HD
ATOM     19  H19 <0> d          -7.518  -0.656  -0.476  0.00  0.00     0.277 HD
ENDBRANCH   9  12
ENDBRANCH   6   8
BRANCH   1  20
ATOM     20  C3  <0> d          -1.085  -0.722  -0.170  0.00  0.00     0.255 C 
ATOM     21  N1  <0> d          -0.251  -0.012  -0.956  0.00  0.00    -0.357 N 
ATOM     22  C1  <0> d          -0.322   1.451  -0.967  0.00  0.00     0.152 C 
ATOM     23  C2  <0> d           0.726  -0.704  -1.800  0.00  0.00     0.152 C 
ATOM     24  O1  <0> d          -1.962  -0.155   0.453  0.00  0.00    -0.267 OA
ENDBRANCH   1  20
TORSDOF 3
