REMARK  4 active torsions:
REMARK  status: ('A' for Active; 'I' for Inactive)
REMARK    1  A    between atoms: C7_7  and  N1_8 
REMARK       I    between atoms: N1_8  and  C8_9 
REMARK    2  A    between atoms: C8_9  and  C9_11 
REMARK    3  A    between atoms: C9_11  and  C10_12 
REMARK    4  A    between atoms: C12_15  and  C14_19 
ROOT
ATOM      1  C10 <0> d          -0.245  -0.948   6.037  0.00  0.00     0.136 A 
ATOM      2  C11 <0> d          -0.151  -0.174   7.339  0.00  0.00     0.024 A 
ATOM      3  N2  <0> d          -1.134  -0.293   8.181  0.00  0.00    -0.237 NA
ATOM      4  C12 <0> d          -2.209  -1.068   7.933  0.00  0.00     0.163 A 
ATOM      5  N3  <0> d          -2.392  -1.778   6.843  0.00  0.00    -0.193 NA
ATOM      6  C13 <0> d          -1.495  -1.788   5.853  0.00  0.00     0.255 A 
ATOM      7  O2  <0> d          -1.674  -2.446   4.848  0.00  0.00    -0.270 OA
ATOM      8  C19 <0> d           1.038   0.700   7.645  0.00  0.00     0.066 C 
ENDROOT
BRANCH   1   9
ATOM      9  C9  <0> d          -0.168   0.052   4.882  0.00  0.00     0.123 C 
BRANCH   9  10
ATOM     10  C8  <0> d          -0.056  -0.694   3.578  0.00  0.00     0.223 C 
ATOM     11  N1  <0> d           0.025  -0.015   2.417  0.00  0.00    -0.327 N 
ATOM     12  H9  <0> d           0.078   0.954   2.425  0.00  0.00     0.169 HD
ATOM     13  O1  <0> d          -0.040  -1.907   3.573  0.00  0.00    -0.273 OA
BRANCH  11  14
ATOM     14  C7  <0> d           0.034  -0.706   1.201  0.00  0.00     0.040 A 
ATOM     15  C2  <0> d          -0.584  -0.158   0.084  0.00  0.00    -0.035 A 
ATOM     16  C1  <0> d          -1.264   1.184   0.181  0.00  0.00     0.050 C 
ATOM     17  C3  <0> d          -0.568  -0.840  -1.117  0.00  0.00     0.009 A 
ATOM     18  C4  <0> d           0.055  -2.071  -1.206  0.00  0.00     0.001 A 
ATOM     19  C5  <0> d           0.666  -2.622  -0.095  0.00  0.00     0.002 A 
ATOM     20  C6  <0> d           0.655  -1.945   1.108  0.00  0.00     0.030 A 
ENDBRANCH  11  14
ENDBRANCH   9  10
ENDBRANCH   1   9
BRANCH   4  21
ATOM     21  C14 <0> d          -3.264  -1.123   8.969  0.00  0.00     0.015 A 
ATOM     22  C18 <0> d          -4.411  -1.904   8.787  0.00  0.00     0.034 A 
ATOM     23  C17 <0> d          -5.368  -1.930   9.783  0.00  0.00     0.117 A 
ATOM     24  N4  <0> d          -5.216  -1.224  10.886  0.00  0.00    -0.273 NA
ATOM     25  C16 <0> d          -4.155  -0.471  11.096  0.00  0.00     0.117 A 
ATOM     26  C15 <0> d          -3.146  -0.390  10.156  0.00  0.00     0.034 A 
ENDBRANCH   4  21
TORSDOF 4
