REMARK  4 active torsions:
REMARK  status: ('A' for Active; 'I' for Inactive)
REMARK    1  A    between atoms: C6_6  and  C15_19 
REMARK    2  A    between atoms: C8_8  and  N3_16 
REMARK    3  A    between atoms: N1_9  and  C9_10 
REMARK    4  A    between atoms: C20_24  and  O1_25 
ROOT
ATOM      1  C1  <0> d          -0.341  -0.060  -0.046  0.00  0.00     0.015 C 
ATOM      2  C2  <0> d           0.192  -1.451  -0.395  0.00  0.00    -0.036 C 
ATOM      3  C3  <0> d           1.076  -1.365  -1.641  0.00  0.00     0.067 C 
ATOM      4  C4  <0> d           2.255  -0.465  -1.365  0.00  0.00     0.030 C 
ATOM      5  C5  <0> d           2.775  -0.362  -0.123  0.00  0.00     0.025 C 
ATOM      6  C6  <0> d           3.953   0.539   0.151  0.00  0.00     0.107 C 
ATOM      7  C7  <0> d           4.667   0.900  -1.117  0.00  0.00     0.079 C 
ATOM      8  C8  <0> d           4.070   0.747  -2.328  0.00  0.00     0.124 C 
ATOM      9  N1  <0> d           2.790   0.246  -2.407  0.00  0.00    -0.299 N 
ATOM     10  C14 <0> d           6.002   1.415  -1.052  0.00  0.00     0.100 C 
ATOM     11  N4  <0> d           7.061   1.823  -1.000  0.00  0.00    -0.191 NA
ATOM     12  C22 <0> d           2.232  -1.087   0.952  0.00  0.00     0.159 C 
ATOM     13  O2  <0> d           2.736  -0.986   2.053  0.00  0.00    -0.293 OA
ATOM     14  C23 <0> d           1.040  -1.984   0.764  0.00  0.00     0.092 C 
ATOM     15  C24 <0> d          -0.979  -2.401  -0.655  0.00  0.00     0.015 C 
ENDROOT
BRANCH   6  16
ATOM     16  C15 <0> d           3.466   1.800   0.818  0.00  0.00    -0.011 A 
ATOM     17  C20 <0> d           3.928   2.140   2.081  0.00  0.00     0.075 A 
ATOM     18  C19 <0> d           3.482   3.304   2.690  0.00  0.00     0.037 A 
ATOM     19  C18 <0> d           2.571   4.115   2.042  0.00  0.00     0.003 A 
ATOM     20  C17 <0> d           2.107   3.771   0.786  0.00  0.00     0.001 A 
ATOM     21  C16 <0> d           2.554   2.614   0.175  0.00  0.00     0.011 A 
BRANCH  17  22
ATOM     22  O1  <0> d           4.821   1.338   2.718  0.00  0.00    -0.355 OA
ATOM     23  C21 <0> d           5.254   1.751   4.016  0.00  0.00     0.210 C 
ENDBRANCH  17  22
ENDBRANCH   6  16
BRANCH   8  24
ATOM     24  N3  <0> d           4.743   1.094  -3.474  0.00  0.00    -0.384 N 
ATOM     25  H11 <0> d           5.609   1.529  -3.416  0.00  0.00     0.157 HD
ATOM     26  H12 <0> d           4.354   0.904  -4.342  0.00  0.00     0.157 HD
ENDBRANCH   8  24
BRANCH   9  27
ATOM     27  C9  <0> d           2.029   0.464  -3.562  0.00  0.00     0.058 A 
ATOM     28  C13 <0> d           1.213   1.583  -3.667  0.00  0.00     0.146 A 
ATOM     29  N2  <0> d           0.500   1.794  -4.755  0.00  0.00    -0.271 NA
ATOM     30  C12 <0> d           0.522   0.958  -5.774  0.00  0.00     0.116 A 
ATOM     31  C11 <0> d           1.306  -0.181  -5.742  0.00  0.00     0.021 A 
ATOM     32  C10 <0> d           2.076  -0.440  -4.620  0.00  0.00     0.033 A 
ENDBRANCH   9  27
TORSDOF 4
