REMARK  4 active torsions:
REMARK  status: ('A' for Active; 'I' for Inactive)
REMARK    1  A    between atoms: O1_2  and  C2_3 
REMARK    2  A    between atoms: C8_9  and  C10_13 
REMARK    3  A    between atoms: N2_16  and  C15_19 
REMARK    4  A    between atoms: C15_19  and  C16_20 
REMARK       I    between atoms: C16_20  and  N3_22 
ROOT
ATOM      1  C10 <0> d           1.086  -5.202  -1.854  0.00  0.00    -0.046 C 
ATOM      2  C11 <0> d           1.751  -5.537  -0.767  0.00  0.00     0.008 C 
ATOM      3  C12 <0> d           1.408  -6.742   0.061  0.00  0.00     0.263 C 
ATOM      4  N2  <0> d           0.045  -7.197  -0.237  0.00  0.00    -0.059 N 
ATOM      5  C13 <0> d          -0.091  -7.378  -1.691  0.00  0.00     0.240 C 
ATOM      6  C14 <0> d          -0.088  -5.997  -2.355  0.00  0.00     0.067 C 
ATOM      7  H20 <0> d          -0.618  -6.507   0.081  0.00  0.00     0.280 HD
ENDROOT
BRANCH   1   8
ATOM      8  C8  <0> d           1.504  -4.001  -2.603  0.00  0.00    -0.002 A 
ATOM      9  C6  <0> d           1.276  -2.599  -2.215  0.00  0.00     0.005 A 
ATOM     10  C5  <0> d           1.848  -1.817  -3.231  0.00  0.00     0.043 A 
ATOM     11  C7  <0> d           0.659  -1.986  -1.125  0.00  0.00     0.051 A 
ATOM     12  C4  <0> d           1.790  -0.430  -3.143  0.00  0.00     0.033 A 
ATOM     13  N1  <0> d           2.384  -2.681  -4.165  0.00  0.00    -0.364 N 
ATOM     14  C3  <0> d           1.174   0.166  -2.065  0.00  0.00     0.039 A 
ATOM     15  C2  <0> d           0.606  -0.608  -1.056  0.00  0.00     0.069 A 
ATOM     16  C9  <0> d           2.175  -3.974  -3.783  0.00  0.00     0.101 A 
ATOM     17  H1  <0> d           2.841  -2.409  -4.975  0.00  0.00     0.165 HD
BRANCH  15  18
ATOM     18  O1  <0> d           0.002  -0.004   0.002  0.00  0.00    -0.356 OA
ATOM     19  C1  <0> d          -0.017   1.425   0.010  0.00  0.00     0.210 C 
ENDBRANCH  15  18
ENDBRANCH   1   8
BRANCH   4  20
ATOM     20  C15 <0> d          -0.206  -8.474   0.443  0.00  0.00     0.337 C 
BRANCH  20  21
ATOM     21  C16 <0> d          -0.175  -8.263   1.935  0.00  0.00     0.241 C 
ATOM     22  O2  <0> d           0.036  -7.158   2.387  0.00  0.00    -0.272 OA
ATOM     23  N3  <0> d          -0.382  -9.303   2.767  0.00  0.00    -0.369 N 
ATOM     24  H18 <0> d          -0.550 -10.187   2.406  0.00  0.00     0.159 HD
ATOM     25  H19 <0> d          -0.361  -9.167   3.728  0.00  0.00     0.159 HD
ENDBRANCH  20  21
ENDBRANCH   4  20
TORSDOF 4
