REMARK  7 active torsions:
REMARK  status: ('A' for Active; 'I' for Inactive)
REMARK    1  A    between atoms: C2_2  and  N1_3 
REMARK    2  A    between atoms: N1_3  and  C3_4 
REMARK    3  A    between atoms: N1_3  and  C8_10 
REMARK    4  A    between atoms: C3_4  and  C4_5 
REMARK    5  A    between atoms: C8_10  and  C9_11 
REMARK    6  A    between atoms: C8_10  and  C10_13 
REMARK    7  A    between atoms: C9_11  and  N2_12 
ROOT
ATOM      1  C8  <0> d          -2.245  -0.116   1.124  0.00  0.00     0.282 C 
ENDROOT
BRANCH   1   2
ATOM      2  N1  <0> d          -1.318  -0.082  -0.015  0.00  0.00     0.101 N 
BRANCH   2   3
ATOM      3  C2  <0> d          -0.023   0.490   0.377  0.00  0.00     0.269 C 
ATOM      4  C1  <0> d          -0.167   2.003   0.553  0.00  0.00     0.037 C 
ENDBRANCH   2   3
BRANCH   2   5
ATOM      5  C3  <0> d          -1.148  -1.420  -0.596  0.00  0.00     0.305 C 
BRANCH   5   6
ATOM      6  C4  <0> d          -0.632  -1.292  -2.030  0.00  0.00     0.149 C 
ATOM      7  O1  <0> d          -1.594  -0.605  -2.847  0.00  0.00    -0.384 OA
ATOM      8  C7  <0> d          -1.608  -1.171  -4.164  0.00  0.00     0.168 C 
ATOM      9  C6  <0> d          -0.600  -2.340  -4.181  0.00  0.00     0.029 C 
ATOM     10  C5  <0> d          -0.478  -2.693  -2.674  0.00  0.00     0.036 C 
ENDBRANCH   5   6
ENDBRANCH   2   5
ENDBRANCH   1   2
BRANCH   1  11
ATOM     11  C9  <0> d          -1.448  -0.126   2.430  0.00  0.00     0.270 C 
BRANCH  11  12
ATOM     12  N2  <0> d          -0.732  -1.403   2.557  0.00  0.00    -0.077 N 
ATOM     13  H18 <0> d          -1.386  -2.166   2.464  0.00  0.00     0.274 HD
ATOM     14  H19 <0> d          -0.032  -1.470   1.834  0.00  0.00     0.274 HD
ATOM     15  H24 <0> d          -0.287  -1.450   3.462  0.00  0.00     0.274 HD
ENDBRANCH  11  12
ENDBRANCH   1  11
BRANCH   1  16
ATOM     16  C10 <0> d          -3.132   1.101   1.087  0.00  0.00    -0.006 A 
ATOM     17  C15 <0> d          -4.305   1.125   1.819  0.00  0.00     0.019 A 
ATOM     18  C14 <0> d          -5.117   2.245   1.788  0.00  0.00     0.019 A 
ATOM     19 Br1  <0> d          -4.796  -0.370   2.868  0.00  0.00    -0.050 Br
ATOM     20  C13 <0> d          -4.761   3.335   1.017  0.00  0.00     0.001 A 
ATOM     21  C12 <0> d          -3.591   3.309   0.281  0.00  0.00     0.001 A 
ATOM     22  C11 <0> d          -2.777   2.192   0.316  0.00  0.00     0.011 A 
ENDBRANCH   1  16
TORSDOF 7
