REMARK  4 active torsions:
REMARK  status: ('A' for Active; 'I' for Inactive)
REMARK    1  A    between atoms: C9_10  and  C10_11 
REMARK    2  A    between atoms: C10_11  and  C11_12 
REMARK    3  A    between atoms: C10_11  and  N1_20 
REMARK    4  A    between atoms: C16_17  and  O2_18 
ROOT
ATOM      1  C10 <0> d          -4.860   2.547   0.039  0.00  0.00     0.276 C 
ENDROOT
BRANCH   1   2
ATOM      2  C9  <0> d          -3.355   2.481   0.031  0.00  0.00     0.095 A 
ATOM      3  C2  <0> d          -2.636   1.350   0.022  0.00  0.00    -0.017 A 
ATOM      4  C1  <0> d          -3.168  -0.060   0.017  0.00  0.00     0.052 C 
ATOM      5  C3  <0> d          -1.227   1.761   0.017  0.00  0.00     0.007 A 
ATOM      6  C8  <0> d          -1.245   3.165   0.030  0.00  0.00     0.086 A 
ATOM      7  C4  <0> d          -0.013   1.076   0.008  0.00  0.00     0.034 A 
ATOM      8  C7  <0> d          -0.043   3.861   0.023  0.00  0.00     0.039 A 
ATOM      9  O1  <0> d          -2.538   3.549   0.045  0.00  0.00    -0.311 OA
ATOM     10  C6  <0> d           1.151   3.174   0.008  0.00  0.00     0.022 A 
ATOM     11  C5  <0> d           1.169   1.785   0.001  0.00  0.00     0.011 A 
ATOM     12 Br1  <0> d           2.820   0.864  -0.019  0.00  0.00    -0.051 Br
ENDBRANCH   1   2
BRANCH   1  13
ATOM     13  C11 <0> d          -5.353   2.943  -1.329  0.00  0.00     0.012 A 
ATOM     14  C16 <0> d          -5.533   1.977  -2.308  0.00  0.00     0.076 A 
ATOM     15  C15 <0> d          -5.987   2.344  -3.567  0.00  0.00     0.037 A 
ATOM     16  C14 <0> d          -6.259   3.671  -3.842  0.00  0.00     0.003 A 
ATOM     17  C13 <0> d          -6.079   4.631  -2.864  0.00  0.00     0.001 A 
ATOM     18  C12 <0> d          -5.631   4.267  -1.607  0.00  0.00     0.012 A 
BRANCH  14  19
ATOM     19  O2  <0> d          -5.265   0.673  -2.036  0.00  0.00    -0.355 OA
ATOM     20  C17 <0> d          -5.473  -0.267  -3.092  0.00  0.00     0.210 C 
ENDBRANCH  14  19
ENDBRANCH   1  13
BRANCH   1  21
ATOM     21  N1  <0> d          -5.302   3.542   1.025  0.00  0.00    -0.065 N 
ATOM     22  H15 <0> d          -6.401   3.590   1.031  0.00  0.00     0.275 HD
ATOM     23  H16 <0> d          -4.893   4.528   0.759  0.00  0.00     0.275 HD
ATOM     24  H17 <0> d          -4.942   3.253   2.024  0.00  0.00     0.275 HD
ENDBRANCH   1  21
TORSDOF 4
