REMARK  3 active torsions:
REMARK  status: ('A' for Active; 'I' for Inactive)
REMARK    1  A    between atoms: C6_7  and  N4_19 
REMARK    2  A    between atoms: C7_9  and  C8_11 
REMARK    3  A    between atoms: C8_11  and  N3_12 
ROOT
ATOM      1  C1  <0> d          -1.596   1.384   0.669  0.00  0.00     0.050 C 
ATOM      2  C2  <0> d          -1.424  -0.111   0.597  0.00  0.00    -0.032 A 
ATOM      3  C3  <0> d          -2.079  -0.826  -0.330  0.00  0.00    -0.012 A 
ATOM      4  S1  <0> d          -1.557  -2.500  -0.011  0.00  0.00    -0.074 SA
ATOM      5  C4  <0> d          -0.472  -2.195   1.358  0.00  0.00     0.114 A 
ATOM      6  C5  <0> d          -0.541  -0.794   1.526  0.00  0.00     0.052 A 
ATOM      7  C6  <0> d           0.255  -0.267   2.579  0.00  0.00     0.137 A 
ATOM      8  N1  <0> d           0.991  -1.091   3.307  0.00  0.00    -0.214 NA
ATOM      9  C7  <0> d           1.012  -2.394   3.089  0.00  0.00     0.155 A 
ATOM     10  N2  <0> d           0.286  -2.944   2.134  0.00  0.00    -0.224 NA
ATOM     11  C14 <0> d          -3.032  -0.331  -1.388  0.00  0.00     0.057 C 
ENDROOT
BRANCH   9  12
ATOM     12  C8  <0> d           1.873  -3.273   3.958  0.00  0.00     0.315 C 
BRANCH  12  13
ATOM     13  N3  <0> d           1.098  -3.723   5.122  0.00  0.00    -0.064 N 
ATOM     14  C13 <0> d           0.747  -2.578   5.968  0.00  0.00     0.245 C 
ATOM     15  C12 <0> d          -0.561  -2.641   6.622  0.00  0.00     0.101 C 
ATOM     16  S2  <0> d          -0.553  -4.051   7.802  0.00  0.00    -0.167 SA
ATOM     17  C11 <0> d          -0.398  -5.496   6.733  0.00  0.00     0.075 C 
ATOM     18  C10 <0> d           1.057  -5.813   6.355  0.00  0.00     0.038 C 
ATOM     19  C9  <0> d           1.909  -4.605   5.957  0.00  0.00     0.236 C 
ATOM     20  H21 <0> d           0.262  -4.200   4.819  0.00  0.00     0.280 HD
ENDBRANCH  12  13
ENDBRANCH   9  12
BRANCH   7  21
ATOM     21  N4  <0> d           0.262   1.092   2.839  0.00  0.00    -0.383 N 
ATOM     22  H16 <0> d           0.110   1.724   2.119  0.00  0.00     0.157 HD
ATOM     23  H17 <0> d           0.418   1.412   3.741  0.00  0.00     0.157 HD
ENDBRANCH   7  21
TORSDOF 3
