REMARK  3 active torsions:
REMARK  status: ('A' for Active; 'I' for Inactive)
REMARK    1  A    between atoms: C8_8  and  N2_12 
REMARK    2  A    between atoms: N2_12  and  C10_13 
REMARK    3  A    between atoms: C10_13  and  C11_14 
ROOT
ATOM      1  C1  <0> d          -0.018   1.503   0.010  0.00  0.00     0.049 C 
ATOM      2  C2  <0> d           0.002  -0.004   0.002  0.00  0.00    -0.051 A 
ATOM      3  C3  <0> d           0.006  -0.691  -1.200  0.00  0.00     0.008 A 
ATOM      4  C4  <0> d           0.025  -2.073  -1.202  0.00  0.00     0.009 A 
ATOM      5  C5  <0> d           0.040  -2.773  -0.013  0.00  0.00    -0.035 A 
ATOM      6  C6  <0> d           0.036  -2.089   1.200  0.00  0.00     0.050 A 
ATOM      7  C7  <0> d           0.023  -0.700   1.190  0.00  0.00     0.015 A 
ATOM      8  C8  <0> d           0.030  -0.263   2.636  0.00  0.00     0.313 A 
ATOM      9  C9  <0> d           0.055  -1.562   3.413  0.00  0.00     0.257 A 
ATOM     10  O1  <0> d           0.068  -1.680   4.620  0.00  0.00    -0.270 OA
ATOM     11  N1  <0> d           0.048  -2.561   2.514  0.00  0.00    -0.324 N 
ATOM     12  C15 <0> d           0.061  -4.279  -0.028  0.00  0.00     0.050 C 
ATOM     13  H7  <0> d           0.061  -3.501   2.750  0.00  0.00     0.169 HD
ENDROOT
BRANCH   8  14
ATOM     14  N2  <0> d          -1.184   0.503   2.949  0.00  0.00    -0.054 N 
ATOM     15  H8  <0> d          -1.269   1.276   2.306  0.00  0.00     0.278 HD
ATOM     16  H19 <0> d          -1.991  -0.096   2.864  0.00  0.00     0.278 HD
BRANCH  14  17
ATOM     17  C10 <0> d          -1.098   1.017   4.323  0.00  0.00     0.275 C 
BRANCH  17  18
ATOM     18  C11 <0> d          -2.344   1.803   4.643  0.00  0.00     0.004 A 
ATOM     19  C13 <0> d          -3.481   1.307   5.183  0.00  0.00     0.122 A 
ATOM     20  N4  <0> d          -4.353   2.328   5.315  0.00  0.00    -0.285 N 
ATOM     21  N3  <0> d          -3.734   3.489   4.832  0.00  0.00    -0.185 NA
ATOM     22  C14 <0> d          -5.709   2.239   5.862  0.00  0.00     0.179 C 
ATOM     23  C12 <0> d          -2.530   3.172   4.430  0.00  0.00     0.149 A 
ENDBRANCH  17  18
ENDBRANCH  14  17
ENDBRANCH   8  14
TORSDOF 3
