REMARK  7 active torsions:
REMARK  status: ('A' for Active; 'I' for Inactive)
REMARK    1  A    between atoms: N1_4  and  C6_7 
REMARK    2  A    between atoms: C6_7  and  C7_8 
REMARK    3  A    between atoms: C6_7  and  C13_17 
REMARK    4  A    between atoms: C10_11  and  N2_14 
REMARK    5  A    between atoms: C13_17  and  C14_18 
REMARK    6  A    between atoms: C13_17  and  O5_27 
REMARK    7  A    between atoms: C19_23  and  N3_24 
ROOT
ATOM      1  C6  <0> d           0.606  -0.654   1.186  0.00  0.00     0.155 C 
ENDROOT
BRANCH   1   2
ATOM      2  N1  <0> d           2.054  -0.511   1.354  0.00  0.00    -0.355 N 
ATOM      3  C3  <0> d           2.547   0.660   1.706  0.00  0.00     0.091 A 
ATOM      4  C2  <0> d           3.908   0.833   1.874  0.00  0.00     0.017 A 
ATOM      5  C1  <0> d           4.756  -0.244   1.666  0.00  0.00     0.003 A 
ATOM      6  C5  <0> d           4.201  -1.459   1.297  0.00  0.00     0.017 A 
ATOM      7  C4  <0> d           2.830  -1.558   1.153  0.00  0.00     0.091 A 
ENDBRANCH   1   2
BRANCH   1   8
ATOM      8  C7  <0> d          -0.101  -0.014   2.353  0.00  0.00    -0.032 A 
ATOM      9  C12 <0> d          -0.641  -0.804   3.351  0.00  0.00     0.012 A 
ATOM     10  C11 <0> d          -1.289  -0.217   4.422  0.00  0.00     0.037 A 
ATOM     11  C10 <0> d          -1.396   1.159   4.496  0.00  0.00     0.102 A 
ATOM     12  C9  <0> d          -0.855   1.949   3.498  0.00  0.00     0.037 A 
ATOM     13  C8  <0> d          -0.203   1.362   2.430  0.00  0.00     0.012 A 
BRANCH  11  14
ATOM     14  N2  <0> d          -2.089   1.788   5.643  0.00  0.00    -0.116 N 
ATOM     15  O1  <0> d          -2.565   1.092   6.522  0.00  0.00    -0.532 OA
ATOM     16  O2  <0> d          -2.183   3.001   5.707  0.00  0.00    -0.532 OA
ENDBRANCH  11  14
ENDBRANCH   1   8
BRANCH   1  17
ATOM     17  C13 <0> d           0.172   0.032  -0.111  0.00  0.00     0.181 C 
BRANCH  17  18
ATOM     18  C14 <0> d           0.753  -0.706  -1.289  0.00  0.00     0.006 A 
ATOM     19  C19 <0> d           0.116  -1.828  -1.784  0.00  0.00     0.111 A 
ATOM     20  C18 <0> d           0.649  -2.505  -2.865  0.00  0.00     0.037 A 
ATOM     21  C17 <0> d           1.820  -2.061  -3.450  0.00  0.00     0.002 A 
ATOM     22  C16 <0> d           2.457  -0.938  -2.955  0.00  0.00     0.001 A 
ATOM     23  C15 <0> d           1.922  -0.259  -1.877  0.00  0.00     0.012 A 
BRANCH  19  24
ATOM     24  N3  <0> d          -1.138  -2.304  -1.158  0.00  0.00    -0.115 N 
ATOM     25  O3  <0> d          -1.761  -3.221  -1.663  0.00  0.00    -0.532 OA
ATOM     26  O4  <0> d          -1.547  -1.778  -0.139  0.00  0.00    -0.532 OA
ENDBRANCH  19  24
ENDBRANCH  17  18
BRANCH  17  27
ATOM     27  O5  <0> d           0.641   1.382  -0.116  0.00  0.00    -0.388 OA
ATOM     28  H16 <0> d           1.605   1.463  -0.144  0.00  0.00     0.210 HD
ENDBRANCH  17  27
ENDBRANCH   1  17
TORSDOF 7
