REMARK  5 active torsions:
REMARK  status: ('A' for Active; 'I' for Inactive)
REMARK    1  A    between atoms: C4_4  and  N7_23 
REMARK    2  A    between atoms: N1_5  and  C5_7 
REMARK    3  A    between atoms: N4_11  and  C10_16 
REMARK       I    between atoms: N7_23  and  C16_24 
REMARK    4  A    between atoms: C16_24  and  C17_26 
REMARK    5  A    between atoms: C17_26  and  C18_28 
ROOT
ATOM      1  C1  <0> d           2.643   6.728   0.011  0.00  0.00     0.072 C 
ATOM      2  C2  <0> d           1.770   5.499   0.013  0.00  0.00     0.055 A 
ATOM      3  C3  <0> d           0.372   5.490   0.027  0.00  0.00     0.079 A 
ATOM      4  C4  <0> d          -0.038   4.192   0.018  0.00  0.00     0.136 A 
ATOM      5  N1  <0> d           1.080   3.412   0.010  0.00  0.00    -0.198 N 
ATOM      6  N2  <0> d           2.194   4.261   0.003  0.00  0.00    -0.169 NA
ENDROOT
BRANCH   4   7
ATOM      7  N7  <0> d          -1.355   3.745   0.022  0.00  0.00    -0.304 N 
ATOM      8  C16 <0> d          -2.368   4.633   0.031  0.00  0.00     0.298 C 
ATOM      9  O1  <0> d          -2.132   5.824   0.036  0.00  0.00    -0.264 OA
ATOM     10  H12 <0> d          -1.544   2.793   0.017  0.00  0.00     0.171 HD
BRANCH   8  11
ATOM     11  C17 <0> d          -3.780   4.154   0.034  0.00  0.00     0.252 C 
ATOM     12  O2  <0> d          -4.016   2.961   0.029  0.00  0.00    -0.281 OA
BRANCH  11  13
ATOM     13  C18 <0> d          -4.879   5.117   0.044  0.00  0.00     0.048 A 
ATOM     14  C21 <0> d          -6.324   4.815   0.048  0.00  0.00     0.006 A 
ATOM     15  C20 <0> d          -6.976   6.058   0.058  0.00  0.00     0.043 A 
ATOM     16  C22 <0> d          -7.064   3.636   0.044  0.00  0.00     0.015 A 
ATOM     17  N8  <0> d          -6.006   7.040   0.060  0.00  0.00    -0.364 N 
ATOM     18  C25 <0> d          -8.366   6.097   0.064  0.00  0.00     0.030 A 
ATOM     19  C19 <0> d          -4.776   6.495   0.057  0.00  0.00     0.105 A 
ATOM     20  H1  <0> d          -6.186   7.993   0.066  0.00  0.00     0.165 HD
ATOM     21  C24 <0> d          -9.088   4.923   0.060  0.00  0.00     0.002 A 
ATOM     22  C23 <0> d          -8.441   3.696   0.050  0.00  0.00     0.001 A 
ENDBRANCH  11  13
ENDBRANCH   8  11
ENDBRANCH   4   7
BRANCH   5  23
ATOM     23  C5  <0> d           1.109   2.021   0.002  0.00  0.00     0.169 A 
ATOM     24  N6  <0> d          -0.016   1.317   0.009  0.00  0.00    -0.221 NA
ATOM     25  C9  <0> d           0.002  -0.004   0.002  0.00  0.00     0.237 A 
ATOM     26  N5  <0> d           1.119  -0.698  -0.012  0.00  0.00    -0.221 NA
ATOM     27  C8  <0> d           2.299  -0.084  -0.020  0.00  0.00     0.168 A 
ATOM     28  C6  <0> d           2.332   1.326  -0.013  0.00  0.00     0.079 A 
ATOM     29  N4  <0> d           3.600  -0.502  -0.035  0.00  0.00    -0.215 N 
ATOM     30  C7  <0> d           3.692   1.708  -0.024  0.00  0.00     0.158 A 
ATOM     31  N3  <0> d           4.424   0.630  -0.037  0.00  0.00    -0.177 NA
BRANCH  29  32
ATOM     32  C10 <0> d           4.034  -1.835  -0.046  0.00  0.00     0.060 A 
ATOM     33  C15 <0> d           5.179  -2.187  -0.748  0.00  0.00     0.034 A 
ATOM     34  C14 <0> d           5.605  -3.500  -0.757  0.00  0.00     0.044 A 
ATOM     35  C13 <0> d           4.892  -4.466  -0.067  0.00  0.00     0.116 A 
ATOM     36  C12 <0> d           3.750  -4.116   0.634  0.00  0.00     0.044 A 
ATOM     37  F1  <0> d           5.311  -5.750  -0.076  0.00  0.00    -0.206 F 
ATOM     38  C11 <0> d           3.323  -2.803   0.650  0.00  0.00     0.034 A 
ENDBRANCH  29  32
ENDBRANCH   5  23
TORSDOF 5
