REMARK  3 active torsions:
REMARK  status: ('A' for Active; 'I' for Inactive)
REMARK    1  A    between atoms: C6_7  and  C10_11 
REMARK       I    between atoms: C10_11  and  N2_13 
REMARK    2  A    between atoms: N3_18  and  C16_21 
REMARK    3  A    between atoms: C16_21  and  C17_22 
ROOT
ATOM      1  C10 <0> d           0.783  -5.001   2.178  0.00  0.00     0.246 C 
ATOM      2  O1  <0> d           1.683  -4.846   1.379  0.00  0.00    -0.271 OA
ATOM      3  N2  <0> d           0.978  -5.763   3.272  0.00  0.00    -0.348 N 
ATOM      4  C11 <0> d          -0.126  -5.937   4.214  0.00  0.00     0.135 C 
ATOM      5  C12 <0> d           0.254  -5.325   5.567  0.00  0.00     0.123 C 
ATOM      6  C13 <0> d           1.134  -6.305   6.309  0.00  0.00     0.221 C 
ATOM      7  O2  <0> d           0.699  -6.892   7.277  0.00  0.00    -0.273 OA
ATOM      8  N3  <0> d           2.388  -6.529   5.906  0.00  0.00    -0.348 N 
ATOM      9  C14 <0> d           2.937  -5.823   4.740  0.00  0.00     0.145 C 
ATOM     10  C15 <0> d           2.283  -6.390   3.468  0.00  0.00     0.145 C 
ENDROOT
BRANCH   1  11
ATOM     11  C6  <0> d          -0.552  -4.342   1.947  0.00  0.00     0.198 A 
ATOM     12  N1  <0> d          -0.686  -3.950   0.540  0.00  0.00    -0.373 N 
ATOM     13  C5  <0> d          -0.838  -2.649   0.480  0.00  0.00     0.039 A 
ATOM     14  H30 <0> d          -0.666  -4.553  -0.220  0.00  0.00     0.161 HD
ATOM     15  C4  <0> d          -1.008  -1.765  -0.620  0.00  0.00     0.030 A 
ATOM     16  C8  <0> d          -0.817  -2.068   1.842  0.00  0.00    -0.011 A 
ATOM     17  C3  <0> d          -1.147  -0.438  -0.414  0.00  0.00     0.009 A 
ATOM     18  C2  <0> d          -1.131   0.135   0.865  0.00  0.00    -0.061 A 
ATOM     19  C1  <0> d          -1.293   1.627   1.002  0.00  0.00     0.048 C 
ATOM     20  C9  <0> d          -0.969  -0.615   1.978  0.00  0.00     0.020 A 
ATOM     21  C7  <0> d          -0.647  -3.060   2.745  0.00  0.00     0.021 A 
ENDBRANCH   1  11
BRANCH   8  22
ATOM     22  C16 <0> d           3.224  -7.487   6.634  0.00  0.00     0.163 C 
BRANCH  22  23
ATOM     23  C17 <0> d           4.082  -6.740   7.658  0.00  0.00     0.259 C 
ATOM     24  N5  <0> d           3.227  -5.935   8.579  0.00  0.00     0.118 N 
ATOM     25  C23 <0> d           4.077  -5.770   9.776  0.00  0.00     0.351 C 
ATOM     26  H26 <0> d           2.996  -5.043   8.170  0.00  0.00     0.319 HD
ATOM     27  N4  <0> d           4.915  -6.984   9.875  0.00  0.00    -0.355 N 
ATOM     28  C22 <0> d           3.249  -5.709  11.035  0.00  0.00    -0.032 C 
ATOM     29  C18 <0> d           4.775  -7.734   8.625  0.00  0.00     0.162 C 
ATOM     30  C19 <0> d           5.619  -7.306  11.020  0.00  0.00     0.088 C 
ATOM     31  C20 <0> d           5.031  -6.936  12.182  0.00  0.00     0.017 C 
ATOM     32  C21 <0> d           3.724  -6.269  12.149  0.00  0.00     0.008 C 
ATOM     33  C24 <0> d           1.906  -5.025  11.035  0.00  0.00     0.048 C 
ENDBRANCH  22  23
ENDBRANCH   8  22
TORSDOF 3
