REMARK  4 active torsions:
REMARK  status: ('A' for Active; 'I' for Inactive)
REMARK    1  A    between atoms: S1_2  and  C2_3 
REMARK    2  A    between atoms: C5_6  and  C8_9 
REMARK    3  A    between atoms: C10_11  and  N1_26 
REMARK    4  A    between atoms: C15_18  and  C17_20 
ROOT
ATOM      1  C8  <0> d           2.486   1.125  -0.040  0.00  0.00     0.106 C 
ATOM      2  C9  <0> d           3.640   1.986   0.393  0.00  0.00     0.086 C 
ATOM      3  C10 <0> d           3.526   3.336   0.393  0.00  0.00     0.159 C 
ATOM      4  O1  <0> d           2.393   3.942   0.006  0.00  0.00    -0.297 OA
ATOM      5  C11 <0> d           1.230   3.263   0.030  0.00  0.00     0.067 C 
ATOM      6  C12 <0> d           1.203   1.918   0.001  0.00  0.00     0.031 C 
ATOM      7  C13 <0> d          -0.014   1.210   0.009  0.00  0.00     0.159 C 
ATOM      8  O2  <0> d           0.002  -0.004   0.002  0.00  0.00    -0.293 OA
ATOM      9  C14 <0> d          -1.335   1.931   0.019  0.00  0.00     0.093 C 
ATOM     10  C15 <0> d          -1.162   3.299  -0.644  0.00  0.00     0.032 C 
ATOM     11  C16 <0> d          -0.053   4.059   0.086  0.00  0.00     0.075 C 
ATOM     12  C23 <0> d           4.867   1.375   0.809  0.00  0.00     0.100 C 
ATOM     13  N2  <0> d           5.840   0.890   1.139  0.00  0.00    -0.191 NA
ENDROOT
BRANCH   1  14
ATOM     14  C5  <0> d           2.728   0.637  -1.445  0.00  0.00    -0.044 A 
ATOM     15  C4  <0> d           2.815  -0.720  -1.699  0.00  0.00     0.009 A 
ATOM     16  C3  <0> d           3.036  -1.171  -2.985  0.00  0.00     0.019 A 
ATOM     17  C2  <0> d           3.171  -0.260  -4.025  0.00  0.00    -0.000 A 
ATOM     18  C7  <0> d           3.083   1.103  -3.767  0.00  0.00     0.019 A 
ATOM     19  C6  <0> d           2.856   1.546  -2.479  0.00  0.00     0.009 A 
BRANCH  17  20
ATOM     20  S1  <0> d           3.452  -0.830  -5.668  0.00  0.00    -0.134 SA
ATOM     21  C1  <0> d           3.557   0.692  -6.650  0.00  0.00     0.095 C 
ENDBRANCH  17  20
ENDBRANCH   1  14
BRANCH   3  22
ATOM     22  N1  <0> d           4.593   4.100   0.796  0.00  0.00    -0.379 N 
ATOM     23  H19 <0> d           4.523   5.068   0.799  0.00  0.00     0.158 HD
ATOM     24  H20 <0> d           5.417   3.673   1.077  0.00  0.00     0.158 HD
ENDBRANCH   3  22
BRANCH  10  25
ATOM     25  C17 <0> d          -2.451   4.074  -0.554  0.00  0.00    -0.053 A 
ATOM     26  C22 <0> d          -3.083   4.501  -1.707  0.00  0.00     0.007 A 
ATOM     27  C21 <0> d          -4.266   5.212  -1.624  0.00  0.00     0.001 A 
ATOM     28  C20 <0> d          -4.817   5.494  -0.389  0.00  0.00     0.000 A 
ATOM     29  C19 <0> d          -4.186   5.067   0.764  0.00  0.00     0.001 A 
ATOM     30  C18 <0> d          -3.005   4.352   0.681  0.00  0.00     0.007 A 
ENDBRANCH  10  25
TORSDOF 4
