REMARK  3 active torsions:
REMARK  status: ('A' for Active; 'I' for Inactive)
REMARK    1  A    between atoms: C4_4  and  C12_14 
REMARK    2  A    between atoms: N1_6  and  C6_7 
REMARK    3  A    between atoms: N3_18  and  C16_22 
ROOT
ATOM      1  C12 <0> d           2.419   1.442  -0.013  0.00  0.00     0.049 C 
ATOM      2  C13 <0> d           1.312   1.629   0.752  0.00  0.00     0.106 A 
ATOM      3  C14 <0> d           1.035   2.747   1.661  0.00  0.00     0.283 A 
ATOM      4  O1  <0> d           1.754   3.703   1.883  0.00  0.00    -0.265 OA
ATOM      5  N3  <0> d          -0.177   2.503   2.199  0.00  0.00    -0.228 N 
ATOM      6  C15 <0> d          -0.672   1.356   1.710  0.00  0.00     0.334 A 
ATOM      7  O2  <0> d          -1.752   0.887   2.013  0.00  0.00    -0.246 OA
ATOM      8  N4  <0> d           0.188   0.792   0.843  0.00  0.00    -0.303 N 
ATOM      9  H13 <0> d           0.144  -0.136   0.254  0.00  0.00     0.171 HD
ENDROOT
BRANCH   1  10
ATOM     10  C4  <0> d           3.428   2.503  -0.114  0.00  0.00    -0.009 A 
ATOM     11  C3  <0> d           3.189   3.951  -0.116  0.00  0.00     0.038 A 
ATOM     12  C2  <0> d           4.394   4.538  -0.222  0.00  0.00     0.014 A 
ATOM     13  C1  <0> d           4.640   6.024  -0.261  0.00  0.00     0.068 C 
ATOM     14  N1  <0> d           5.359   3.573  -0.296  0.00  0.00    -0.318 N 
ATOM     15  C5  <0> d           4.794   2.341  -0.232  0.00  0.00     0.023 A 
ATOM     16  C11 <0> d           5.530   1.027  -0.282  0.00  0.00     0.069 C 
BRANCH  14  17
ATOM     17  C6  <0> d           6.733   3.821  -0.420  0.00  0.00     0.057 A 
ATOM     18  C10 <0> d           7.417   3.436  -1.565  0.00  0.00     0.146 A 
ATOM     19  N2  <0> d           8.709   3.667  -1.685  0.00  0.00    -0.271 NA
ATOM     20  C9  <0> d           9.399   4.267  -0.735  0.00  0.00     0.116 A 
ATOM     21  C8  <0> d           8.788   4.679   0.434  0.00  0.00     0.021 A 
ATOM     22  C7  <0> d           7.430   4.462   0.601  0.00  0.00     0.033 A 
ENDBRANCH  14  17
ENDBRANCH   1  10
BRANCH   5  23
ATOM     23  C16 <0> d          -0.827   3.329   3.128  0.00  0.00     0.047 A 
ATOM     24  C21 <0> d          -2.077   2.977   3.616  0.00  0.00     0.032 A 
ATOM     25  C20 <0> d          -2.715   3.792   4.531  0.00  0.00     0.026 A 
ATOM     26  C19 <0> d          -2.108   4.959   4.961  0.00  0.00     0.034 A 
ATOM     27  C18 <0> d          -0.861   5.312   4.476  0.00  0.00     0.026 A 
ATOM     28 Cl1  <0> d          -2.911   5.981   6.111  0.00  0.00    -0.084 Cl
ATOM     29  C17 <0> d          -0.217   4.498   3.565  0.00  0.00     0.032 A 
ENDBRANCH   5  23
TORSDOF 3
