REMARK  3 active torsions:
REMARK  status: ('A' for Active; 'I' for Inactive)
REMARK    1  A    between atoms: C2_2  and  C4_4 
REMARK       I    between atoms: C4_4  and  N1_6 
REMARK    2  A    between atoms: N1_6  and  C5_7 
REMARK    3  A    between atoms: C10_12  and  C11_13 
ROOT
ATOM      1  C5  <0> d           2.544  -0.601  -2.657  0.00  0.00     0.048 A 
ATOM      2  C6  <0> d           1.773  -1.336  -3.547  0.00  0.00     0.030 A 
ATOM      3  C7  <0> d           2.331  -1.811  -4.717  0.00  0.00     0.002 A 
ATOM      4  C8  <0> d           3.661  -1.559  -5.012  0.00  0.00     0.001 A 
ATOM      5  C9  <0> d           4.442  -0.831  -4.139  0.00  0.00     0.017 A 
ATOM      6  C10 <0> d           3.889  -0.340  -2.955  0.00  0.00     0.034 A 
ENDROOT
BRANCH   1   7
ATOM      7  N1  <0> d           1.983  -0.120  -1.476  0.00  0.00    -0.326 N 
ATOM      8  C4  <0> d           1.528   1.147  -1.413  0.00  0.00     0.225 C 
ATOM      9  O1  <0> d           1.692   1.898  -2.351  0.00  0.00    -0.273 OA
ATOM     10  H8  <0> d           1.919  -0.697  -0.699  0.00  0.00     0.169 HD
BRANCH   8  11
ATOM     11  C2  <0> d           0.816   1.631  -0.176  0.00  0.00     0.070 C 
ATOM     12  C1  <0> d           1.750   1.513   1.030  0.00  0.00     0.019 C 
ATOM     13  C3  <0> d           0.406   3.094  -0.363  0.00  0.00     0.019 C 
ENDBRANCH   8  11
ENDBRANCH   1   7
BRANCH   6  14
ATOM     14  C11 <0> d           4.718   0.446  -2.019  0.00  0.00     0.109 A 
ATOM     15  N3  <0> d           5.958   0.816  -2.299  0.00  0.00    -0.374 N 
ATOM     16  C13 <0> d           6.502   1.583  -1.167  0.00  0.00     0.141 A 
ATOM     17  H17 <0> d           6.432   0.615  -3.120  0.00  0.00     0.161 HD
ATOM     18  C12 <0> d           5.344   1.591  -0.149  0.00  0.00     0.141 A 
ATOM     19  N2  <0> d           4.284   0.832  -0.830  0.00  0.00    -0.374 N 
ATOM     20  H18 <0> d           3.404   0.645  -0.465  0.00  0.00     0.161 HD
ENDBRANCH   6  14
TORSDOF 3
