REMARK  7 active torsions:
REMARK  status: ('A' for Active; 'I' for Inactive)
REMARK    1  A    between atoms: C2_2  and  C3_3 
REMARK    2  A    between atoms: C2_2  and  O3_14 
REMARK       I    between atoms: C3_3  and  N1_5 
REMARK    3  A    between atoms: N1_5  and  C4_6 
REMARK    4  A    between atoms: C5_7  and  C8_11 
REMARK       I    between atoms: C8_11  and  N2_13 
REMARK    5  A    between atoms: O3_14  and  C9_15 
REMARK    6  A    between atoms: C9_15  and  C10_17 
REMARK    7  A    between atoms: C15_22  and  O5_23 
ROOT
ATOM      1  C1  <0> d          -2.602   0.061   1.322  0.00  0.00     0.050 C 
ATOM      2  C2  <0> d          -2.482   0.853   0.018  0.00  0.00     0.220 C 
ENDROOT
BRANCH   2   3
ATOM      3  C3  <0> d          -1.187   1.624   0.017  0.00  0.00     0.251 C 
ATOM      4  O1  <0> d          -1.204   2.836   0.023  0.00  0.00    -0.270 OA
ATOM      5  N1  <0> d          -0.011   0.966   0.007  0.00  0.00    -0.318 N 
ATOM      6  H5  <0> d           0.002  -0.004   0.002  0.00  0.00     0.169 HD
BRANCH   5   7
ATOM      7  C4  <0> d           1.180   1.675  -0.000  0.00  0.00     0.092 A 
ATOM      8  S1  <0> d           1.410   3.392   0.007  0.00  0.00    -0.083 SA
ATOM      9  C7  <0> d           3.190   3.453  -0.010  0.00  0.00     0.053 A 
ATOM     10  C6  <0> d           3.544   2.156  -0.021  0.00  0.00     0.027 A 
ATOM     11  C5  <0> d           2.479   1.181  -0.010  0.00  0.00     0.066 A 
BRANCH  11  12
ATOM     12  C8  <0> d           2.755  -0.259  -0.012  0.00  0.00     0.252 C 
ATOM     13  O2  <0> d           1.833  -1.054  -0.006  0.00  0.00    -0.268 OA
ATOM     14  N2  <0> d           4.027  -0.702  -0.022  0.00  0.00    -0.366 N 
ATOM     15  H8  <0> d           4.761  -0.068  -0.026  0.00  0.00     0.159 HD
ATOM     16  H9  <0> d           4.210  -1.654  -0.023  0.00  0.00     0.159 HD
ENDBRANCH  11  12
ENDBRANCH   5   7
ENDBRANCH   2   3
BRANCH   2  17
ATOM     17  O3  <0> d          -3.596   1.777  -0.091  0.00  0.00    -0.303 OA
BRANCH  17  18
ATOM     18  C9  <0> d          -4.707   1.327  -0.706  0.00  0.00     0.297 C 
ATOM     19  O4  <0> d          -4.744   0.192  -1.139  0.00  0.00    -0.259 OA
BRANCH  18  20
ATOM     20  C10 <0> d          -5.878   2.210  -0.853  0.00  0.00     0.073 A 
ATOM     21  C15 <0> d          -7.036   1.745  -1.492  0.00  0.00     0.082 A 
ATOM     22  C14 <0> d          -8.132   2.585  -1.625  0.00  0.00     0.039 A 
ATOM     23  C13 <0> d          -8.082   3.872  -1.129  0.00  0.00     0.022 A 
ATOM     24  C12 <0> d          -6.939   4.336  -0.495  0.00  0.00     0.012 A 
ATOM     25  C11 <0> d          -5.842   3.514  -0.351  0.00  0.00     0.039 A 
ATOM     26 Br1  <0> d          -6.888   6.102   0.179  0.00  0.00    -0.051 Br
BRANCH  21  27
ATOM     27  O5  <0> d          -7.084   0.480  -1.980  0.00  0.00    -0.360 OA
ATOM     28  H13 <0> d          -7.411  -0.173  -1.346  0.00  0.00     0.217 HD
ENDBRANCH  21  27
ENDBRANCH  18  20
ENDBRANCH  17  18
ENDBRANCH   2  17
TORSDOF 7
