REMARK  2 active torsions:
REMARK  status: ('A' for Active; 'I' for Inactive)
REMARK    1  A    between atoms: C6_6  and  N1_9 
REMARK    2  A    between atoms: N1_9  and  C9_10 
ROOT
ATOM      1  N1  <0> d           0.736  -0.504   3.691  0.00  0.00    -0.064 N 
ATOM      2  H17 <0> d           0.679  -1.511   3.728  0.00  0.00     0.278 HD
ATOM      3  H30 <0> d           1.704  -0.224   3.642  0.00  0.00     0.278 HD
ENDROOT
BRANCH   1   4
ATOM      4  C6  <0> d           0.026  -0.018   2.500  0.00  0.00     0.190 C 
ATOM      5  C5  <0> d          -1.409  -0.547   2.511  0.00  0.00     0.033 C 
ATOM      6  C4  <0> d          -2.149  -0.040   1.272  0.00  0.00     0.002 C 
ATOM      7  C3  <0> d          -1.433  -0.534   0.013  0.00  0.00     0.005 C 
ATOM      8  C2  <0> d           0.002  -0.004   0.002  0.00  0.00    -0.013 C 
ATOM      9  C1  <0> d          -0.019   1.526   0.010  0.00  0.00     0.010 C 
ATOM     10  C7  <0> d           0.742  -0.511   1.242  0.00  0.00     0.016 C 
ATOM     11  C8  <0> d           2.178   0.019   1.231  0.00  0.00     0.012 C 
ENDBRANCH   1   4
BRANCH   1  12
ATOM     12  C9  <0> d           0.121   0.067   4.896  0.00  0.00     0.216 C 
ATOM     13  C13 <0> d           0.783  -0.531   6.144  0.00  0.00     0.021 C 
ATOM     14  C12 <0> d           2.275  -0.161   6.120  0.00  0.00     0.034 C 
ATOM     15  C14 <0> d           0.147   0.110   7.384  0.00  0.00     0.034 C 
ATOM     16  C11 <0> d           2.407   1.364   6.090  0.00  0.00     0.235 C 
ATOM     17  N2  <0> d           1.079   1.982   6.094  0.00  0.00    -0.069 N 
ATOM     18  C10 <0> d           0.322   1.584   4.905  0.00  0.00     0.268 C 
ATOM     19  C15 <0> d           0.348   1.629   7.313  0.00  0.00     0.235 C 
ATOM     20  H29 <0> d           1.201   2.983   6.074  0.00  0.00     0.280 HD
ENDBRANCH   1  12
TORSDOF 2
