REMARK  6 active torsions:
REMARK  status: ('A' for Active; 'I' for Inactive)
REMARK    1  A    between atoms: C2_2  and  N1_3 
REMARK    2  A    between atoms: N2_6  and  C7_9 
REMARK    3  A    between atoms: C10_12  and  C13_16 
REMARK       I    between atoms: C13_16  and  N3_18 
REMARK    4  A    between atoms: N3_18  and  C14_19 
REMARK    5  A    between atoms: C14_19  and  C16_21 
REMARK    6  A    between atoms: C16_21  and  N4_22 
ROOT
ATOM      1  C7  <0> d          -4.343  -2.846  -1.665  0.00  0.00     0.069 A 
ATOM      2  C8  <0> d          -3.784  -3.457  -2.783  0.00  0.00     0.033 A 
ATOM      3  C9  <0> d          -4.542  -4.305  -3.558  0.00  0.00     0.019 A 
ATOM      4  C10 <0> d          -5.876  -4.553  -3.221  0.00  0.00     0.035 A 
ATOM      5  C11 <0> d          -6.437  -3.938  -2.098  0.00  0.00     0.061 A 
ATOM      6  C12 <0> d          -5.671  -3.094  -1.323  0.00  0.00     0.143 A 
ATOM      7  F1  <0> d          -6.210  -2.503  -0.234  0.00  0.00    -0.204 F 
ENDROOT
BRANCH   4   8
ATOM      8  C13 <0> d          -6.691  -5.462  -4.051  0.00  0.00     0.252 C 
ATOM      9  O1  <0> d          -6.202  -5.995  -5.028  0.00  0.00    -0.268 OA
ATOM     10  N3  <0> d          -7.977  -5.700  -3.725  0.00  0.00    -0.351 N 
ATOM     11  H18 <0> d          -8.367  -5.274  -2.946  0.00  0.00     0.163 HD
BRANCH  10  12
ATOM     12  C14 <0> d          -8.786  -6.602  -4.548  0.00  0.00     0.100 C 
ATOM     13  C15 <0> d          -8.557  -8.046  -4.098  0.00  0.00     0.034 C 
BRANCH  12  14
ATOM     14  C16 <0> d         -10.265  -6.246  -4.391  0.00  0.00     0.175 C 
BRANCH  14  15
ATOM     15  N4  <0> d         -10.506  -4.907  -4.933  0.00  0.00    -0.272 N 
ATOM     16  N5  <0> d         -10.857  -4.603  -6.255  0.00  0.00    -0.177 NA
ATOM     17  C19 <0> d         -10.989  -3.305  -6.354  0.00  0.00     0.053 A 
ATOM     18  C18 <0> d         -10.717  -2.741  -5.104  0.00  0.00     0.055 A 
ATOM     19  C20 <0> d         -11.363  -2.548  -7.603  0.00  0.00     0.072 C 
ATOM     20  C17 <0> d         -10.423  -3.747  -4.248  0.00  0.00     0.028 A 
ATOM     21  C21 <0> d         -10.067  -3.599  -2.791  0.00  0.00     0.070 C 
ENDBRANCH  14  15
ENDBRANCH  12  14
ENDBRANCH  10  12
ENDBRANCH   4   8
BRANCH   1  22
ATOM     22  N2  <0> d          -3.574  -1.988  -0.884  0.00  0.00    -0.375 N 
ATOM     23  C4  <0> d          -3.521  -0.546  -1.171  0.00  0.00     0.150 C 
ATOM     24  C3  <0> d          -2.051  -0.116  -1.230  0.00  0.00     0.254 C 
ATOM     25  N1  <0> d          -1.376  -0.512   0.012  0.00  0.00    -0.068 N 
ATOM     26  C6  <0> d          -1.355  -1.976   0.125  0.00  0.00     0.254 C 
ATOM     27  H31 <0> d          -1.871  -0.123   0.801  0.00  0.00     0.280 HD
ATOM     28  C5  <0> d          -2.790  -2.499   0.251  0.00  0.00     0.150 C 
BRANCH  25  29
ATOM     29  C2  <0> d           0.002  -0.004   0.002  0.00  0.00     0.230 C 
ATOM     30  C1  <0> d          -0.019   1.526   0.010  0.00  0.00     0.034 C 
ENDBRANCH  25  29
ENDBRANCH   1  22
TORSDOF 6
