REMARK  8 active torsions:
REMARK  status: ('A' for Active; 'I' for Inactive)
REMARK    1  A    between atoms: C3_3  and  N3_15 
REMARK    2  A    between atoms: N1_6  and  C6_9 
REMARK    3  A    between atoms: N3_15  and  C12_16 
REMARK    4  A    between atoms: C15_19  and  C18_22 
REMARK    5  A    between atoms: C18_22  and  N4_23 
REMARK    6  A    between atoms: N4_23  and  C19_24 
REMARK    7  A    between atoms: C19_24  and  C20_25 
REMARK    8  A    between atoms: C20_25  and  N5_31 
ROOT
ATOM      1  C12 <0> d           4.908   6.931   0.867  0.00  0.00     0.032 A 
ATOM      2  C13 <0> d           4.371   6.945  -0.415  0.00  0.00     0.030 A 
ATOM      3  C14 <0> d           3.033   6.660  -0.604  0.00  0.00     0.011 A 
ATOM      4  C15 <0> d           2.228   6.361   0.479  0.00  0.00    -0.033 A 
ATOM      5  C16 <0> d           2.757   6.352   1.757  0.00  0.00     0.011 A 
ATOM      6  C17 <0> d           4.095   6.630   1.954  0.00  0.00     0.030 A 
ENDROOT
BRANCH   4   7
ATOM      7  C18 <0> d           0.768   6.051   0.268  0.00  0.00     0.270 C 
BRANCH   7   8
ATOM      8  N4  <0> d           0.599   4.608   0.057  0.00  0.00    -0.069 N 
ATOM      9  H19 <0> d           1.172   4.298  -0.830  0.00  0.00     0.277 HD
ATOM     10  H40 <0> d           0.966   4.062   0.939  0.00  0.00     0.277 HD
BRANCH   8  11
ATOM     11  C19 <0> d          -0.814   4.268  -0.153  0.00  0.00     0.274 C 
BRANCH  11  12
ATOM     12  C20 <0> d          -0.949   2.759  -0.369  0.00  0.00     0.183 C 
ATOM     13  C25 <0> d          -2.422   2.405  -0.588  0.00  0.00     0.043 C 
ATOM     14  C24 <0> d          -2.947   3.146  -1.819  0.00  0.00     0.003 C 
ATOM     15  C23 <0> d          -2.135   2.733  -3.048  0.00  0.00     0.000 C 
ATOM     16  C22 <0> d          -0.663   3.087  -2.830  0.00  0.00     0.003 C 
ATOM     17  C21 <0> d          -0.138   2.346  -1.599  0.00  0.00     0.043 C 
BRANCH  12  18
ATOM     18  N5  <0> d          -0.445   2.048   0.812  0.00  0.00     0.104 N 
ATOM     19  C29 <0> d          -1.203   2.421   2.015  0.00  0.00     0.299 C 
ATOM     20  C28 <0> d          -0.608   1.704   3.230  0.00  0.00     0.198 C 
ATOM     21  O2  <0> d          -0.620   0.293   2.998  0.00  0.00    -0.388 OA
ATOM     22  C27 <0> d           0.109  -0.106   1.835  0.00  0.00     0.198 C 
ATOM     23  C26 <0> d          -0.479   0.593   0.606  0.00  0.00     0.299 C 
ENDBRANCH  12  18
ENDBRANCH  11  12
ENDBRANCH   8  11
ENDBRANCH   7   8
ENDBRANCH   4   7
BRANCH   1  24
ATOM     24  N3  <0> d           6.259   7.219   1.063  0.00  0.00    -0.350 N 
ATOM     25  H12 <0> d           6.928   7.332   0.197  0.00  0.00     0.166 HD
BRANCH  24  26
ATOM     26  C3  <0> d           6.767   7.364   2.370  0.00  0.00     0.127 A 
ATOM     27  C2  <0> d           7.750   6.628   2.934  0.00  0.00     0.057 A 
ATOM     28  C1  <0> d           8.498   5.501   2.268  0.00  0.00     0.072 C 
ATOM     29  N2  <0> d           7.954   7.078   4.214  0.00  0.00    -0.289 N 
ATOM     30  N1  <0> d           7.073   8.134   4.474  0.00  0.00    -0.217 N 
ATOM     31  C5  <0> d           8.936   6.539   5.158  0.00  0.00     0.178 C 
ATOM     32  C4  <0> d           6.332   8.344   3.366  0.00  0.00     0.295 A 
ATOM     33  O1  <0> d           5.465   9.186   3.223  0.00  0.00    -0.264 OA
BRANCH  30  34
ATOM     34  C6  <0> d           6.981   8.851   5.671  0.00  0.00     0.060 A 
ATOM     35  C11 <0> d           6.946  10.239   5.650  0.00  0.00     0.031 A 
ATOM     36  C10 <0> d           6.854  10.944   6.834  0.00  0.00     0.002 A 
ATOM     37  C9  <0> d           6.799  10.270   8.040  0.00  0.00     0.000 A 
ATOM     38  C8  <0> d           6.835   8.888   8.064  0.00  0.00     0.002 A 
ATOM     39  C7  <0> d           6.920   8.176   6.884  0.00  0.00     0.031 A 
ENDBRANCH  30  34
ENDBRANCH  24  26
ENDBRANCH   1  24
TORSDOF 8
