REMARK  4 active torsions:
REMARK  status: ('A' for Active; 'I' for Inactive)
REMARK    1  A    between atoms: C2_2  and  N1_3 
REMARK    2  A    between atoms: C5_6  and  C7_8 
REMARK    3  A    between atoms: C7_8  and  N2_9 
REMARK       I    between atoms: N2_9  and  C8_10 
REMARK    4  A    between atoms: C8_10  and  C9_12 
ROOT
ATOM      1  N1  <0> d           0.690  -0.478  -1.207  0.00  0.00    -0.071 N 
ATOM      2  C3  <0> d           2.130  -0.151  -1.135  0.00  0.00     0.235 C 
ATOM      3  C4  <0> d           2.890  -1.312  -1.802  0.00  0.00     0.035 C 
ATOM      4  C5  <0> d           1.797  -2.321  -2.224  0.00  0.00     0.031 C 
ATOM      5  C6  <0> d           0.614  -1.959  -1.292  0.00  0.00     0.241 C 
ATOM      6  H16 <0> d           0.278  -0.060  -2.028  0.00  0.00     0.279 HD
ENDROOT
BRANCH   4   7
ATOM      7  C7  <0> d           2.263  -3.758  -1.979  0.00  0.00     0.129 C 
BRANCH   7   8
ATOM      8  N2  <0> d           3.380  -4.068  -2.875  0.00  0.00    -0.351 N 
ATOM      9  C8  <0> d           3.957  -5.286  -2.836  0.00  0.00     0.318 C 
ATOM     10  O1  <0> d           3.550  -6.125  -2.060  0.00  0.00    -0.261 OA
ATOM     11  H15 <0> d           3.705  -3.397  -3.495  0.00  0.00     0.162 HD
BRANCH   9  12
ATOM     12  C9  <0> d           5.098  -5.603  -3.752  0.00  0.00     0.270 C 
ATOM     13  O2  <0> d           5.620  -6.705  -3.717  0.00  0.00    -0.640 OA
ATOM     14  O3  <0> d           5.507  -4.759  -4.532  0.00  0.00    -0.640 OA
ENDBRANCH   9  12
ENDBRANCH   7   8
ENDBRANCH   4   7
BRANCH   1  15
ATOM     15  C2  <0> d           0.002  -0.004   0.002  0.00  0.00     0.230 C 
ATOM     16  C1  <0> d          -0.019   1.526   0.010  0.00  0.00     0.034 C 
ENDBRANCH   1  15
TORSDOF 4
