REMARK  5 active torsions:
REMARK  status: ('A' for Active; 'I' for Inactive)
REMARK    1  A    between atoms: C7_8  and  C10_11 
REMARK    2  A    between atoms: C10_11  and  C11_12 
REMARK    3  A    between atoms: C11_12  and  N2_13 
REMARK       I    between atoms: N2_13  and  C12_14 
REMARK    4  A    between atoms: C12_14  and  C13_16 
REMARK       I    between atoms: N3_18  and  C21_26 
REMARK    5  A    between atoms: C21_26  and  C22_28 
ROOT
ATOM      1  C13 <0> d           4.623  -0.116  -7.496  0.00  0.00     0.106 C 
ATOM      2  C14 <0> d           5.647   0.305  -6.418  0.00  0.00     0.141 C 
ATOM      3  N3  <0> d           6.099  -0.970  -5.812  0.00  0.00    -0.348 N 
ATOM      4  C15 <0> d           6.207  -1.905  -6.958  0.00  0.00     0.136 C 
ATOM      5  C16 <0> d           4.996  -1.566  -7.850  0.00  0.00    -0.007 C 
ATOM      6  C17 <0> d           5.381  -1.668  -9.323  0.00  0.00     0.039 C 
ATOM      7  C18 <0> d           5.691  -3.128  -9.665  0.00  0.00     0.233 C 
ATOM      8  N4  <0> d           4.513  -3.958  -9.387  0.00  0.00    -0.075 N 
ATOM      9  C19 <0> d           4.206  -3.928  -7.952  0.00  0.00     0.233 C 
ATOM     10  C20 <0> d           3.833  -2.502  -7.538  0.00  0.00     0.039 C 
ATOM     11  C21 <0> d           6.354  -1.222  -4.513  0.00  0.00     0.251 C 
ATOM     12  O2  <0> d           6.720  -2.326  -4.170  0.00  0.00    -0.270 OA
ATOM     13  H24 <0> d           3.723  -3.604  -9.906  0.00  0.00     0.277 HD
ATOM     14  H35 <0> d           4.699  -4.909  -9.671  0.00  0.00     0.277 HD
ENDROOT
BRANCH   1  15
ATOM     15  C12 <0> d           3.223  -0.055  -6.942  0.00  0.00     0.224 C 
ATOM     16  N2  <0> d           2.183   0.182  -7.765  0.00  0.00    -0.360 N 
ATOM     17  H15 <0> d           2.335   0.314  -8.714  0.00  0.00     0.162 HD
ATOM     18  O1  <0> d           3.033  -0.220  -5.756  0.00  0.00    -0.273 OA
BRANCH  16  19
ATOM     19  C11 <0> d           0.821   0.242  -7.226  0.00  0.00     0.127 C 
BRANCH  19  20
ATOM     20  C10 <0> d          -0.165   0.522  -8.362  0.00  0.00     0.060 C 
BRANCH  20  21
ATOM     21  C7  <0> d          -1.565   0.583  -7.808  0.00  0.00    -0.029 A 
ATOM     22  C6  <0> d          -2.451  -0.424  -7.765  0.00  0.00     0.096 A 
ATOM     23  N1  <0> d          -3.617   0.005  -7.192  0.00  0.00    -0.365 N 
ATOM     24  C5  <0> d          -3.507   1.332  -6.844  0.00  0.00     0.043 A 
ATOM     25  H9  <0> d          -4.404  -0.545  -7.051  0.00  0.00     0.165 HD
ATOM     26  C4  <0> d          -4.374   2.240  -6.244  0.00  0.00     0.031 A 
ATOM     27  C8  <0> d          -2.217   1.753  -7.214  0.00  0.00    -0.001 A 
ATOM     28  C3  <0> d          -3.961   3.536  -6.021  0.00  0.00     0.009 A 
ATOM     29  C2  <0> d          -2.686   3.945  -6.388  0.00  0.00    -0.061 A 
ATOM     30  C1  <0> d          -2.256   5.367  -6.134  0.00  0.00     0.048 C 
ATOM     31  C9  <0> d          -1.821   3.071  -6.984  0.00  0.00     0.021 A 
ENDBRANCH  20  21
ENDBRANCH  19  20
ENDBRANCH  16  19
ENDBRANCH   1  15
BRANCH  11  32
ATOM     32  C22 <0> d           6.184  -0.132  -3.486  0.00  0.00     0.245 C 
ATOM     33  O4  <0> d           6.412  -0.663  -2.176  0.00  0.00    -0.331 OA
ATOM     34  C29 <0> d           6.590   0.240  -1.173  0.00  0.00     0.103 A 
ATOM     35  C24 <0> d           6.904   1.564  -1.455  0.00  0.00     0.102 A 
ATOM     36  C28 <0> d           6.462  -0.173   0.145  0.00  0.00     0.040 A 
ATOM     37  O3  <0> d           7.030   1.992  -2.741  0.00  0.00    -0.345 OA
ATOM     38  C25 <0> d           7.090   2.465  -0.417  0.00  0.00     0.039 A 
ATOM     39  C23 <0> d           7.209   0.982  -3.740  0.00  0.00     0.218 C 
ATOM     40  C26 <0> d           6.962   2.047   0.894  0.00  0.00     0.003 A 
ATOM     41  C27 <0> d           6.648   0.730   1.174  0.00  0.00     0.003 A 
ENDBRANCH  11  32
TORSDOF 5
