REMARK  6 active torsions:
REMARK  status: ('A' for Active; 'I' for Inactive)
REMARK    1  A    between atoms: C6_6  and  C15_18 
REMARK    2  A    between atoms: N1_8  and  C8_9 
REMARK    3  A    between atoms: C12_13  and  O1_15 
REMARK       I    between atoms: C15_18  and  N2_20 
REMARK    4  A    between atoms: N2_20  and  C16_21 
REMARK    5  A    between atoms: C22_28  and  C24_31 
REMARK    6  A    between atoms: C24_31  and  O4_32 
ROOT
ATOM      1  C1  <0> d           0.586   7.252   0.101  0.00  0.00     0.073 C 
ATOM      2  C2  <0> d           0.814   5.762   0.083  0.00  0.00     0.065 A 
ATOM      3  C3  <0> d           2.109   5.263   0.054  0.00  0.00     0.113 A 
ATOM      4  C4  <0> d           2.296   3.867   0.040  0.00  0.00     0.011 A 
ATOM      5  C5  <0> d           3.654   3.320   0.017  0.00  0.00     0.036 C 
ATOM      6  C6  <0> d           4.690   4.190   0.276  0.00  0.00     0.084 C 
ATOM      7  C7  <0> d           4.339   5.597   0.557  0.00  0.00     0.164 C 
ATOM      8  N1  <0> d           5.123   6.355   1.291  0.00  0.00    -0.336 N 
ATOM      9  O2  <0> d           3.184   6.085   0.036  0.00  0.00    -0.290 OA
ATOM     10  C22 <0> d           1.167   3.039   0.053  0.00  0.00    -0.004 A 
ATOM     11  C23 <0> d          -0.080   3.628   0.075  0.00  0.00     0.127 A 
ATOM     12  N3  <0> d          -0.216   4.941   0.095  0.00  0.00    -0.262 NA
ATOM     13  H21 <0> d           6.093   5.971   1.636  0.00  0.00     0.168 HD
ENDROOT
BRANCH   6  14
ATOM     14  C15 <0> d           6.093   3.735   0.274  0.00  0.00     0.260 C 
ATOM     15  O3  <0> d           6.354   2.571   0.040  0.00  0.00    -0.267 OA
ATOM     16  N2  <0> d           7.085   4.610   0.532  0.00  0.00    -0.320 N 
ATOM     17  H12 <0> d           6.846   5.646   0.815  0.00  0.00     0.169 HD
BRANCH  16  18
ATOM     18  C16 <0> d           8.420   4.201   0.439  0.00  0.00     0.073 A 
ATOM     19  C21 <0> d           9.391   5.087  -0.016  0.00  0.00     0.143 A 
ATOM     20  C20 <0> d          10.710   4.680  -0.101  0.00  0.00     0.044 A 
ATOM     21  F1  <0> d           9.047   6.344  -0.370  0.00  0.00    -0.204 F 
ATOM     22  C19 <0> d          11.061   3.391   0.256  0.00  0.00     0.003 A 
ATOM     23  C18 <0> d          10.097   2.507   0.704  0.00  0.00     0.002 A 
ATOM     24  C17 <0> d           8.778   2.908   0.796  0.00  0.00     0.033 A 
ENDBRANCH  16  18
ENDBRANCH   6  14
BRANCH   8  25
ATOM     25  C8  <0> d           4.731   7.622   1.624  0.00  0.00     0.036 A 
ATOM     26  C13 <0> d           4.097   7.862   2.844  0.00  0.00     0.066 A 
ATOM     27  C12 <0> d           3.703   9.147   3.174  0.00  0.00     0.070 A 
ATOM     28  C11 <0> d           3.939  10.194   2.293  0.00  0.00     0.037 A 
ATOM     29  C10 <0> d           4.567   9.960   1.084  0.00  0.00     0.005 A 
ATOM     30  C9  <0> d           4.969   8.684   0.747  0.00  0.00     0.029 A 
BRANCH  27  31
ATOM     31  O1  <0> d           3.085   9.385   4.361  0.00  0.00    -0.356 OA
ATOM     32  C14 <0> d           2.707  10.735   4.637  0.00  0.00     0.210 C 
ENDBRANCH  27  31
ENDBRANCH   8  25
BRANCH  10  33
ATOM     33  C24 <0> d           1.312   1.539   0.036  0.00  0.00     0.205 C 
BRANCH  33  34
ATOM     34  O4  <0> d           0.016   0.936   0.054  0.00  0.00    -0.396 OA
ATOM     35  H20 <0> d          -0.080  -0.160   0.045  0.00  0.00     0.209 HD
ENDBRANCH  33  34
ENDBRANCH  10  33
TORSDOF 6
