REMARK  3 active torsions:
REMARK  status: ('A' for Active; 'I' for Inactive)
REMARK    1  A    between atoms: C5_5  and  C8_8 
REMARK    2  A    between atoms: C10_11  and  C11_13 
REMARK    3  A    between atoms: C13_16  and  S2_26 
ROOT
ATOM      1  C11 <0> d          -1.259   3.400   0.760  0.00  0.00     0.126 C 
ATOM      2  C12 <0> d          -1.251   3.607   2.262  0.00  0.00     0.087 C 
ATOM      3  N2  <0> d          -0.240   2.970   2.963  0.00  0.00    -0.339 N 
ATOM      4  C13 <0> d           0.135   1.709   2.542  0.00  0.00     0.086 C 
ATOM      5  C14 <0> d          -0.335   1.177   1.387  0.00  0.00     0.065 C 
ATOM      6  C15 <0> d          -1.308   1.891   0.493  0.00  0.00     0.016 C 
ATOM      7  C16 <0> d          -0.948   1.628  -0.972  0.00  0.00     0.016 C 
ATOM      8  C17 <0> d          -1.937   2.363  -1.879  0.00  0.00     0.001 C 
ATOM      9  C18 <0> d          -3.354   1.856  -1.605  0.00  0.00     0.000 C 
ATOM     10  C19 <0> d          -3.715   2.114  -0.141  0.00  0.00     0.001 C 
ATOM     11  C20 <0> d          -2.725   1.379   0.765  0.00  0.00     0.016 C 
ATOM     12  C21 <0> d           0.119  -0.126   1.002  0.00  0.00     0.099 C 
ATOM     13  N3  <0> d           0.478  -1.159   0.696  0.00  0.00    -0.192 NA
ATOM     14  H10 <0> d          -2.191   4.511   3.814  0.00  0.00     0.157 HD
ATOM     15  H11 <0> d           0.189   3.395   3.722  0.00  0.00     0.168 HD
ATOM     16  N4  <0> d          -2.181   4.360   2.805  0.00  0.00    -0.388 N 
ATOM     17  H23 <0> d          -2.897   4.798   2.213  0.00  0.00     0.157 HD
ENDROOT
BRANCH   4  18
ATOM     18  S2  <0> d           1.250   0.769   3.531  0.00  0.00    -0.124 SA
ATOM     19  H22 <0> d           1.465   1.677   4.588  0.00  0.00     0.108 HD
ENDBRANCH   4  18
BRANCH   1  20
ATOM     20  C10 <0> d          -0.007   3.984   0.158  0.00  0.00     0.088 A 
ATOM     21  S1  <0> d           1.649   3.601   0.509  0.00  0.00    -0.083 SA
ATOM     22  C9  <0> d           2.403   4.742  -0.641  0.00  0.00     0.084 A 
ATOM     23  C8  <0> d           1.290   5.322  -1.187  0.00  0.00     0.074 A 
ATOM     24  N1  <0> d           0.106   4.913  -0.760  0.00  0.00    -0.244 NA
BRANCH  23  25
ATOM     25  C5  <0> d           1.408   6.375  -2.226  0.00  0.00    -0.007 A 
ATOM     26  C4  <0> d           2.658   6.716  -2.737  0.00  0.00     0.014 A 
ATOM     27  C3  <0> d           2.761   7.697  -3.703  0.00  0.00     0.007 A 
ATOM     28  C2  <0> d           1.627   8.339  -4.165  0.00  0.00    -0.062 A 
ATOM     29  C1  <0> d           1.746   9.408  -5.220  0.00  0.00     0.048 C 
ATOM     30  C7  <0> d           0.383   8.004  -3.661  0.00  0.00     0.007 A 
ATOM     31  C6  <0> d           0.267   7.021  -2.698  0.00  0.00     0.014 A 
ENDBRANCH  23  25
ENDBRANCH   1  20
TORSDOF 3
