REMARK  7 active torsions:
REMARK  status: ('A' for Active; 'I' for Inactive)
REMARK    1  A    between atoms: N1_3  and  C5_10 
REMARK    2  A    between atoms: C5_10  and  C6_11 
REMARK    3  A    between atoms: C6_11  and  C7_12 
REMARK       I    between atoms: C7_12  and  N3_14 
REMARK    4  A    between atoms: N3_14  and  C8_15 
REMARK    5  A    between atoms: C8_15  and  C9_16 
REMARK    6  A    between atoms: C9_16  and  N4_17 
REMARK       I    between atoms: N5_20  and  C14_23 
REMARK    7  A    between atoms: C14_23  and  C15_25 
ROOT
ATOM      1  C7  <0> d           5.548   2.175   1.857  0.00  0.00     0.219 C 
ATOM      2  O3  <0> d           5.918   2.611   0.787  0.00  0.00    -0.274 OA
ATOM      3  N3  <0> d           6.186   2.536   2.988  0.00  0.00    -0.359 N 
ATOM      4  H8  <0> d           5.890   2.188   3.843  0.00  0.00     0.162 HD
ENDROOT
BRANCH   3   5
ATOM      5  C8  <0> d           7.326   3.453   2.925  0.00  0.00     0.152 C 
BRANCH   5   6
ATOM      6  C9  <0> d           7.864   3.696   4.337  0.00  0.00     0.292 C 
BRANCH   6   7
ATOM      7  N4  <0> d           9.007   4.616   4.274  0.00  0.00     0.093 N 
ATOM      8  C13 <0> d           9.401   5.060   5.617  0.00  0.00     0.292 C 
ATOM      9  C12 <0> d          10.471   6.150   5.499  0.00  0.00     0.156 C 
ATOM     10  N5  <0> d          11.570   5.638   4.667  0.00  0.00    -0.345 N 
ATOM     11  C11 <0> d          11.237   5.051   3.360  0.00  0.00     0.156 C 
ATOM     12  C14 <0> d          12.847   5.706   5.090  0.00  0.00     0.254 C 
ATOM     13  C10 <0> d          10.137   4.003   3.562  0.00  0.00     0.292 C 
ATOM     14  O4  <0> d          13.732   5.180   4.441  0.00  0.00    -0.267 OA
BRANCH  12  15
ATOM     15  C15 <0> d          13.173   6.415   6.337  0.00  0.00     0.039 A 
ATOM     16  C18 <0> d          12.487   7.545   6.724  0.00  0.00     0.066 A 
ATOM     17  S1  <0> d          13.200   7.982   8.178  0.00  0.00    -0.113 SA
ATOM     18  C17 <0> d          14.428   6.702   8.320  0.00  0.00     0.050 A 
ATOM     19  C16 <0> d          14.230   5.964   7.209  0.00  0.00     0.024 A 
ENDBRANCH  12  15
ENDBRANCH   6   7
ENDBRANCH   5   6
ENDBRANCH   3   5
BRANCH   1  20
ATOM     20  C6  <0> d           4.375   1.232   1.921  0.00  0.00     0.123 C 
BRANCH  20  21
ATOM     21  C5  <0> d           3.837   0.989   0.509  0.00  0.00     0.142 C 
BRANCH  21  22
ATOM     22  N1  <0> d           2.697   0.071   0.572  0.00  0.00    -0.309 N 
ATOM     23  C2  <0> d           1.432   0.571   0.723  0.00  0.00     0.101 A 
ATOM     24  C1  <0> d           0.381  -0.274   0.781  0.00  0.00     0.092 A 
ATOM     25  C4  <0> d           0.612  -1.668   0.684  0.00  0.00     0.250 A 
ATOM     26  N2  <0> d           1.873  -2.121   0.536  0.00  0.00    -0.275 N 
ATOM     27  O2  <0> d          -0.320  -2.450   0.734  0.00  0.00    -0.268 OA
ATOM     28  C3  <0> d           2.903  -1.255   0.481  0.00  0.00     0.329 A 
ATOM     29  H1  <0> d           2.039  -3.074   0.470  0.00  0.00     0.173 HD
ATOM     30  O1  <0> d           4.035  -1.678   0.347  0.00  0.00    -0.246 OA
ENDBRANCH  21  22
ENDBRANCH  20  21
ENDBRANCH   1  20
TORSDOF 7
