REMARK  7 active torsions:
REMARK  status: ('A' for Active; 'I' for Inactive)
REMARK    1  A    between atoms: C2_2  and  N1_3 
REMARK       I    between atoms: N1_3  and  C3_4 
REMARK    2  A    between atoms: C3_4  and  C4_6 
REMARK    3  A    between atoms: C4_6  and  N2_7 
REMARK    4  A    between atoms: C7_10  and  N4_12 
REMARK       I    between atoms: N4_12  and  C8_13 
REMARK    5  A    between atoms: C8_13  and  C9_15 
REMARK    6  A    between atoms: C12_18  and  S1_21 
REMARK    7  A    between atoms: S1_21  and  C15_24 
ROOT
ATOM      1  N4  <0> d           2.261  -6.950  -1.280  0.00  0.00    -0.306 N 
ATOM      2  C8  <0> d           2.046  -8.184  -1.778  0.00  0.00     0.257 C 
ATOM      3  O2  <0> d           1.532  -8.317  -2.872  0.00  0.00    -0.267 OA
ATOM      4  H11 <0> d           2.671  -6.845  -0.407  0.00  0.00     0.170 HD
ENDROOT
BRANCH   1   5
ATOM      5  C7  <0> d           1.893  -5.821  -2.022  0.00  0.00     0.151 A 
ATOM      6  C6  <0> d           1.294  -5.828  -3.292  0.00  0.00     0.071 A 
ATOM      7  C5  <0> d           1.097  -4.543  -3.665  0.00  0.00     0.116 A 
ATOM      8  N2  <0> d           1.552  -3.749  -2.673  0.00  0.00    -0.270 N 
ATOM      9  N3  <0> d           2.053  -4.571  -1.655  0.00  0.00    -0.154 NA
BRANCH   8  10
ATOM     10  C4  <0> d           1.532  -2.285  -2.665  0.00  0.00     0.253 C 
BRANCH  10  11
ATOM     11  C3  <0> d           0.827  -1.799  -1.425  0.00  0.00     0.237 C 
ATOM     12  N1  <0> d           0.688  -0.476  -1.203  0.00  0.00    -0.360 N 
ATOM     13  H6  <0> d           1.042   0.162  -1.842  0.00  0.00     0.162 HD
ATOM     14  O1  <0> d           0.384  -2.597  -0.627  0.00  0.00    -0.272 OA
BRANCH  12  15
ATOM     15  C2  <0> d           0.002  -0.004   0.002  0.00  0.00     0.118 C 
ATOM     16  C1  <0> d          -0.019   1.526   0.010  0.00  0.00     0.026 C 
ENDBRANCH  12  15
ENDBRANCH  10  11
ENDBRANCH   8  10
ENDBRANCH   1   5
BRANCH   2  17
ATOM     17  C9  <0> d           2.435  -9.376  -0.995  0.00  0.00     0.032 A 
ATOM     18  C14 <0> d           2.213 -10.655  -1.508  0.00  0.00     0.018 A 
ATOM     19  C13 <0> d           2.584 -11.763  -0.774  0.00  0.00     0.024 A 
ATOM     20  C12 <0> d           3.163 -11.608   0.473  0.00  0.00     0.059 A 
ATOM     21  C11 <0> d           3.381 -10.343   0.990  0.00  0.00     0.024 A 
ATOM     22  C10 <0> d           3.020  -9.227   0.264  0.00  0.00     0.018 A 
BRANCH  20  23
ATOM     23  S1  <0> d           3.627 -13.029   1.406  0.00  0.00     0.178 S 
ATOM     24  O3  <0> d           3.859 -14.041   0.436  0.00  0.00    -0.222 OA
ATOM     25  O4  <0> d           4.679 -12.580   2.250  0.00  0.00    -0.222 OA
BRANCH  23  26
ATOM     26  C15 <0> d           2.163 -13.435   2.396  0.00  0.00     0.105 C 
ATOM     27  C16 <0> d           0.984 -13.730   1.465  0.00  0.00     0.026 C 
ATOM     28  C17 <0> d           2.454 -14.667   3.255  0.00  0.00     0.026 C 
ENDBRANCH  23  26
ENDBRANCH  20  23
ENDBRANCH   2  17
TORSDOF 7
