REMARK  8 active torsions:
REMARK  status: ('A' for Active; 'I' for Inactive)
REMARK    1  A    between atoms: C6_6  and  C8_8 
REMARK       I    between atoms: C8_8  and  N1_10 
REMARK    2  A    between atoms: N1_10  and  C9_11 
REMARK    3  A    between atoms: C9_11  and  C10_12 
REMARK    4  A    between atoms: C11_15  and  S1_20 
REMARK    5  A    between atoms: N4_16  and  C12_17 
REMARK    6  A    between atoms: C12_17  and  C13_18 
REMARK    7  A    between atoms: S1_20  and  C15_21 
REMARK    8  A    between atoms: C15_21  and  C16_22 
REMARK       I    between atoms: C16_22  and  N5_24 
ROOT
ATOM      1  C10 <0> d           2.482   7.999   0.018  0.00  0.00     0.148 A 
ATOM      2  N2  <0> d           3.196   8.272  -1.038  0.00  0.00    -0.132 NA
ATOM      3  N3  <0> d           4.356   8.698  -0.687  0.00  0.00    -0.122 NA
ATOM      4  C11 <0> d           4.446   8.720   0.623  0.00  0.00     0.192 A 
ATOM      5  N4  <0> d           3.251   8.280   1.113  0.00  0.00    -0.306 N 
ENDROOT
BRANCH   1   6
ATOM      6  C9  <0> d           1.068   7.478   0.029  0.00  0.00     0.203 C 
BRANCH   6   7
ATOM      7  N1  <0> d           1.088   6.013   0.022  0.00  0.00    -0.350 N 
ATOM      8  C8  <0> d          -0.070   5.323   0.029  0.00  0.00     0.252 C 
ATOM      9  O1  <0> d          -1.131   5.916   0.042  0.00  0.00    -0.268 OA
ATOM     10  H8  <0> d           1.934   5.539   0.011  0.00  0.00     0.163 HD
BRANCH   8  11
ATOM     11  C6  <0> d          -0.050   3.845   0.022  0.00  0.00     0.032 A 
ATOM     12  C5  <0> d           1.166   3.160   0.007  0.00  0.00     0.017 A 
ATOM     13  C4  <0> d           1.178   1.781   0.000  0.00  0.00     0.002 A 
ATOM     14  C3  <0> d          -0.013   1.076   0.008  0.00  0.00     0.007 A 
ATOM     15  C2  <0> d          -1.222   1.748   0.017  0.00  0.00    -0.061 A 
ATOM     16  C1  <0> d          -2.514   0.972   0.019  0.00  0.00     0.048 C 
ATOM     17  C7  <0> d          -1.248   3.127   0.030  0.00  0.00     0.023 A 
ENDBRANCH   8  11
ENDBRANCH   6   7
ENDBRANCH   1   6
BRANCH   5  18
ATOM     18  C12 <0> d           2.871   8.135   2.521  0.00  0.00     0.159 C 
BRANCH  18  19
ATOM     19  C13 <0> d           3.233   6.753   2.999  0.00  0.00    -0.017 C 
ATOM     20  C14 <0> d           3.994   6.603   4.055  0.00  0.00     0.008 C 
ENDBRANCH  18  19
ENDBRANCH   5  18
BRANCH   4  21
ATOM     21  S1  <0> d           5.843   9.228   1.569  0.00  0.00    -0.081 SA
BRANCH  21  22
ATOM     22  C15 <0> d           6.986   9.661   0.234  0.00  0.00     0.184 C 
BRANCH  22  23
ATOM     23  C16 <0> d           8.289  10.137   0.823  0.00  0.00     0.225 C 
ATOM     24  O2  <0> d           8.431  10.180   2.026  0.00  0.00    -0.273 OA
ATOM     25  N5  <0> d           9.297  10.516   0.011  0.00  0.00    -0.369 N 
ATOM     26  H18 <0> d           9.183  10.482  -0.951  0.00  0.00     0.159 HD
ATOM     27  H19 <0> d          10.135  10.822   0.391  0.00  0.00     0.159 HD
ENDBRANCH  22  23
ENDBRANCH  21  22
ENDBRANCH   4  21
TORSDOF 8
