REMARK  1 active torsions:
REMARK  status: ('A' for Active; 'I' for Inactive)
REMARK    1  A    between atoms: C11_11  and  N1_13 
ROOT
ATOM      1  C1  <0> d          -0.019   1.529   0.010  0.00  0.00     0.015 C 
ATOM      2  C2  <0> d           0.002  -0.004   0.002  0.00  0.00    -0.045 C 
ATOM      3  C3  <0> d           0.601  -0.510  -1.305  0.00  0.00     0.013 C 
ATOM      4  C4  <0> d           0.776  -2.023  -1.234  0.00  0.00     0.042 C 
ATOM      5  C5  <0> d           2.134  -2.412  -0.703  0.00  0.00    -0.025 A 
ATOM      6  C6  <0> d           2.742  -3.501  -1.329  0.00  0.00     0.043 A 
ATOM      7  C7  <0> d           3.984  -3.950  -0.929  0.00  0.00     0.064 A 
ATOM      8  C8  <0> d           4.631  -3.311   0.114  0.00  0.00     0.104 A 
ATOM      9  C9  <0> d           4.029  -2.231   0.735  0.00  0.00     0.111 A 
ATOM     10  C10 <0> d           2.771  -1.774   0.329  0.00  0.00     0.016 A 
ATOM     11  C11 <0> d           2.232  -0.594   1.088  0.00  0.00     0.220 C 
ATOM     12  C12 <0> d           0.726  -0.549   1.214  0.00  0.00     0.046 C 
ATOM     13  O1  <0> d           4.676  -1.602   1.759  0.00  0.00    -0.348 OA
ATOM     14  C13 <0> d           4.809  -2.352   2.969  0.00  0.00     0.178 C 
ATOM     15  C14 <0> d           6.023  -3.265   2.909  0.00  0.00     0.053 C 
ATOM     16  C15 <0> d           5.893  -4.332   1.834  0.00  0.00     0.178 C 
ATOM     17  O2  <0> d           5.856  -3.738   0.534  0.00  0.00    -0.348 OA
ATOM     18 Cl1  <0> d           1.926  -4.308  -2.631  0.00  0.00    -0.084 Cl
ATOM     19  C16 <0> d          -1.471  -0.464   0.071  0.00  0.00     0.015 C 
ENDROOT
BRANCH  11  20
ATOM     20  N1  <0> d           2.827   0.644   0.587  0.00  0.00    -0.071 N 
ATOM     21  H12 <0> d           2.605   0.752  -0.391  0.00  0.00     0.275 HD
ATOM     22  H13 <0> d           2.458   1.428   1.105  0.00  0.00     0.275 HD
ATOM     23  H23 <0> d           3.829   0.607   0.703  0.00  0.00     0.275 HD
ENDBRANCH  11  20
TORSDOF 1
