REMARK  5 active torsions:
REMARK  status: ('A' for Active; 'I' for Inactive)
REMARK    1  A    between atoms: C3_3  and  N3_18 
REMARK    2  A    between atoms: N1_4  and  N2_8 
REMARK    3  A    between atoms: C5_9  and  C6_10 
REMARK    4  A    between atoms: C11_15  and  O1_16 
REMARK       I    between atoms: N3_18  and  C12_19 
REMARK    5  A    between atoms: N3_18  and  O3_23 
REMARK       I    between atoms: C12_19  and  N4_21 
ROOT
ATOM      1  C1  <0> d          -0.141   1.181  -0.971  0.00  0.00     0.031 C 
ATOM      2  C2  <0> d           0.059  -0.245  -0.456  0.00  0.00     0.050 C 
ATOM      3  C3  <0> d          -1.227  -0.794   0.215  0.00  0.00     0.263 C 
ATOM      4  N1  <0> d          -0.912  -1.607   1.375  0.00  0.00    -0.225 N 
ATOM      5  C4  <0> d           0.284  -1.480   1.982  0.00  0.00     0.160 C 
ATOM      6  S1  <0> d           0.828  -2.292   3.388  0.00  0.00    -0.051 SA
ATOM      7  S2  <0> d           1.181  -0.285   1.006  0.00  0.00    -0.086 SA
ATOM      8  C14 <0> d           0.554  -1.173  -1.568  0.00  0.00     0.031 C 
ENDROOT
BRANCH   4   9
ATOM      9  N2  <0> d          -1.851  -2.525   1.864  0.00  0.00    -0.180 NA
ATOM     10  C5  <0> d          -2.301  -3.467   1.092  0.00  0.00     0.153 C 
BRANCH  10  11
ATOM     11  C6  <0> d          -3.205  -4.496   1.636  0.00  0.00     0.017 A 
ATOM     12  C11 <0> d          -3.583  -4.461   2.985  0.00  0.00     0.077 A 
ATOM     13  C10 <0> d          -4.438  -5.429   3.484  0.00  0.00     0.039 A 
ATOM     14  C9  <0> d          -4.908  -6.433   2.658  0.00  0.00     0.022 A 
ATOM     15  C8  <0> d          -4.532  -6.475   1.325  0.00  0.00     0.011 A 
ATOM     16  C7  <0> d          -3.686  -5.515   0.810  0.00  0.00     0.034 A 
ATOM     17 Br1  <0> d          -5.183  -7.855   0.207  0.00  0.00    -0.051 Br
BRANCH  12  18
ATOM     18  O1  <0> d          -3.116  -3.478   3.798  0.00  0.00    -0.360 OA
ATOM     19  H9  <0> d          -3.677  -2.691   3.825  0.00  0.00     0.217 HD
ENDBRANCH  12  18
ENDBRANCH  10  11
ENDBRANCH   4   9
BRANCH   3  20
ATOM     20  N3  <0> d          -2.067   0.331   0.633  0.00  0.00    -0.183 N 
ATOM     21  C12 <0> d          -3.390   0.316   0.377  0.00  0.00     0.343 C 
ATOM     22  O2  <0> d          -3.902  -0.669  -0.119  0.00  0.00    -0.245 OA
ATOM     23  N4  <0> d          -4.145   1.393   0.669  0.00  0.00    -0.345 N 
ATOM     24  C13 <0> d          -5.598   1.338   0.495  0.00  0.00     0.151 C 
ATOM     25  H10 <0> d          -3.726   2.205   0.995  0.00  0.00     0.163 HD
BRANCH  20  26
ATOM     26  O3  <0> d          -1.489   1.433   1.308  0.00  0.00    -0.281 OA
ATOM     27  H14 <0> d          -2.131   2.086   1.618  0.00  0.00     0.245 HD
ENDBRANCH  20  26
ENDBRANCH   3  20
TORSDOF 5
