REMARK  3 active torsions:
REMARK  status: ('A' for Active; 'I' for Inactive)
REMARK    1  A    between atoms: C7_7  and  N1_8 
REMARK    2  A    between atoms: N1_8  and  C8_9 
REMARK    3  A    between atoms: C8_9  and  C10_11 
ROOT
ATOM      1  N1  <0> d           0.001   0.061   2.521  0.00  0.00    -0.066 N 
ATOM      2  H15 <0> d           0.610  -0.037   1.722  0.00  0.00     0.278 HD
ATOM      3  H31 <0> d          -0.177   1.039   2.690  0.00  0.00     0.278 HD
ENDROOT
BRANCH   1   4
ATOM      4  C7  <0> d          -1.268  -0.630   2.257  0.00  0.00     0.190 C 
ATOM      5  C2  <0> d          -2.006   0.077   1.119  0.00  0.00     0.012 C 
ATOM      6  C1  <0> d          -1.141   0.054  -0.143  0.00  0.00     0.012 C 
ATOM      7  C3  <0> d          -3.328  -0.642   0.843  0.00  0.00     0.006 C 
ATOM      8  C4  <0> d          -3.046  -2.092   0.445  0.00  0.00     0.000 C 
ATOM      9  C5  <0> d          -2.308  -2.800   1.583  0.00  0.00     0.002 C 
ATOM     10  C6  <0> d          -0.986  -2.080   1.858  0.00  0.00     0.033 C 
ENDBRANCH   1   4
BRANCH   1  11
ATOM     11  C8  <0> d           0.644  -0.531   3.702  0.00  0.00     0.186 C 
ATOM     12  C9  <0> d           2.031   0.086   3.890  0.00  0.00     0.040 C 
BRANCH  11  13
ATOM     13  C10 <0> d          -0.210  -0.254   4.940  0.00  0.00     0.019 C 
ATOM     14  C14 <0> d           0.459  -0.870   6.172  0.00  0.00     0.034 C 
ATOM     15  C13 <0> d          -0.358  -0.521   7.418  0.00  0.00     0.234 C 
ATOM     16  N2  <0> d          -0.423   0.937   7.573  0.00  0.00    -0.075 N 
ATOM     17  C12 <0> d          -1.127   1.528   6.429  0.00  0.00     0.234 C 
ATOM     18  C15 <0> d          -1.142   1.265   8.811  0.00  0.00     0.269 C 
ATOM     19  H32 <0> d           0.513   1.311   7.620  0.00  0.00     0.279 HD
ATOM     20  C11 <0> d          -0.340   1.259   5.145  0.00  0.00     0.034 C 
ENDBRANCH  11  13
ENDBRANCH   1  11
TORSDOF 3
