REMARK  4 active torsions:
REMARK  status: ('A' for Active; 'I' for Inactive)
REMARK    1  A    between atoms: C3_3  and  C14_22 
REMARK    2  A    between atoms: C6_6  and  C7_7 
REMARK       I    between atoms: C7_7  and  N1_9 
REMARK    3  A    between atoms: N1_9  and  C8_10 
REMARK    4  A    between atoms: C10_12  and  C13_18 
ROOT
ATOM      1  C7  <0> d          -1.172  -2.072  -0.099  0.00  0.00     0.256 C 
ATOM      2  O1  <0> d          -0.108  -2.662  -0.113  0.00  0.00    -0.267 OA
ATOM      3  N1  <0> d          -1.196  -0.729   0.010  0.00  0.00    -0.318 N 
ATOM      4  H6  <0> d          -2.044  -0.265   0.090  0.00  0.00     0.169 HD
ENDROOT
BRANCH   3   5
ATOM      5  C8  <0> d           0.002  -0.004   0.008  0.00  0.00     0.104 A 
ATOM      6  C12 <0> d           0.984  -0.243   0.994  0.00  0.00     0.272 A 
ATOM      7  N2  <0> d           2.133   0.459   0.983  0.00  0.00    -0.331 N 
ATOM      8  O2  <0> d           0.792  -1.086   1.856  0.00  0.00    -0.266 OA
ATOM      9  C11 <0> d           2.363   1.401   0.030  0.00  0.00     0.107 A 
ATOM     10  H1  <0> d           2.804   0.291   1.663  0.00  0.00     0.168 HD
ATOM     11  C10 <0> d           1.444   1.655  -0.929  0.00  0.00     0.065 A 
ATOM     12  C9  <0> d           0.236   0.944  -0.950  0.00  0.00     0.052 A 
BRANCH  11  13
ATOM     13  C13 <0> d           1.719   2.704  -1.976  0.00  0.00     0.418 C 
ATOM     14  F1  <0> d           2.977   3.271  -1.749  0.00  0.00    -0.166 F 
ATOM     15  F2  <0> d           1.697   2.113  -3.244  0.00  0.00    -0.166 F 
ATOM     16  F3  <0> d           0.739   3.699  -1.908  0.00  0.00    -0.166 F 
ENDBRANCH  11  13
ENDBRANCH   3   5
BRANCH   1  17
ATOM     17  C6  <0> d          -2.437  -2.829  -0.202  0.00  0.00     0.032 A 
ATOM     18  C1  <0> d          -3.660  -2.155  -0.180  0.00  0.00     0.018 A 
ATOM     19  C2  <0> d          -4.838  -2.867  -0.282  0.00  0.00     0.017 A 
ATOM     20  C3  <0> d          -4.809  -4.246  -0.393  0.00  0.00     0.048 A 
ATOM     21  C4  <0> d          -3.601  -4.920  -0.410  0.00  0.00     0.017 A 
ATOM     22  C5  <0> d          -2.416  -4.220  -0.315  0.00  0.00     0.018 A 
BRANCH  20  23
ATOM     23  C14 <0> d          -6.099  -5.017  -0.497  0.00  0.00     0.417 C 
ATOM     24  F4  <0> d          -6.540  -5.363   0.785  0.00  0.00    -0.166 F 
ATOM     25  F5  <0> d          -7.067  -4.225  -1.125  0.00  0.00    -0.166 F 
ATOM     26  F6  <0> d          -5.889  -6.179  -1.248  0.00  0.00    -0.166 F 
ENDBRANCH  20  23
ENDBRANCH   1  17
TORSDOF 4
