REMARK  8 active torsions:
REMARK  status: ('A' for Active; 'I' for Inactive)
REMARK    1  A    between atoms: C2_2  and  C3_3 
REMARK    2  A    between atoms: C3_3  and  C4_4 
REMARK    3  A    between atoms: C4_4  and  N1_5 
REMARK    4  A    between atoms: N1_5  and  C5_6 
REMARK       I    between atoms: N1_5  and  C13_20 
REMARK    5  A    between atoms: C6_7  and  N4_19 
REMARK    6  A    between atoms: N2_8  and  C9_15 
REMARK    7  A    between atoms: C9_15  and  C10_16 
REMARK    8  A    between atoms: C13_20  and  C14_22 
ROOT
ATOM      1  C5  <0> d           0.100  -1.257   0.732  0.00  0.00     0.150 A 
ATOM      2  C6  <0> d           1.413  -1.383   1.139  0.00  0.00     0.138 A 
ATOM      3  N2  <0> d           2.417  -0.927   0.317  0.00  0.00    -0.283 N 
ATOM      4  C7  <0> d           2.123  -0.361  -0.867  0.00  0.00     0.331 A 
ATOM      5  O1  <0> d           3.025   0.040  -1.577  0.00  0.00    -0.246 OA
ATOM      6  N3  <0> d           0.850  -0.235  -1.283  0.00  0.00    -0.273 N 
ATOM      7  H1  <0> d           0.659   0.183  -2.171  0.00  0.00     0.173 HD
ATOM      8  C8  <0> d          -0.171  -0.665  -0.516  0.00  0.00     0.280 A 
ATOM      9  O2  <0> d          -1.321  -0.542  -0.900  0.00  0.00    -0.265 OA
ENDROOT
BRANCH   1  10
ATOM     10  N1  <0> d          -0.952  -1.715   1.552  0.00  0.00    -0.306 N 
ATOM     11  C13 <0> d          -1.132  -1.183   2.777  0.00  0.00     0.258 C 
ATOM     12  O3  <0> d          -1.997  -1.624   3.510  0.00  0.00    -0.267 OA
BRANCH  10  13
ATOM     13  C4  <0> d          -1.849  -2.769   1.072  0.00  0.00     0.133 C 
BRANCH  13  14
ATOM     14  C3  <0> d          -1.352  -4.128   1.570  0.00  0.00     0.020 C 
BRANCH  14  15
ATOM     15  C2  <0> d          -2.289  -5.229   1.069  0.00  0.00    -0.003 C 
ATOM     16  C1  <0> d          -1.792  -6.587   1.568  0.00  0.00     0.005 C 
ENDBRANCH  14  15
ENDBRANCH  13  14
ENDBRANCH  10  13
BRANCH  11  17
ATOM     17  C14 <0> d          -0.279  -0.064   3.230  0.00  0.00     0.033 A 
ATOM     18  C19 <0> d           0.326   0.778   2.296  0.00  0.00     0.036 A 
ATOM     19  C18 <0> d           1.118   1.824   2.725  0.00  0.00     0.011 A 
ATOM     20  C17 <0> d           1.320   2.032   4.079  0.00  0.00     0.019 A 
ATOM     21 Br1  <0> d           1.933   2.972   1.462  0.00  0.00    -0.051 Br
ATOM     22  C16 <0> d           0.728   1.197   5.009  0.00  0.00     0.002 A 
ATOM     23  C15 <0> d          -0.070   0.151   4.593  0.00  0.00     0.017 A 
ENDBRANCH  11  17
ENDBRANCH   1  10
BRANCH   2  24
ATOM     24  N4  <0> d           1.713  -1.956   2.351  0.00  0.00    -0.383 N 
ATOM     25  H20 <0> d           2.599  -1.852   2.731  0.00  0.00     0.157 HD
ATOM     26  H21 <0> d           1.038  -2.466   2.827  0.00  0.00     0.157 HD
ENDBRANCH   2  24
BRANCH   3  27
ATOM     27  C9  <0> d           3.815  -1.053   0.737  0.00  0.00     0.139 C 
BRANCH  27  28
ATOM     28  C10 <0> d           4.374  -2.392   0.253  0.00  0.00    -0.004 C 
ATOM     29  C11 <0> d           4.408  -2.408  -1.277  0.00  0.00     0.011 C 
ATOM     30  C12 <0> d           5.792  -2.579   0.796  0.00  0.00     0.011 C 
ENDBRANCH  27  28
ENDBRANCH   3  27
TORSDOF 8
