REMARK  6 active torsions:
REMARK  status: ('A' for Active; 'I' for Inactive)
REMARK    1  A    between atoms: O1_2  and  C2_3 
REMARK    2  A    between atoms: C5_6  and  C8_9 
REMARK    3  A    between atoms: C13_19  and  C14_20 
REMARK    4  A    between atoms: C16_22  and  C18_25 
REMARK    5  A    between atoms: C19_26  and  C20_27 
REMARK    6  A    between atoms: C20_27  and  O3_28 
ROOT
ATOM      1  C8  <0> d           2.982  -2.990   4.184  0.00  0.00     0.098 A 
ATOM      2  C9  <0> d           2.310  -3.986   4.895  0.00  0.00     0.028 A 
ATOM      3  C10 <0> d           3.138  -4.426   5.891  0.00  0.00     0.133 A 
ATOM      4  N1  <0> d           4.284  -3.722   5.814  0.00  0.00    -0.261 N 
ATOM      5  H1  <0> d           5.052  -3.815   6.399  0.00  0.00     0.191 HD
ATOM      6  N2  <0> d           4.173  -2.833   4.732  0.00  0.00    -0.172 NA
ATOM      7  N3  <0> d           2.760  -5.441   6.769  0.00  0.00    -0.311 N 
ATOM      8  C11 <0> d           1.631  -6.130   6.497  0.00  0.00     0.224 C 
ATOM      9  O2  <0> d           1.186  -6.883   7.337  0.00  0.00    -0.273 OA
ATOM     10  C12 <0> d           0.910  -5.994   5.186  0.00  0.00     0.118 C 
ATOM     11  C13 <0> d           0.923  -4.543   4.693  0.00  0.00     0.074 C 
ATOM     12  H10 <0> d           3.292  -5.647   7.553  0.00  0.00     0.170 HD
ENDROOT
BRANCH  11  13
ATOM     13  C14 <0> d           0.569  -4.502   3.229  0.00  0.00    -0.007 A 
ATOM     14  S1  <0> d           1.495  -5.119   1.834  0.00  0.00    -0.104 SA
ATOM     15  C17 <0> d           0.355  -4.654   0.541  0.00  0.00     0.070 A 
ATOM     16  C16 <0> d          -0.650  -4.055   1.251  0.00  0.00     0.025 A 
ATOM     17  C15 <0> d          -0.530  -3.982   2.637  0.00  0.00     0.036 A 
BRANCH  16  18
ATOM     18  C18 <0> d          -1.798  -3.517   0.585  0.00  0.00    -0.064 C 
ATOM     19  C19 <0> d          -2.739  -3.076   0.039  0.00  0.00    -0.075 C 
BRANCH  19  20
ATOM     20  C20 <0> d          -3.919  -2.522  -0.645  0.00  0.00     0.258 C 
BRANCH  20  21
ATOM     21  O3  <0> d          -3.792  -2.728  -2.054  0.00  0.00    -0.389 OA
ATOM     22  H17 <0> d          -4.536  -2.387  -2.569  0.00  0.00     0.210 HD
ENDBRANCH  20  21
ENDBRANCH  19  20
ENDBRANCH  16  18
ENDBRANCH  11  13
BRANCH   1  23
ATOM     23  C5  <0> d           2.455  -2.245   3.014  0.00  0.00    -0.005 A 
ATOM     24  C4  <0> d           3.258  -2.045   1.893  0.00  0.00     0.016 A 
ATOM     25  C3  <0> d           2.765  -1.353   0.807  0.00  0.00     0.037 A 
ATOM     26  C2  <0> d           1.469  -0.856   0.830  0.00  0.00     0.068 A 
ATOM     27  C7  <0> d           0.668  -1.048   1.947  0.00  0.00     0.037 A 
ATOM     28  C6  <0> d           1.154  -1.745   3.034  0.00  0.00     0.016 A 
BRANCH  26  29
ATOM     29  O1  <0> d           0.985  -0.174  -0.242  0.00  0.00    -0.356 OA
ATOM     30  C1  <0> d           1.863  -0.013  -1.358  0.00  0.00     0.210 C 
ENDBRANCH  26  29
ENDBRANCH   1  23
TORSDOF 6
