REMARK  5 active torsions:
REMARK  status: ('A' for Active; 'I' for Inactive)
REMARK    1  A    between atoms: C5_5  and  C8_8 
REMARK    2  A    between atoms: C8_8  and  C9_10 
REMARK    3  A    between atoms: N2_14  and  C12_15 
REMARK    4  A    between atoms: C15_18  and  N5_21 
REMARK    5  A    between atoms: N5_21  and  C16_22 
ROOT
ATOM      1  C12 <0> d           0.711   4.427   0.206  0.00  0.00     0.158 A 
ATOM      2  C13 <0> d           1.224   5.724   0.177  0.00  0.00     0.057 A 
ATOM      3  C14 <0> d           0.333   6.777   0.286  0.00  0.00     0.056 A 
ATOM      4  C15 <0> d          -1.024   6.476   0.418  0.00  0.00     0.146 A 
ATOM      5  N3  <0> d          -1.419   5.212   0.435  0.00  0.00    -0.130 NA
ATOM      6  N4  <0> d          -0.592   4.236   0.329  0.00  0.00    -0.130 NA
ENDROOT
BRANCH   1   7
ATOM      7  N2  <0> d           1.572   3.330   0.098  0.00  0.00    -0.285 N 
ATOM      8  C9  <0> d           1.207   2.015  -0.021  0.00  0.00     0.187 A 
ATOM      9  N1  <0> d           2.304   1.287  -0.090  0.00  0.00    -0.238 NA
ATOM     10  C10 <0> d           3.365   2.086  -0.029  0.00  0.00     0.137 A 
ATOM     11  C11 <0> d           2.933   3.367   0.093  0.00  0.00     0.120 A 
BRANCH   8  12
ATOM     12  C8  <0> d          -0.171   1.503  -0.059  0.00  0.00     0.228 C 
ATOM     13  O1  <0> d          -1.107   2.279  -0.112  0.00  0.00    -0.283 OA
BRANCH  12  14
ATOM     14  C5  <0> d          -0.419   0.046  -0.041  0.00  0.00     0.018 A 
ATOM     15  C4  <0> d          -1.725  -0.442   0.039  0.00  0.00     0.016 A 
ATOM     16  C3  <0> d          -1.950  -1.803   0.055  0.00  0.00     0.007 A 
ATOM     17  C2  <0> d          -0.884  -2.684  -0.007  0.00  0.00    -0.062 A 
ATOM     18  C1  <0> d          -1.137  -4.169   0.012  0.00  0.00     0.048 C 
ATOM     19  C7  <0> d           0.413  -2.207  -0.085  0.00  0.00     0.007 A 
ATOM     20  C6  <0> d           0.651  -0.848  -0.109  0.00  0.00     0.016 A 
ENDBRANCH  12  14
ENDBRANCH   8  12
ENDBRANCH   1   7
BRANCH   4  21
ATOM     21  N5  <0> d          -1.958   7.500   0.531  0.00  0.00    -0.369 N 
ATOM     22  H12 <0> d          -3.027   7.261   0.635  0.00  0.00     0.161 HD
BRANCH  21  23
ATOM     23  C16 <0> d          -1.518   8.901   0.512  0.00  0.00     0.087 C 
ATOM     24  C20 <0> d          -2.675   9.786   0.048  0.00  0.00     0.063 C 
ATOM     25  C19 <0> d          -2.251  11.252   0.039  0.00  0.00     0.121 C 
ATOM     26  N6  <0> d          -1.615  11.665   1.273  0.00  0.00    -0.059 N 
ATOM     27  C21 <0> d          -1.343  11.516  -1.168  0.00  0.00     0.046 C 
ATOM     28  C22 <0> d          -3.526  12.104  -0.154  0.00  0.00     0.046 C 
ATOM     29  C18 <0> d          -0.679  10.784   1.940  0.00  0.00     0.121 C 
ATOM     30  H16 <0> d          -2.459  11.880   1.945  0.00  0.00     0.279 HD
ATOM     31  H31 <0> d          -1.109  12.604   1.006  0.00  0.00     0.279 HD
ATOM     32  C17 <0> d          -1.120   9.323   1.926  0.00  0.00     0.063 C 
ATOM     33  C23 <0> d           0.724  10.903   1.331  0.00  0.00     0.046 C 
ATOM     34  C24 <0> d          -0.574  11.224   3.418  0.00  0.00     0.046 C 
ENDBRANCH  21  23
ENDBRANCH   4  21
TORSDOF 5
