REMARK  4 active torsions:
REMARK  status: ('A' for Active; 'I' for Inactive)
REMARK    1  A    between atoms: C1_1  and  S1_9 
REMARK    2  A    between atoms: S1_9  and  C4_10 
REMARK    3  A    between atoms: C4_10  and  C5_11 
REMARK    4  A    between atoms: C5_11  and  C6_12 
ROOT
ATOM      1  S1  <0> d          -0.807   1.641  -1.525  0.00  0.00    -0.047 SA
ENDROOT
BRANCH   1   2
ATOM      2  C1  <0> d          -0.013   1.086   0.008  0.00  0.00     0.290 A 
ATOM      3  N3  <0> d           1.381   1.561  -0.003  0.00  0.00    -0.162 NA
ATOM      4  N2  <0> d           1.776   2.288   0.915  0.00  0.00    -0.094 NA
ATOM      5  C3  <0> d           1.012   2.682   1.938  0.00  0.00     0.366 A 
ATOM      6  N1  <0> d          -0.276   2.335   2.091  0.00  0.00    -0.274 N 
ATOM      7  O2  <0> d           1.513   3.398   2.781  0.00  0.00    -0.243 OA
ATOM      8  C2  <0> d          -0.874   1.538   1.173  0.00  0.00     0.262 A 
ATOM      9  H2  <0> d          -0.778   2.655   2.857  0.00  0.00     0.173 HD
ATOM     10  O1  <0> d          -2.034   1.203   1.277  0.00  0.00    -0.270 OA
ENDBRANCH   1   2
BRANCH   1  11
ATOM     11  C4  <0> d           0.572   2.234  -2.544  0.00  0.00     0.368 C 
ATOM     12  F6  <0> d           1.226   3.278  -1.882  0.00  0.00    -0.186 F 
ATOM     13  F7  <0> d           1.471   1.186  -2.767  0.00  0.00    -0.186 F 
BRANCH  11  14
ATOM     14  C5  <0> d           0.035   2.738  -3.885  0.00  0.00     0.412 C 
ATOM     15  F4  <0> d          -0.620   1.694  -4.548  0.00  0.00    -0.188 F 
ATOM     16  F5  <0> d          -0.865   3.786  -3.663  0.00  0.00    -0.188 F 
BRANCH  14  17
ATOM     17  C6  <0> d           1.197   3.238  -4.745  0.00  0.00     0.461 C 
ATOM     18  F1  <0> d           2.097   2.190  -4.967  0.00  0.00    -0.165 F 
ATOM     19  F2  <0> d           0.707   3.699  -5.971  0.00  0.00    -0.165 F 
ATOM     20  F3  <0> d           1.852   4.282  -4.082  0.00  0.00    -0.165 F 
ENDBRANCH  14  17
ENDBRANCH  11  14
ENDBRANCH   1  11
TORSDOF 4
