REMARK  5 active torsions:
REMARK  status: ('A' for Active; 'I' for Inactive)
REMARK    1  A    between atoms: N2_7  and  C6_10 
REMARK    2  A    between atoms: C6_10  and  C7_11 
REMARK       I    between atoms: C7_11  and  N3_13 
REMARK    3  A    between atoms: N3_13  and  C8_14 
REMARK    4  A    between atoms: C11_17  and  C14_20 
REMARK       I    between atoms: C14_20  and  N4_22 
REMARK    5  A    between atoms: N4_22  and  O5_24 
ROOT
ATOM      1  C7  <0> d           1.396  -3.189   3.010  0.00  0.00     0.240 C 
ATOM      2  O3  <0> d           2.272  -3.148   2.172  0.00  0.00    -0.271 OA
ATOM      3  N3  <0> d           1.699  -3.487   4.289  0.00  0.00    -0.326 N 
ATOM      4  H8  <0> d           1.007  -3.469   4.968  0.00  0.00     0.169 HD
ENDROOT
BRANCH   3   5
ATOM      5  C8  <0> d           3.007  -3.823   4.635  0.00  0.00     0.034 A 
ATOM      6  C13 <0> d           3.241  -4.788   5.609  0.00  0.00     0.030 A 
ATOM      7  C12 <0> d           4.532  -5.126   5.950  0.00  0.00     0.019 A 
ATOM      8  C11 <0> d           5.607  -4.491   5.323  0.00  0.00     0.034 A 
ATOM      9  C10 <0> d           5.369  -3.518   4.348  0.00  0.00     0.019 A 
ATOM     10  C9  <0> d           4.076  -3.189   4.009  0.00  0.00     0.030 A 
BRANCH   8  11
ATOM     11  C14 <0> d           6.992  -4.847   5.689  0.00  0.00     0.277 C 
ATOM     12  O4  <0> d           7.899  -4.067   5.470  0.00  0.00    -0.265 OA
ATOM     13  N4  <0> d           7.252  -6.037   6.266  0.00  0.00    -0.227 N 
ATOM     14  C15 <0> d           8.633  -6.414   6.577  0.00  0.00     0.189 C 
BRANCH  13  15
ATOM     15  O5  <0> d           6.190  -6.922   6.572  0.00  0.00    -0.281 OA
ATOM     16  C16 <0> d           5.952  -7.913   5.571  0.00  0.00     0.238 C 
ENDBRANCH  13  15
ENDBRANCH   8  11
ENDBRANCH   3   5
BRANCH   1  17
ATOM     17  C6  <0> d          -0.032  -2.905   2.621  0.00  0.00     0.236 C 
BRANCH  17  18
ATOM     18  N2  <0> d          -0.098  -2.609   1.187  0.00  0.00    -0.301 N 
ATOM     19  C4  <0> d          -0.295  -3.627   0.294  0.00  0.00     0.102 A 
ATOM     20  C3  <0> d          -0.356  -3.355  -1.027  0.00  0.00     0.092 A 
ATOM     21  C2  <0> d          -0.214  -2.015  -1.462  0.00  0.00     0.252 A 
ATOM     22  N1  <0> d          -0.021  -1.040  -0.550  0.00  0.00    -0.271 N 
ATOM     23  O1  <0> d          -0.265  -1.745  -2.648  0.00  0.00    -0.268 OA
ATOM     24  C1  <0> d           0.128   0.350  -0.988  0.00  0.00     0.164 C 
ATOM     25  C5  <0> d           0.041  -1.341   0.761  0.00  0.00     0.331 A 
ATOM     26  O2  <0> d           0.220  -0.452   1.571  0.00  0.00    -0.246 OA
ENDBRANCH  17  18
ENDBRANCH   1  17
TORSDOF 5
