REMARK  4 active torsions:
REMARK  status: ('A' for Active; 'I' for Inactive)
REMARK    1  A    between atoms: C6_6  and  S1_7 
REMARK    2  A    between atoms: S1_7  and  N1_10 
REMARK    3  A    between atoms: N1_10  and  C7_11 
REMARK    4  A    between atoms: C7_11  and  C8_12 
ROOT
ATOM      1  C1  <0> d          -0.017   1.379   0.010  0.00  0.00     0.037 A 
ATOM      2  C2  <0> d           1.167   2.083   0.002  0.00  0.00    -0.021 A 
ATOM      3  C3  <0> d           2.388   1.421  -0.013  0.00  0.00     0.043 A 
ATOM      4  C4  <0> d           2.400   0.027  -0.021  0.00  0.00     0.055 A 
ATOM      5  C5  <0> d           1.212  -0.676  -0.015  0.00  0.00     0.059 A 
ATOM      6  C6  <0> d           0.002  -0.004   0.002  0.00  0.00     0.101 A 
ATOM      7 Cl1  <0> d           1.236  -2.412  -0.026  0.00  0.00    -0.083 Cl
ATOM      8  N5  <0> d           3.436   2.342  -0.018  0.00  0.00    -0.326 N 
ATOM      9  C10 <0> d           2.998   3.612  -0.006  0.00  0.00     0.226 A 
ATOM     10  O3  <0> d           3.684   4.611  -0.007  0.00  0.00    -0.273 OA
ATOM     11  C11 <0> d           1.485   3.560   0.007  0.00  0.00     0.144 A 
ATOM     12  H8  <0> d           4.374   2.094  -0.028  0.00  0.00     0.169 HD
ENDROOT
BRANCH   6  13
ATOM     13  S1  <0> d          -1.510  -0.908   0.012  0.00  0.00     0.260 S 
ATOM     14  O1  <0> d          -1.389  -1.891   1.031  0.00  0.00    -0.200 OA
ATOM     15  O2  <0> d          -2.558   0.052   0.000  0.00  0.00    -0.200 OA
BRANCH  13  16
ATOM     16  N1  <0> d          -1.601  -1.726  -1.425  0.00  0.00    -0.308 N 
ATOM     17  H4  <0> d          -2.298  -1.508  -2.064  0.00  0.00     0.172 HD
BRANCH  16  18
ATOM     18  C7  <0> d          -0.630  -2.778  -1.732  0.00  0.00     0.214 C 
BRANCH  18  19
ATOM     19  C8  <0> d          -1.130  -3.601  -2.891  0.00  0.00     0.165 A 
ATOM     20  N2  <0> d          -0.884  -3.357  -4.178  0.00  0.00    -0.224 NA
ATOM     21  C9  <0> d          -1.467  -4.263  -4.921  0.00  0.00     0.227 A 
ATOM     22  N3  <0> d          -2.109  -5.119  -4.108  0.00  0.00    -0.270 N 
ATOM     23  H1  <0> d          -2.630  -5.894  -4.373  0.00  0.00     0.190 HD
ATOM     24  N4  <0> d          -1.872  -4.673  -2.797  0.00  0.00    -0.157 NA
ENDBRANCH  18  19
ENDBRANCH  16  18
ENDBRANCH  13  16
ENDBRANCH   6  13
TORSDOF 4
