REMARK  6 active torsions:
REMARK  status: ('A' for Active; 'I' for Inactive)
REMARK    1  A    between atoms: C2_2  and  C3_3 
REMARK    2  A    between atoms: C3_3  and  C5_5 
REMARK    3  A    between atoms: C5_5  and  C6_6 
REMARK    4  A    between atoms: C5_5  and  N4_18 
REMARK       I    between atoms: C6_6  and  N1_8 
REMARK    5  A    between atoms: N1_8  and  C7_9 
REMARK       I    between atoms: N4_18  and  C14_19 
REMARK    6  A    between atoms: C14_19  and  C15_21 
ROOT
ATOM      1  C5  <0> d           2.034   0.040  -1.232  0.00  0.00     0.180 C 
ENDROOT
BRANCH   1   2
ATOM      2  C3  <0> d           0.702  -0.388  -1.853  0.00  0.00     0.013 C 
ATOM      3  C4  <0> d           0.570   0.223  -3.249  0.00  0.00     0.012 C 
BRANCH   2   4
ATOM      4  C2  <0> d           0.655  -1.914  -1.957  0.00  0.00     0.002 C 
ATOM      5  C1  <0> d           0.615  -2.520  -0.553  0.00  0.00     0.005 C 
ENDBRANCH   2   4
ENDBRANCH   1   2
BRANCH   1   6
ATOM      6  C6  <0> d           2.021   1.527  -0.993  0.00  0.00     0.243 C 
ATOM      7  O1  <0> d           2.554   2.274  -1.786  0.00  0.00    -0.271 OA
ATOM      8  N1  <0> d           1.417   2.028   0.103  0.00  0.00    -0.321 N 
ATOM      9  H11 <0> d           1.055   1.428   0.774  0.00  0.00     0.166 HD
BRANCH   8  10
ATOM     10  C7  <0> d           1.307   3.478   0.281  0.00  0.00     0.291 A 
ATOM     11  N3  <0> d           0.951   3.790   1.671  0.00  0.00    -0.351 N 
ATOM     12  C13 <0> d          -0.190   4.417   1.650  0.00  0.00     0.057 A 
ATOM     13  H26 <0> d           1.470   3.569   2.460  0.00  0.00     0.163 HD
ATOM     14  C8  <0> d          -0.651   4.555   0.242  0.00  0.00     0.057 A 
ATOM     15  C12 <0> d          -1.042   4.975   2.709  0.00  0.00     0.031 A 
ATOM     16  N2  <0> d           0.221   4.007  -0.554  0.00  0.00    -0.351 N 
ATOM     17  C9  <0> d          -1.929   5.239   0.003  0.00  0.00     0.031 A 
ATOM     18  H25 <0> d           0.165   3.958  -1.521  0.00  0.00     0.163 HD
ATOM     19  C10 <0> d          -2.635   5.715   1.049  0.00  0.00     0.002 A 
ATOM     20  C11 <0> d          -2.199   5.585   2.380  0.00  0.00     0.002 A 
ENDBRANCH   8  10
ENDBRANCH   1   6
BRANCH   1  21
ATOM     21  N4  <0> d           3.129  -0.299  -2.145  0.00  0.00    -0.343 N 
ATOM     22  C14 <0> d           3.665  -1.535  -2.126  0.00  0.00     0.252 C 
ATOM     23  O2  <0> d           3.240  -2.370  -1.351  0.00  0.00    -0.268 OA
ATOM     24  H17 <0> d           3.468   0.367  -2.764  0.00  0.00     0.163 HD
BRANCH  22  25
ATOM     25  C15 <0> d           4.770  -1.876  -3.047  0.00  0.00     0.032 A 
ATOM     26  C20 <0> d           5.327  -3.156  -3.029  0.00  0.00     0.017 A 
ATOM     27  C19 <0> d           6.354  -3.470  -3.895  0.00  0.00     0.007 A 
ATOM     28  C18 <0> d           6.840  -2.516  -4.771  0.00  0.00    -0.062 A 
ATOM     29  C17 <0> d           6.295  -1.244  -4.790  0.00  0.00     0.007 A 
ATOM     30  C21 <0> d           7.966  -2.864  -5.710  0.00  0.00     0.048 C 
ATOM     31  C16 <0> d           5.264  -0.919  -3.934  0.00  0.00     0.017 A 
ENDBRANCH  22  25
ENDBRANCH   1  21
TORSDOF 6
