REMARK  5 active torsions:
REMARK  status: ('A' for Active; 'I' for Inactive)
REMARK    1  A    between atoms: C2_2  and  C3_3 
REMARK    2  A    between atoms: C3_3  and  C4_4 
REMARK    3  A    between atoms: N3_13  and  C8_14 
REMARK    4  A    between atoms: C13_19  and  N4_20 
REMARK    5  A    between atoms: N5_23  and  C18_26 
ROOT
ATOM      1  C3  <0> d          -0.061   5.758   0.035  0.00  0.00     0.030 C 
ATOM      2  N3  <0> d           0.929   6.671   0.091  0.00  0.00    -0.357 N 
ATOM      3  H8  <0> d           1.979   6.344   0.117  0.00  0.00     0.166 HD
ENDROOT
BRANCH   2   4
ATOM      4  C8  <0> d           0.622   8.036   0.115  0.00  0.00     0.054 A 
ATOM      5  C13 <0> d           1.637   8.980   0.276  0.00  0.00     0.037 A 
ATOM      6  C12 <0> d           1.325  10.331   0.299  0.00  0.00     0.026 A 
ATOM      7  C11 <0> d           0.011  10.739   0.162  0.00  0.00     0.002 A 
ATOM      8  C10 <0> d          -0.995   9.804   0.002  0.00  0.00     0.002 A 
ATOM      9  C9  <0> d          -0.693   8.456  -0.027  0.00  0.00     0.031 A 
BRANCH   5  10
ATOM     10  N4  <0> d           2.965   8.564   0.413  0.00  0.00    -0.278 NA
ATOM     11  C17 <0> d           3.803   9.114  -0.661  0.00  0.00     0.123 C 
ATOM     12  C16 <0> d           5.228   8.574  -0.521  0.00  0.00     0.249 C 
ATOM     13  N5  <0> d           5.761   8.941   0.798  0.00  0.00    -0.069 N 
ATOM     14  C15 <0> d           4.923   8.391   1.873  0.00  0.00     0.249 C 
ATOM     15  H26 <0> d           5.741  10.038   0.880  0.00  0.00     0.280 HD
ATOM     16  C14 <0> d           3.498   8.931   1.733  0.00  0.00     0.123 C 
BRANCH  13  17
ATOM     17  C18 <0> d           7.156   8.505   0.943  0.00  0.00     0.230 C 
ATOM     18  C19 <0> d           7.596   8.676   2.398  0.00  0.00     0.034 C 
ENDBRANCH  13  17
ENDBRANCH   5  10
ENDBRANCH   2   4
BRANCH   1  19
ATOM     19  C2  <0> d          -1.101   5.706   1.124  0.00  0.00     0.054 C 
ATOM     20  C1  <0> d          -0.657   4.719   2.206  0.00  0.00     0.011 C 
ENDBRANCH   1  19
BRANCH   1  21
ATOM     21  C4  <0> d          -0.123   4.869  -1.023  0.00  0.00     0.122 A 
ATOM     22  C7  <0> d          -1.107   3.772  -1.050  0.00  0.00     0.265 A 
ATOM     23  N2  <0> d          -1.113   2.946  -2.116  0.00  0.00    -0.299 N 
ATOM     24  O2  <0> d          -1.896   3.618  -0.136  0.00  0.00    -0.267 OA
ATOM     25  C6  <0> d          -0.246   3.101  -3.127  0.00  0.00     0.181 A 
ATOM     26  H7  <0> d          -1.851   2.131  -2.145  0.00  0.00     0.171 HD
ATOM     27  N1  <0> d           0.674   4.075  -3.169  0.00  0.00    -0.299 N 
ATOM     28  S1  <0> d          -0.322   2.001  -4.436  0.00  0.00    -0.040 SA
ATOM     29  C5  <0> d           0.792   4.977  -2.173  0.00  0.00     0.265 A 
ATOM     30  H6  <0> d           1.342   4.129  -4.042  0.00  0.00     0.171 HD
ATOM     31  O1  <0> d           1.632   5.856  -2.223  0.00  0.00    -0.267 OA
ENDBRANCH   1  21
TORSDOF 5
