REMARK  4 active torsions:
REMARK  status: ('A' for Active; 'I' for Inactive)
REMARK    1  A    between atoms: O1_2  and  C2_3 
REMARK    2  A    between atoms: C4_5  and  N1_12 
REMARK    3  A    between atoms: C5_6  and  O2_10 
REMARK       I    between atoms: N1_12  and  C9_13 
REMARK    4  A    between atoms: C9_13  and  C10_15 
ROOT
ATOM      1  N1  <0> d           2.361   0.320  -4.158  0.00  0.00    -0.319 N 
ATOM      2  C9  <0> d           2.226   1.660  -4.141  0.00  0.00     0.272 C 
ATOM      3  O3  <0> d           1.687   2.206  -3.196  0.00  0.00    -0.266 OA
ATOM      4  H10 <0> d           2.861  -0.109  -4.870  0.00  0.00     0.169 HD
ENDROOT
BRANCH   1   5
ATOM      5  C4  <0> d           1.779  -0.456  -3.147  0.00  0.00     0.071 A 
ATOM      6  C3  <0> d           0.681   0.024  -2.448  0.00  0.00     0.071 A 
ATOM      7  C2  <0> d           0.107  -0.745  -1.448  0.00  0.00     0.092 A 
ATOM      8  C7  <0> d           0.633  -1.992  -1.143  0.00  0.00     0.070 A 
ATOM      9  C6  <0> d           1.724  -2.476  -1.842  0.00  0.00     0.065 A 
ATOM     10 Cl1  <0> d          -0.084  -2.951   0.115  0.00  0.00    -0.081 Cl
ATOM     11  C5  <0> d           2.302  -1.711  -2.842  0.00  0.00     0.096 A 
BRANCH   7  12
ATOM     12  O1  <0> d          -0.970  -0.275  -0.763  0.00  0.00    -0.354 OA
ATOM     13  C1  <0> d          -1.459   1.016  -1.130  0.00  0.00     0.210 C 
ENDBRANCH   7  12
BRANCH  11  14
ATOM     14  O2  <0> d           3.378  -2.184  -3.526  0.00  0.00    -0.354 OA
ATOM     15  C8  <0> d           3.861  -3.479  -3.160  0.00  0.00     0.210 C 
ENDBRANCH  11  14
ENDBRANCH   1   5
BRANCH   2  16
ATOM     16  C10 <0> d           2.731   2.465  -5.263  0.00  0.00     0.102 A 
ATOM     17  N2  <0> d           3.359   1.965  -6.387  0.00  0.00    -0.351 N 
ATOM     18  C17 <0> d           3.684   3.013  -7.216  0.00  0.00     0.043 A 
ATOM     19  H1  <0> d           3.538   1.028  -6.565  0.00  0.00     0.166 HD
ATOM     20  C12 <0> d           3.255   4.197  -6.585  0.00  0.00    -0.006 A 
ATOM     21  C16 <0> d           4.313   3.088  -8.456  0.00  0.00     0.031 A 
ATOM     22  C11 <0> d           2.659   3.818  -5.357  0.00  0.00     0.049 A 
ATOM     23  C13 <0> d           3.467   5.433  -7.211  0.00  0.00     0.032 A 
ATOM     24  C14 <0> d           4.086   5.481  -8.426  0.00  0.00     0.011 A 
ATOM     25  C15 <0> d           4.510   4.313  -9.051  0.00  0.00     0.021 A 
ATOM     26 Br1  <0> d           4.369   7.150  -9.268  0.00  0.00    -0.051 Br
ENDBRANCH   2  16
TORSDOF 4
