REMARK  3 active torsions:
REMARK  status: ('A' for Active; 'I' for Inactive)
REMARK    1  A    between atoms: C5_7  and  N3_11 
REMARK    2  A    between atoms: N3_11  and  S1_12 
REMARK    3  A    between atoms: S1_12  and  C9_15 
ROOT
ATOM      1  N3  <0> d           0.852  -4.211  -1.128  0.00  0.00    -0.306 N 
ATOM      2  H12 <0> d           1.651  -4.234  -1.677  0.00  0.00     0.173 HD
ENDROOT
BRANCH   1   3
ATOM      3  C5  <0> d          -0.083  -3.088  -1.241  0.00  0.00     0.129 C 
ATOM      4  C3  <0> d           0.649  -1.792  -1.000  0.00  0.00     0.009 A 
ATOM      5  C2  <0> d           0.484  -0.673  -1.750  0.00  0.00     0.040 A 
ATOM      6  C4  <0> d           1.588  -1.511  -0.010  0.00  0.00     0.150 A 
ATOM      7  N1  <0> d           1.291   0.279  -1.254  0.00  0.00    -0.278 N 
ATOM      8  C8  <0> d          -0.458  -0.573  -2.924  0.00  0.00     0.059 C 
ATOM      9  C1  <0> d           1.431   1.645  -1.765  0.00  0.00     0.179 C 
ATOM     10  N2  <0> d           1.981  -0.269  -0.162  0.00  0.00    -0.184 NA
ATOM     11  C7  <0> d          -1.448  -1.742  -2.851  0.00  0.00     0.008 C 
ATOM     12  C6  <0> d          -0.678  -3.051  -2.654  0.00  0.00     0.031 C 
ENDBRANCH   1   3
BRANCH   1  13
ATOM     13  S1  <0> d           0.544  -5.440  -0.062  0.00  0.00     0.262 S 
ATOM     14  O1  <0> d          -0.809  -5.824  -0.266  0.00  0.00    -0.200 OA
ATOM     15  O2  <0> d           1.622  -6.359  -0.179  0.00  0.00    -0.200 OA
BRANCH  13  16
ATOM     16  C9  <0> d           0.636  -4.759   1.560  0.00  0.00     0.119 A 
ATOM     17  C13 <0> d           1.840  -4.292   2.057  0.00  0.00     0.148 A 
ATOM     18  N4  <0> d           1.914  -3.776   3.269  0.00  0.00    -0.247 NA
ATOM     19 Cl1  <0> d           3.266  -4.379   1.071  0.00  0.00    -0.061 Cl
ATOM     20  C12 <0> d           0.858  -3.695   4.054  0.00  0.00     0.118 A 
ATOM     21  C11 <0> d          -0.376  -4.146   3.628  0.00  0.00     0.021 A 
ATOM     22  C10 <0> d          -0.496  -4.690   2.357  0.00  0.00     0.030 A 
ENDBRANCH  13  16
ENDBRANCH   1  13
TORSDOF 3
