REMARK  3 active torsions:
REMARK  status: ('A' for Active; 'I' for Inactive)
REMARK    1  A    between atoms: C4_4  and  C7_7 
REMARK    2  A    between atoms: C9_11  and  C10_12 
REMARK    3  A    between atoms: N4_17  and  C14_20 
ROOT
ATOM      1  C10 <0> d           3.324  -2.807   1.194  0.00  0.00     0.012 C 
ATOM      2  C11 <0> d           2.353  -3.735   1.090  0.00  0.00     0.100 A 
ATOM      3  C12 <0> d           1.739  -4.265  -0.151  0.00  0.00     0.275 A 
ATOM      4  O1  <0> d           2.014  -3.945  -1.291  0.00  0.00    -0.266 OA
ATOM      5  N3  <0> d           0.817  -5.170   0.228  0.00  0.00    -0.256 N 
ATOM      6  N4  <0> d           0.773  -5.280   1.617  0.00  0.00    -0.217 N 
ATOM      7  C13 <0> d           1.669  -4.455   2.190  0.00  0.00     0.282 A 
ATOM      8  O2  <0> d           1.876  -4.323   3.381  0.00  0.00    -0.265 OA
ATOM      9  H9  <0> d           0.259  -5.677  -0.382  0.00  0.00     0.191 HD
ENDROOT
BRANCH   1  10
ATOM     10  C9  <0> d           3.904  -2.181  -0.048  0.00  0.00     0.106 A 
ATOM     11  C7  <0> d           3.691  -0.680  -0.038  0.00  0.00     0.080 A 
ATOM     12  N1  <0> d           4.884  -0.152  -0.042  0.00  0.00    -0.154 NA
ATOM     13  N2  <0> d           5.886  -1.118  -0.059  0.00  0.00    -0.166 NA
ATOM     14  C8  <0> d           5.413  -2.321  -0.067  0.00  0.00     0.128 A 
BRANCH  11  15
ATOM     15  C4  <0> d           2.405   0.035  -0.021  0.00  0.00    -0.009 A 
ATOM     16  C3  <0> d           2.377   1.433  -0.013  0.00  0.00     0.013 A 
ATOM     17  C2  <0> d           1.168   2.095   0.002  0.00  0.00     0.001 A 
ATOM     18  C1  <0> d          -0.017   1.380   0.010  0.00  0.00     0.000 A 
ATOM     19  C6  <0> d           0.002  -0.004   0.002  0.00  0.00     0.001 A 
ATOM     20  C5  <0> d           1.203  -0.681  -0.013  0.00  0.00     0.013 A 
ENDBRANCH  11  15
ENDBRANCH   1  10
BRANCH   6  21
ATOM     21  C14 <0> d          -0.081  -6.136   2.320  0.00  0.00     0.060 A 
ATOM     22  C19 <0> d          -0.967  -6.954   1.631  0.00  0.00     0.031 A 
ATOM     23  C18 <0> d          -1.806  -7.802   2.328  0.00  0.00     0.002 A 
ATOM     24  C17 <0> d          -1.772  -7.828   3.710  0.00  0.00     0.000 A 
ATOM     25  C16 <0> d          -0.895  -7.011   4.399  0.00  0.00     0.002 A 
ATOM     26  C15 <0> d          -0.050  -6.165   3.708  0.00  0.00     0.031 A 
ENDBRANCH   6  21
TORSDOF 3
