REMARK  4 active torsions:
REMARK  status: ('A' for Active; 'I' for Inactive)
REMARK    1  A    between atoms: C5_5  and  C8_8 
REMARK    2  A    between atoms: N1_15  and  C14_18 
REMARK    3  A    between atoms: C14_18  and  C15_19 
REMARK       I    between atoms: C15_19  and  N3_21 
REMARK    4  A    between atoms: N3_21  and  C16_22 
ROOT
ATOM      1  C8  <0> d           0.535  -5.148  -2.318  0.00  0.00    -0.001 A 
ATOM      2  C9  <0> d           0.312  -6.461  -2.067  0.00  0.00     0.065 A 
ATOM      3  S1  <0> d           0.316  -6.548  -0.287  0.00  0.00    -0.080 SA
ATOM      4  C10 <0> d           0.614  -4.837   0.076  0.00  0.00     0.115 A 
ATOM      5  C11 <0> d           0.704  -4.238  -1.192  0.00  0.00     0.080 A 
ATOM      6  C12 <0> d           0.946  -2.827  -1.195  0.00  0.00     0.263 A 
ATOM      7  O1  <0> d           1.040  -2.218  -2.247  0.00  0.00    -0.267 OA
ATOM      8  N1  <0> d           1.069  -2.183  -0.020  0.00  0.00    -0.299 N 
ATOM      9  C13 <0> d           0.973  -2.847   1.161  0.00  0.00     0.214 A 
ATOM     10  N2  <0> d           0.747  -4.133   1.197  0.00  0.00    -0.235 NA
ENDROOT
BRANCH   8  11
ATOM     11  C14 <0> d           1.317  -0.740  -0.015  0.00  0.00     0.235 C 
BRANCH  11  12
ATOM     12  C15 <0> d           0.002  -0.004   0.002  0.00  0.00     0.236 C 
ATOM     13  O2  <0> d          -1.040  -0.625   0.009  0.00  0.00    -0.272 OA
ATOM     14  N3  <0> d          -0.016   1.344   0.009  0.00  0.00    -0.351 N 
ATOM     15  H13 <0> d           0.817   1.840   0.004  0.00  0.00     0.163 HD
BRANCH  14  16
ATOM     16  C16 <0> d          -1.295   2.059   0.019  0.00  0.00     0.119 C 
ATOM     17  C20 <0> d          -1.780   2.192  -1.394  0.00  0.00    -0.019 A 
ATOM     18  C19 <0> d          -2.477   3.281  -1.886  0.00  0.00     0.008 A 
ATOM     19  C21 <0> d          -1.501   1.132  -2.252  0.00  0.00     0.010 A 
ATOM     20  S2  <0> d          -2.835   4.691  -0.886  0.00  0.00    -0.129 SA
ATOM     21  C24 <0> d          -2.905   3.295  -3.213  0.00  0.00     0.019 A 
ATOM     22  C18 <0> d          -2.449   4.121   0.795  0.00  0.00     0.082 C 
ATOM     23  C17 <0> d          -1.101   3.388   0.727  0.00  0.00     0.040 C 
ATOM     24  C23 <0> d          -2.627   2.236  -4.050  0.00  0.00     0.001 A 
ATOM     25  C22 <0> d          -1.918   1.152  -3.565  0.00  0.00     0.001 A 
ENDBRANCH  14  16
ENDBRANCH  11  12
ENDBRANCH   8  11
BRANCH   1  26
ATOM     26  C5  <0> d           0.607  -4.647  -3.711  0.00  0.00    -0.024 A 
ATOM     27  C4  <0> d           1.425  -5.285  -4.643  0.00  0.00     0.013 A 
ATOM     28  C3  <0> d           1.487  -4.814  -5.939  0.00  0.00     0.007 A 
ATOM     29  C2  <0> d           0.741  -3.712  -6.314  0.00  0.00    -0.062 A 
ATOM     30  C1  <0> d           0.814  -3.203  -7.730  0.00  0.00     0.048 C 
ATOM     31  C7  <0> d          -0.072  -3.075  -5.394  0.00  0.00     0.007 A 
ATOM     32  C6  <0> d          -0.147  -3.540  -4.096  0.00  0.00     0.013 A 
ENDBRANCH   1  26
TORSDOF 4
