REMARK  7 active torsions:
REMARK  status: ('A' for Active; 'I' for Inactive)
REMARK    1  A    between atoms: C2_2  and  N1_3 
REMARK    2  A    between atoms: N1_3  and  C3_4 
REMARK    3  A    between atoms: N1_3  and  C6_9 
REMARK    4  A    between atoms: C3_4  and  C4_5 
REMARK       I    between atoms: C4_5  and  N2_7 
REMARK    5  A    between atoms: C6_9  and  C7_10 
REMARK    6  A    between atoms: C6_9  and  C13_17 
REMARK    7  A    between atoms: C13_17  and  N3_19 
ROOT
ATOM      1  C6  <0> d          -0.641   0.323  -2.383  0.00  0.00     0.287 C 
ENDROOT
BRANCH   1   2
ATOM      2  N1  <0> d           0.042  -0.420  -1.316  0.00  0.00     0.107 N 
BRANCH   2   3
ATOM      3  C2  <0> d          -0.474  -1.792  -1.216  0.00  0.00     0.269 C 
ATOM      4  C1  <0> d          -1.863  -1.770  -0.574  0.00  0.00     0.037 C 
ENDBRANCH   2   3
BRANCH   2   5
ATOM      5  C3  <0> d           1.496  -0.419  -1.521  0.00  0.00     0.375 C 
BRANCH   5   6
ATOM      6  C4  <0> d           2.189  -0.691  -0.211  0.00  0.00     0.245 C 
ATOM      7  O1  <0> d           1.535  -0.870   0.795  0.00  0.00    -0.272 OA
ATOM      8  N2  <0> d           3.535  -0.737  -0.157  0.00  0.00    -0.364 N 
ATOM      9  C5  <0> d           4.208  -1.002   1.117  0.00  0.00     0.149 C 
ATOM     10  H10 <0> d           4.058  -0.595  -0.961  0.00  0.00     0.161 HD
ENDBRANCH   5   6
ENDBRANCH   2   5
ENDBRANCH   1   2
BRANCH   1  11
ATOM     11  C7  <0> d          -0.643   1.793  -2.049  0.00  0.00    -0.006 A 
ATOM     12  C12 <0> d          -1.669   2.603  -2.501  0.00  0.00     0.019 A 
ATOM     13  C11 <0> d          -1.673   3.951  -2.190  0.00  0.00     0.019 A 
ATOM     14 Br1  <0> d          -3.070   1.867  -3.537  0.00  0.00    -0.050 Br
ATOM     15  C10 <0> d          -0.646   4.489  -1.437  0.00  0.00     0.001 A 
ATOM     16  C9  <0> d           0.381   3.680  -0.990  0.00  0.00     0.001 A 
ATOM     17  C8  <0> d           0.383   2.332  -1.296  0.00  0.00     0.011 A 
ENDBRANCH   1  11
BRANCH   1  18
ATOM     18  C13 <0> d           0.091   0.102  -3.708  0.00  0.00     0.217 C 
ATOM     19  C14 <0> d          -0.015  -1.370  -4.110  0.00  0.00     0.042 C 
BRANCH  18  20
ATOM     20  N3  <0> d          -0.519   0.939  -4.750  0.00  0.00    -0.073 N 
ATOM     21  H21 <0> d          -0.449   1.910  -4.485  0.00  0.00     0.274 HD
ATOM     22  H22 <0> d          -0.036   0.793  -5.623  0.00  0.00     0.274 HD
ATOM     23  H23 <0> d          -1.490   0.689  -4.856  0.00  0.00     0.274 HD
ENDBRANCH  18  20
ENDBRANCH   1  18
TORSDOF 7
