REMARK  6 active torsions:
REMARK  status: ('A' for Active; 'I' for Inactive)
REMARK    1  A    between atoms: C2_2  and  C3_3 
REMARK    2  A    between atoms: C2_2  and  N2_9 
REMARK       I    between atoms: N2_9  and  C8_10 
REMARK    3  A    between atoms: C8_10  and  C9_12 
REMARK    4  A    between atoms: C11_14  and  C14_18 
REMARK    5  A    between atoms: C15_19  and  C16_20 
REMARK    6  A    between atoms: C16_20  and  O2_21 
ROOT
ATOM      1  N2  <0> d           0.711  -0.489   1.189  0.00  0.00    -0.347 N 
ATOM      2  C8  <0> d           2.054  -0.600   1.174  0.00  0.00     0.253 C 
ATOM      3  O1  <0> d           2.677  -0.297   0.175  0.00  0.00    -0.268 OA
ATOM      4  H9  <0> d           0.213  -0.731   1.986  0.00  0.00     0.163 HD
ENDROOT
BRANCH   2   5
ATOM      5  C9  <0> d           2.769  -1.090   2.372  0.00  0.00     0.051 A 
ATOM      6  C13 <0> d           2.063  -1.440   3.524  0.00  0.00     0.133 A 
ATOM      7  N3  <0> d           2.692  -1.883   4.593  0.00  0.00    -0.271 NA
ATOM      8  C12 <0> d           4.003  -2.005   4.633  0.00  0.00     0.136 A 
ATOM      9  C11 <0> d           4.788  -1.671   3.527  0.00  0.00     0.036 A 
ATOM     10  C10 <0> d           4.162  -1.203   2.369  0.00  0.00     0.040 A 
BRANCH   9  11
ATOM     11  C14 <0> d           6.212  -1.807   3.579  0.00  0.00    -0.063 C 
ATOM     12  C15 <0> d           7.380  -1.918   3.622  0.00  0.00    -0.075 C 
BRANCH  12  13
ATOM     13  C16 <0> d           8.845  -2.058   3.675  0.00  0.00     0.258 C 
BRANCH  13  14
ATOM     14  O2  <0> d           9.229  -2.551   4.959  0.00  0.00    -0.389 OA
ATOM     15  H15 <0> d          10.183  -2.668   5.066  0.00  0.00     0.210 HD
ENDBRANCH  13  14
ENDBRANCH  12  13
ENDBRANCH   9  11
ENDBRANCH   2   5
BRANCH   1  16
ATOM     16  C2  <0> d           0.002  -0.004   0.002  0.00  0.00     0.133 C 
ATOM     17  C1  <0> d          -0.019   1.526   0.010  0.00  0.00     0.039 C 
BRANCH  16  18
ATOM     18  C3  <0> d          -1.412  -0.526   0.013  0.00  0.00     0.056 A 
ATOM     19  N1  <0> d          -1.978  -0.851   1.158  0.00  0.00    -0.263 NA
ATOM     20  C7  <0> d          -3.214  -1.306   1.216  0.00  0.00     0.117 A 
ATOM     21  C6  <0> d          -3.962  -1.470   0.066  0.00  0.00     0.019 A 
ATOM     22  C5  <0> d          -3.398  -1.143  -1.158  0.00  0.00     0.003 A 
ATOM     23  C4  <0> d          -2.098  -0.663  -1.179  0.00  0.00     0.029 A 
ENDBRANCH  16  18
ENDBRANCH   1  16
TORSDOF 6
