REMARK  7 active torsions:
REMARK  status: ('A' for Active; 'I' for Inactive)
REMARK    1  A    between atoms: N1_2  and  S1_4 
REMARK    2  A    between atoms: S1_4  and  C3_7 
REMARK    3  A    between atoms: C6_10  and  N2_13 
REMARK       I    between atoms: N2_13  and  C9_14 
REMARK    4  A    between atoms: C9_14  and  C10_16 
REMARK    5  A    between atoms: C10_16  and  S2_17 
REMARK    6  A    between atoms: S2_17  and  C11_18 
REMARK    7  A    between atoms: N4_20  and  C13_24 
ROOT
ATOM      1  N2  <0> d           1.122  -5.388  -0.036  0.00  0.00    -0.327 N 
ATOM      2  C9  <0> d           1.942  -4.318  -0.040  0.00  0.00     0.231 C 
ATOM      3  O3  <0> d           3.144  -4.475  -0.060  0.00  0.00    -0.272 OA
ATOM      4  H11 <0> d           0.164  -5.265   0.048  0.00  0.00     0.169 HD
ENDROOT
BRANCH   2   5
ATOM      5  C10 <0> d           1.364  -2.927  -0.019  0.00  0.00     0.184 C 
BRANCH   5   6
ATOM      6  S2  <0> d           2.708  -1.715  -0.030  0.00  0.00    -0.092 SA
BRANCH   6   7
ATOM      7  C11 <0> d           1.774  -0.221  -0.003  0.00  0.00     0.158 A 
ATOM      8  S4  <0> d           0.002  -0.004   0.028  0.00  0.00    -0.030 SA
ATOM      9  C12 <0> d          -0.022   1.782   0.044  0.00  0.00     0.169 A 
ATOM     10  N4  <0> d           1.305   2.062   0.025  0.00  0.00    -0.214 N 
ATOM     11  S3  <0> d          -1.359   2.851   0.069  0.00  0.00    -0.050 SA
ATOM     12  N3  <0> d           2.199   1.017   0.001  0.00  0.00    -0.151 NA
BRANCH  10  13
ATOM     13  C13 <0> d           1.755   3.386   0.029  0.00  0.00     0.060 A 
ATOM     14  C18 <0> d           2.922   3.723   0.703  0.00  0.00     0.031 A 
ATOM     15  C17 <0> d           3.364   5.032   0.704  0.00  0.00     0.002 A 
ATOM     16  C16 <0> d           2.645   6.006   0.036  0.00  0.00     0.000 A 
ATOM     17  C15 <0> d           1.483   5.675  -0.636  0.00  0.00     0.002 A 
ATOM     18  C14 <0> d           1.038   4.367  -0.646  0.00  0.00     0.031 A 
ENDBRANCH  10  13
ENDBRANCH   6   7
ENDBRANCH   5   6
ENDBRANCH   2   5
BRANCH   1  19
ATOM     19  C6  <0> d           1.654  -6.677  -0.153  0.00  0.00     0.034 A 
ATOM     20  C5  <0> d           2.880  -6.979   0.426  0.00  0.00     0.031 A 
ATOM     21  C4  <0> d           3.402  -8.252   0.308  0.00  0.00     0.027 A 
ATOM     22  C3  <0> d           2.706  -9.226  -0.384  0.00  0.00     0.079 A 
ATOM     23  C8  <0> d           1.486  -8.928  -0.962  0.00  0.00     0.027 A 
ATOM     24  C7  <0> d           0.955  -7.659  -0.843  0.00  0.00     0.031 A 
BRANCH  22  25
ATOM     25  S1  <0> d           3.376 -10.849  -0.531  0.00  0.00     0.260 S 
ATOM     26  O1  <0> d           2.790 -11.427  -1.690  0.00  0.00    -0.200 OA
ATOM     27  O2  <0> d           4.782 -10.724  -0.371  0.00  0.00    -0.200 OA
BRANCH  25  28
ATOM     28  N1  <0> d           2.828 -11.725   0.763  0.00  0.00    -0.315 N 
ATOM     29  C1  <0> d           1.570 -12.470   0.663  0.00  0.00     0.162 C 
ATOM     30  C2  <0> d           3.600 -11.754   2.007  0.00  0.00     0.162 C 
ENDBRANCH  25  28
ENDBRANCH  22  25
ENDBRANCH   1  19
TORSDOF 7
