REMARK  4 active torsions:
REMARK  status: ('A' for Active; 'I' for Inactive)
REMARK    1  A    between atoms: C8_9  and  C9_11 
REMARK    2  A    between atoms: C9_11  and  N3_12 
REMARK       I    between atoms: N3_12  and  C10_13 
REMARK    3  A    between atoms: C10_13  and  C11_15 
REMARK       I    between atoms: N4_17  and  C19_25 
REMARK    4  A    between atoms: C19_25  and  C20_27 
ROOT
ATOM      1  C11 <0> d          -2.943  -1.768   7.103  0.00  0.00     0.106 C 
ATOM      2  C12 <0> d          -3.584  -3.056   6.540  0.00  0.00     0.141 C 
ATOM      3  N4  <0> d          -3.357  -4.077   7.589  0.00  0.00    -0.348 N 
ATOM      4  C13 <0> d          -3.570  -3.350   8.863  0.00  0.00     0.136 C 
ATOM      5  C14 <0> d          -2.939  -1.963   8.628  0.00  0.00    -0.007 C 
ATOM      6  C15 <0> d          -1.509  -1.938   9.160  0.00  0.00     0.039 C 
ATOM      7  C16 <0> d          -1.534  -2.078  10.684  0.00  0.00     0.233 C 
ATOM      8  N5  <0> d          -2.313  -0.977  11.265  0.00  0.00    -0.075 N 
ATOM      9  C17 <0> d          -3.709  -1.062  10.821  0.00  0.00     0.233 C 
ATOM     10  C18 <0> d          -3.776  -0.880   9.302  0.00  0.00     0.039 C 
ATOM     11  C19 <0> d          -3.031  -5.374   7.423  0.00  0.00     0.251 C 
ATOM     12  O2  <0> d          -2.878  -6.090   8.390  0.00  0.00    -0.270 OA
ATOM     13  H21 <0> d          -2.277  -1.036  12.272  0.00  0.00     0.277 HD
ATOM     14  H32 <0> d          -1.920  -0.096  10.969  0.00  0.00     0.277 HD
ENDROOT
BRANCH   1  15
ATOM     15  C10 <0> d          -1.535  -1.615   6.589  0.00  0.00     0.224 C 
ATOM     16  N3  <0> d          -0.995  -0.387   6.456  0.00  0.00    -0.355 N 
ATOM     17  H12 <0> d          -1.514   0.399   6.691  0.00  0.00     0.162 HD
ATOM     18  O1  <0> d          -0.886  -2.597   6.296  0.00  0.00    -0.273 OA
BRANCH  16  19
ATOM     19  C9  <0> d           0.374  -0.239   5.957  0.00  0.00     0.181 C 
BRANCH  19  20
ATOM     20  C8  <0> d           0.733   1.224   5.903  0.00  0.00     0.044 A 
ATOM     21  C7  <0> d           1.387   1.911   6.865  0.00  0.00     0.125 A 
ATOM     22  N1  <0> d           1.513   3.201   6.427  0.00  0.00    -0.311 N 
ATOM     23  C2  <0> d           2.078   4.313   6.980  0.00  0.00     0.014 A 
ATOM     24  C6  <0> d           0.918   3.265   5.194  0.00  0.00     0.112 A 
ATOM     25  C1  <0> d           2.723   4.225   8.339  0.00  0.00     0.068 C 
ATOM     26  C3  <0> d           2.070   5.489   6.319  0.00  0.00     0.025 A 
ATOM     27  C4  <0> d           1.473   5.585   5.051  0.00  0.00     0.006 A 
ATOM     28  C5  <0> d           0.901   4.486   4.490  0.00  0.00     0.049 A 
ATOM     29  N2  <0> d           0.449   2.060   4.901  0.00  0.00    -0.343 N 
ATOM     30  H33 <0> d          -0.017   1.821   4.085  0.00  0.00     0.167 HD
ENDBRANCH  19  20
ENDBRANCH  16  19
ENDBRANCH   1  15
BRANCH  11  31
ATOM     31  C20 <0> d          -2.856  -5.935   6.035  0.00  0.00     0.245 C 
ATOM     32  O4  <0> d          -2.413  -7.294   6.116  0.00  0.00    -0.331 OA
ATOM     33  C27 <0> d          -2.492  -8.032   4.975  0.00  0.00     0.103 A 
ATOM     34  C22 <0> d          -3.288  -7.618   3.914  0.00  0.00     0.102 A 
ATOM     35  C26 <0> d          -1.772  -9.213   4.877  0.00  0.00     0.040 A 
ATOM     36  O3  <0> d          -4.000  -6.461   3.987  0.00  0.00    -0.345 OA
ATOM     37  C23 <0> d          -3.361  -8.391   2.764  0.00  0.00     0.039 A 
ATOM     38  C21 <0> d          -4.199  -5.909   5.293  0.00  0.00     0.218 C 
ATOM     39  C24 <0> d          -2.641  -9.567   2.674  0.00  0.00     0.003 A 
ATOM     40  C25 <0> d          -1.847  -9.977   3.728  0.00  0.00     0.003 A 
ENDBRANCH  11  31
TORSDOF 4
