REMARK  8 active torsions:
REMARK  status: ('A' for Active; 'I' for Inactive)
REMARK    1  A    between atoms: C2_2  and  C3_3 
REMARK    2  A    between atoms: C7_7  and  N1_9 
REMARK    3  A    between atoms: C10_11  and  C19_23 
REMARK    4  A    between atoms: C13_14  and  C18_21 
REMARK    5  A    between atoms: C18_21  and  O2_22 
REMARK       I    between atoms: C19_23  and  N3_25 
REMARK    6  A    between atoms: N3_25  and  C20_26 
REMARK    7  A    between atoms: C23_29  and  O5_34 
REMARK    8  A    between atoms: C25_31  and  O4_32 
ROOT
ATOM      1  N1  <0> d           5.122   6.355   1.291  0.00  0.00    -0.336 N 
ATOM      2  C9  <0> d           4.338   5.596   0.557  0.00  0.00     0.164 C 
ATOM      3  C10 <0> d           4.690   4.190   0.276  0.00  0.00     0.084 C 
ATOM      4  C11 <0> d           3.654   3.320   0.017  0.00  0.00     0.036 C 
ATOM      5  C12 <0> d           2.296   3.867   0.040  0.00  0.00     0.011 A 
ATOM      6  C13 <0> d           1.167   3.039   0.052  0.00  0.00    -0.004 A 
ATOM      7  C14 <0> d          -0.080   3.627   0.074  0.00  0.00     0.127 A 
ATOM      8  N2  <0> d          -0.216   4.941   0.095  0.00  0.00    -0.262 NA
ATOM      9  C15 <0> d           0.814   5.762   0.083  0.00  0.00     0.065 A 
ATOM     10  C16 <0> d           2.109   5.262   0.053  0.00  0.00     0.113 A 
ATOM     11  O1  <0> d           3.183   6.085   0.036  0.00  0.00    -0.290 OA
ATOM     12  C17 <0> d           0.586   7.251   0.100  0.00  0.00     0.073 C 
ATOM     13  H28 <0> d           6.093   5.971   1.636  0.00  0.00     0.168 HD
ENDROOT
BRANCH   3  14
ATOM     14  C19 <0> d           6.093   3.735   0.274  0.00  0.00     0.260 C 
ATOM     15  O3  <0> d           6.354   2.571   0.040  0.00  0.00    -0.267 OA
ATOM     16  N3  <0> d           7.085   4.610   0.532  0.00  0.00    -0.320 N 
ATOM     17  H18 <0> d           6.845   5.646   0.815  0.00  0.00     0.169 HD
BRANCH  16  18
ATOM     18  C20 <0> d           8.423   4.200   0.439  0.00  0.00     0.068 A 
ATOM     19  C25 <0> d           9.396   5.092  -0.006  0.00  0.00     0.097 A 
ATOM     20  C24 <0> d          10.716   4.684  -0.097  0.00  0.00     0.075 A 
ATOM     21  C23 <0> d          11.067   3.389   0.256  0.00  0.00     0.070 A 
ATOM     22  C22 <0> d          10.097   2.502   0.699  0.00  0.00     0.039 A 
ATOM     23  C21 <0> d           8.779   2.908   0.796  0.00  0.00     0.035 A 
BRANCH  19  24
ATOM     24  O4  <0> d           9.050   6.361  -0.351  0.00  0.00    -0.354 OA
ATOM     25  C26 <0> d          10.101   7.220  -0.799  0.00  0.00     0.210 C 
ENDBRANCH  19  24
BRANCH  21  26
ATOM     26  O5  <0> d          12.363   2.988   0.167  0.00  0.00    -0.356 OA
ATOM     27  C27 <0> d          12.653   1.641   0.546  0.00  0.00     0.210 C 
ENDBRANCH  21  26
ENDBRANCH  16  18
ENDBRANCH   3  14
BRANCH   1  28
ATOM     28  C7  <0> d           4.731   7.622   1.624  0.00  0.00     0.034 A 
ATOM     29  C6  <0> d           4.969   8.684   0.748  0.00  0.00     0.029 A 
ATOM     30  C5  <0> d           4.566   9.958   1.088  0.00  0.00     0.003 A 
ATOM     31  C4  <0> d           3.938  10.188   2.299  0.00  0.00     0.007 A 
ATOM     32  C3  <0> d           3.704   9.143   3.175  0.00  0.00    -0.056 A 
ATOM     33  C8  <0> d           4.096   7.862   2.845  0.00  0.00     0.036 A 
BRANCH  32  34
ATOM     34  C2  <0> d           3.019   9.404   4.491  0.00  0.00     0.034 C 
ATOM     35  C1  <0> d           4.069   9.725   5.557  0.00  0.00     0.010 C 
ENDBRANCH  32  34
ENDBRANCH   1  28
BRANCH   6  36
ATOM     36  C18 <0> d           1.312   1.539   0.036  0.00  0.00     0.205 C 
BRANCH  36  37
ATOM     37  O2  <0> d           0.017   0.935   0.053  0.00  0.00    -0.396 OA
ATOM     38  H17 <0> d          -0.080  -0.160   0.045  0.00  0.00     0.209 HD
ENDBRANCH  36  37
ENDBRANCH   6  36
TORSDOF 8
