REMARK  5 active torsions:
REMARK  status: ('A' for Active; 'I' for Inactive)
REMARK    1  A    between atoms: C3_3  and  C11_13 
REMARK    2  A    between atoms: C11_13  and  C12_14 
REMARK    3  A    between atoms: C12_14  and  N3_15 
REMARK       I    between atoms: N3_15  and  C13_16 
REMARK    4  A    between atoms: C13_16  and  C14_18 
REMARK       I    between atoms: N4_20  and  C22_28 
REMARK    5  A    between atoms: C22_28  and  C23_30 
ROOT
ATOM      1  C1  <0> d           6.201   1.542  -1.612  0.00  0.00     0.037 C 
ATOM      2  C2  <0> d           4.804   1.313  -1.032  0.00  0.00     0.108 A 
ATOM      3  C3  <0> d           4.011   0.392  -1.931  0.00  0.00    -0.044 A 
ATOM      4  C4  <0> d           3.707  -0.696  -1.179  0.00  0.00    -0.004 A 
ATOM      5  C5  <0> d           2.986  -1.882  -1.477  0.00  0.00     0.036 A 
ATOM      6  C6  <0> d           2.818  -2.849  -0.513  0.00  0.00     0.045 A 
ATOM      7  C7  <0> d           3.371  -2.686   0.827  0.00  0.00     0.025 A 
ATOM      8  C8  <0> d           4.065  -1.581   1.167  0.00  0.00     0.031 A 
ATOM      9  C9  <0> d           4.272  -0.518   0.177  0.00  0.00     0.039 A 
ATOM     10  N1  <0> d           4.899   0.631   0.263  0.00  0.00    -0.381 N 
ATOM     11  C10 <0> d           2.087  -4.039  -0.832  0.00  0.00     0.099 C 
ATOM     12  N2  <0> d           1.508  -4.983  -1.084  0.00  0.00    -0.191 NA
ATOM     13  H34 <0> d           5.351   0.973   1.050  0.00  0.00     0.160 HD
ENDROOT
BRANCH   3  14
ATOM     14  C11 <0> d           3.635   0.633  -3.370  0.00  0.00     0.057 C 
BRANCH  14  15
ATOM     15  C12 <0> d           2.832  -0.559  -3.894  0.00  0.00     0.127 C 
BRANCH  15  16
ATOM     16  N3  <0> d           2.466  -0.325  -5.293  0.00  0.00    -0.360 N 
ATOM     17  C13 <0> d           1.751  -1.248  -5.966  0.00  0.00     0.224 C 
ATOM     18  O1  <0> d           1.411  -2.273  -5.414  0.00  0.00    -0.273 OA
ATOM     19  H14 <0> d           2.739   0.494  -5.735  0.00  0.00     0.162 HD
BRANCH  17  20
ATOM     20  C14 <0> d           1.375  -1.007  -7.406  0.00  0.00     0.106 C 
ATOM     21  C17 <0> d           2.426  -1.624  -8.344  0.00  0.00    -0.007 C 
ATOM     22  C16 <0> d           1.663  -2.675  -9.175  0.00  0.00     0.136 C 
ATOM     23  C21 <0> d           3.013  -0.552  -9.258  0.00  0.00     0.039 C 
ATOM     24  C18 <0> d           3.531  -2.295  -7.533  0.00  0.00     0.039 C 
ATOM     25  N4  <0> d           0.251  -2.227  -9.134  0.00  0.00    -0.348 N 
ATOM     26  C15 <0> d           0.059  -1.740  -7.748  0.00  0.00     0.141 C 
ATOM     27  C22 <0> d          -0.654  -2.256 -10.132  0.00  0.00     0.251 C 
ATOM     28  O2  <0> d          -0.343  -2.689 -11.221  0.00  0.00    -0.270 OA
ATOM     29  C20 <0> d           4.096  -1.178 -10.141  0.00  0.00     0.233 C 
ATOM     30  N5  <0> d           5.147  -1.756  -9.294  0.00  0.00    -0.075 N 
ATOM     31  C19 <0> d           4.593  -2.849  -8.486  0.00  0.00     0.233 C 
ATOM     32  H23 <0> d           5.516  -1.042  -8.684  0.00  0.00     0.277 HD
ATOM     33  H35 <0> d           5.888  -2.113  -9.877  0.00  0.00     0.277 HD
BRANCH  27  34
ATOM     34  C23 <0> d          -2.054  -1.751  -9.895  0.00  0.00     0.245 C 
ATOM     35  O4  <0> d          -2.795  -1.787 -11.120  0.00  0.00    -0.331 OA
ATOM     36  C30 <0> d          -4.146  -1.649 -11.022  0.00  0.00     0.103 A 
ATOM     37  C25 <0> d          -4.794  -1.837  -9.807  0.00  0.00     0.102 A 
ATOM     38  C29 <0> d          -4.880  -1.322 -12.152  0.00  0.00     0.040 A 
ATOM     39  O3  <0> d          -4.093  -2.153  -8.684  0.00  0.00    -0.345 OA
ATOM     40  C26 <0> d          -6.172  -1.700  -9.732  0.00  0.00     0.039 A 
ATOM     41  C24 <0> d          -2.764  -2.652  -8.876  0.00  0.00     0.218 C 
ATOM     42  C27 <0> d          -6.898  -1.375 -10.863  0.00  0.00     0.003 A 
ATOM     43  C28 <0> d          -6.253  -1.186 -12.071  0.00  0.00     0.003 A 
ENDBRANCH  27  34
ENDBRANCH  17  20
ENDBRANCH  15  16
ENDBRANCH  14  15
ENDBRANCH   3  14
TORSDOF 5
