REMARK  3 active torsions:
REMARK  status: ('A' for Active; 'I' for Inactive)
REMARK    1  A    between atoms: C4_4  and  N2_7 
REMARK       I    between atoms: N2_7  and  C5_8 
REMARK    2  A    between atoms: C5_8  and  C6_10 
REMARK       I    between atoms: N3_13  and  C11_16 
REMARK       I    between atoms: C11_16  and  N4_18 
REMARK    3  A    between atoms: N4_18  and  C12_19 
ROOT
ATOM      1  C6  <0> d          -3.610  -4.506   0.005  0.00  0.00     0.081 C 
ATOM      2  C7  <0> d          -3.316  -5.374  -1.221  0.00  0.00     0.034 C 
ATOM      3  C8  <0> d          -4.193  -6.629  -1.176  0.00  0.00     0.128 C 
ATOM      4  N3  <0> d          -5.598  -6.219  -1.050  0.00  0.00    -0.334 N 
ATOM      5  C9  <0> d          -5.974  -5.311   0.042  0.00  0.00     0.128 C 
ATOM      6  C10 <0> d          -5.077  -4.071  -0.016  0.00  0.00     0.034 C 
ATOM      7  C11 <0> d          -6.525  -6.667  -1.921  0.00  0.00     0.318 C 
ATOM      8  O3  <0> d          -6.186  -7.338  -2.877  0.00  0.00    -0.247 OA
ATOM      9  N4  <0> d          -7.826  -6.372  -1.731  0.00  0.00    -0.338 N 
ATOM     10  H15 <0> d          -8.088  -5.777  -1.011  0.00  0.00     0.164 HD
ENDROOT
BRANCH   9  11
ATOM     11  C12 <0> d          -8.846  -6.949  -2.615  0.00  0.00     0.091 C 
ATOM     12  C16 <0> d         -10.075  -6.041  -2.627  0.00  0.00     0.063 C 
ATOM     13  C15 <0> d         -11.184  -6.641  -3.485  0.00  0.00     0.121 C 
ATOM     14  N5  <0> d         -11.468  -8.031  -3.166  0.00  0.00    -0.059 N 
ATOM     15  C17 <0> d         -10.852  -6.457  -4.969  0.00  0.00     0.046 C 
ATOM     16  C18 <0> d         -12.470  -5.828  -3.207  0.00  0.00     0.046 C 
ATOM     17  C14 <0> d         -10.336  -8.926  -2.977  0.00  0.00     0.121 C 
ATOM     18  H19 <0> d         -12.063  -8.416  -3.904  0.00  0.00     0.279 HD
ATOM     19  H34 <0> d         -12.041  -8.055  -2.319  0.00  0.00     0.279 HD
ATOM     20  C13 <0> d          -9.265  -8.317  -2.073  0.00  0.00     0.063 C 
ATOM     21  C19 <0> d         -10.860 -10.199  -2.273  0.00  0.00     0.046 C 
ATOM     22  C20 <0> d          -9.721  -9.364  -4.305  0.00  0.00     0.046 C 
ENDBRANCH   9  11
BRANCH   1  23
ATOM     23  C5  <0> d          -2.724  -3.288  -0.018  0.00  0.00     0.227 C 
ATOM     24  N2  <0> d          -1.384  -3.428  -0.005  0.00  0.00    -0.309 N 
ATOM     25  H5  <0> d          -0.989  -4.314   0.020  0.00  0.00     0.170 HD
ATOM     26  O2  <0> d          -3.217  -2.180  -0.049  0.00  0.00    -0.273 OA
BRANCH  24  27
ATOM     27  C4  <0> d          -0.564  -2.300  -0.026  0.00  0.00     0.160 A 
ATOM     28  C3  <0> d          -0.999  -0.956  -0.062  0.00  0.00     0.087 A 
ATOM     29  C2  <0> d           0.088  -0.165  -0.073  0.00  0.00     0.078 A 
ATOM     30  C1  <0> d           0.086   1.341  -0.110  0.00  0.00     0.079 C 
ATOM     31  O1  <0> d           1.177  -0.950  -0.051  0.00  0.00    -0.216 OA
ATOM     32  N1  <0> d           0.745  -2.298  -0.016  0.00  0.00    -0.110 NA
ENDBRANCH  24  27
ENDBRANCH   1  23
TORSDOF 3
