REMARK  6 active torsions:
REMARK  status: ('A' for Active; 'I' for Inactive)
REMARK    1  A    between atoms: N1_2  and  C2_3 
REMARK    2  A    between atoms: N1_2  and  C8_10 
REMARK    3  A    between atoms: C2_3  and  C3_4 
REMARK    4  A    between atoms: C8_10  and  C9_11 
REMARK    5  A    between atoms: C8_10  and  C10_13 
REMARK    6  A    between atoms: C9_11  and  N2_12 
ROOT
ATOM      1  C8  <0> d           0.441  -0.626  -1.021  0.00  0.00     0.304 C 
ENDROOT
BRANCH   1   2
ATOM      2  N1  <0> d          -0.025  -0.387   0.351  0.00  0.00     0.099 N 
ATOM      3  C1  <0> d           0.062   1.039   0.696  0.00  0.00     0.311 C 
BRANCH   2   4
ATOM      4  C2  <0> d           0.724  -1.207   1.312  0.00  0.00     0.304 C 
BRANCH   4   5
ATOM      5  C3  <0> d          -0.081  -1.340   2.607  0.00  0.00     0.149 C 
ATOM      6  O1  <0> d          -1.284  -2.067   2.347  0.00  0.00    -0.384 OA
ATOM      7  C7  <0> d          -2.127  -2.227   3.490  0.00  0.00     0.168 C 
ATOM      8  C6  <0> d          -1.377  -3.011   4.569  0.00  0.00     0.026 C 
ATOM      9  C5  <0> d          -0.084  -2.271   4.923  0.00  0.00     0.004 C 
ATOM     10  C4  <0> d           0.751  -2.089   3.651  0.00  0.00     0.034 C 
ENDBRANCH   4   5
ENDBRANCH   2   4
ENDBRANCH   1   2
BRANCH   1  11
ATOM     11  C9  <0> d          -0.452   0.135  -2.003  0.00  0.00     0.272 C 
BRANCH  11  12
ATOM     12  N2  <0> d          -1.857  -0.222  -1.764  0.00  0.00    -0.077 N 
ATOM     13  H18 <0> d          -2.438   0.210  -2.467  0.00  0.00     0.274 HD
ATOM     14  H19 <0> d          -1.962  -1.224  -1.811  0.00  0.00     0.274 HD
ATOM     15  H22 <0> d          -2.136   0.103  -0.851  0.00  0.00     0.274 HD
ENDBRANCH  11  12
ENDBRANCH   1  11
BRANCH   1  16
ATOM     16  C10 <0> d           1.863  -0.145  -1.159  0.00  0.00     0.089 A 
ATOM     17  O2  <0> d           2.330   1.050  -0.763  0.00  0.00    -0.305 OA
ATOM     18  C13 <0> d           3.642   1.133  -1.040  0.00  0.00     0.121 A 
ATOM     19  C12 <0> d           4.025  -0.016  -1.629  0.00  0.00     0.048 A 
ATOM     20 Br1  <0> d           4.759   2.613  -0.672  0.00  0.00    -0.023 Br
ATOM     21  C11 <0> d           2.878  -0.839  -1.706  0.00  0.00     0.038 A 
ENDBRANCH   1  16
TORSDOF 6
