REMARK  7 active torsions:
REMARK  status: ('A' for Active; 'I' for Inactive)
REMARK    1  A    between atoms: C2_2  and  C3_3 
REMARK    2  A    between atoms: C2_2  and  N2_15 
REMARK       I    between atoms: C3_3  and  N1_5 
REMARK    3  A    between atoms: N1_5  and  C4_6 
REMARK    4  A    between atoms: C9_11  and  C10_12 
REMARK    5  A    between atoms: C15_18  and  N3_21 
REMARK    6  A    between atoms: N3_21  and  S1_22 
REMARK    7  A    between atoms: S1_22  and  C18_25 
ROOT
ATOM      1  N2  <0> d           0.984  -1.184   0.262  0.00  0.00    -0.059 N 
ATOM      2  C13 <0> d           0.889  -2.372  -0.595  0.00  0.00     0.238 C 
ATOM      3  C14 <0> d           1.867  -3.441  -0.102  0.00  0.00     0.053 C 
ATOM      4  C15 <0> d           3.292  -2.884  -0.154  0.00  0.00     0.096 C 
ATOM      5  C16 <0> d           3.361  -1.604   0.683  0.00  0.00     0.053 C 
ATOM      6  C17 <0> d           2.328  -0.603   0.161  0.00  0.00     0.238 C 
ATOM      7  H30 <0> d           0.804  -1.447   1.219  0.00  0.00     0.280 HD
ENDROOT
BRANCH   1   8
ATOM      8  C2  <0> d          -0.010  -0.191  -0.167  0.00  0.00     0.275 C 
ATOM      9  C1  <0> d           0.126   1.070   0.688  0.00  0.00     0.050 C 
BRANCH   8  10
ATOM     10  C3  <0> d          -1.395  -0.763  -0.002  0.00  0.00     0.253 C 
ATOM     11  O1  <0> d          -1.607  -1.601   0.849  0.00  0.00    -0.271 OA
ATOM     12  N1  <0> d          -2.397  -0.343  -0.799  0.00  0.00    -0.325 N 
ATOM     13  H5  <0> d          -2.214   0.278  -1.521  0.00  0.00     0.169 HD
BRANCH  12  14
ATOM     14  C4  <0> d          -3.701  -0.803  -0.585  0.00  0.00     0.041 A 
ATOM     15  C9  <0> d          -4.784   0.014  -0.878  0.00  0.00    -0.028 A 
ATOM     16  C8  <0> d          -6.070  -0.446  -0.672  0.00  0.00     0.010 A 
ATOM     17  C7  <0> d          -6.279  -1.714  -0.163  0.00  0.00     0.001 A 
ATOM     18  C6  <0> d          -5.202  -2.528   0.136  0.00  0.00     0.002 A 
ATOM     19  C5  <0> d          -3.914  -2.077  -0.074  0.00  0.00     0.030 A 
BRANCH  15  20
ATOM     20  C10 <0> d          -4.557   1.400  -1.426  0.00  0.00     0.013 C 
ATOM     21  C11 <0> d          -5.287   1.545  -2.763  0.00  0.00     0.015 C 
ATOM     22  C12 <0> d          -5.095   2.435  -0.436  0.00  0.00     0.015 C 
ENDBRANCH  15  20
ENDBRANCH  12  14
ENDBRANCH   8  10
ENDBRANCH   1   8
BRANCH   4  23
ATOM     23  N3  <0> d           4.225  -3.875   0.388  0.00  0.00    -0.310 N 
ATOM     24  H26 <0> d           3.953  -4.447   1.123  0.00  0.00     0.172 HD
BRANCH  23  25
ATOM     25  S1  <0> d           5.745  -4.020  -0.255  0.00  0.00     0.265 S 
ATOM     26  O2  <0> d           6.406  -5.032   0.492  0.00  0.00    -0.200 OA
ATOM     27  O3  <0> d           5.584  -4.096  -1.664  0.00  0.00    -0.200 OA
BRANCH  25  28
ATOM     28  C18 <0> d           6.596  -2.513   0.075  0.00  0.00     0.119 A 
ATOM     29  S2  <0> d           6.681  -1.030  -0.915  0.00  0.00    -0.088 SA
ATOM     30  C21 <0> d           7.722  -0.064   0.167  0.00  0.00     0.051 A 
ATOM     31  C20 <0> d           7.937  -0.926   1.191  0.00  0.00     0.009 A 
ATOM     32  C19 <0> d           7.360  -2.180   1.144  0.00  0.00     0.033 A 
ENDBRANCH  25  28
ENDBRANCH  23  25
ENDBRANCH   4  23
TORSDOF 7
