REMARK  4 active torsions:
REMARK  status: ('A' for Active; 'I' for Inactive)
REMARK    1  A    between atoms: C5_6  and  C6_7 
REMARK    2  A    between atoms: C5_6  and  N1_10 
REMARK    3  A    between atoms: N1_10  and  C7_11 
REMARK    4  A    between atoms: C7_11  and  C8_12 
ROOT
ATOM      1  N1  <0> d           0.879  -0.554  -1.066  0.00  0.00    -0.054 N 
ATOM      2  H10 <0> d           0.640  -0.189  -1.976  0.00  0.00     0.278 HD
ATOM      3  H19 <0> d           1.822  -0.283  -0.833  0.00  0.00     0.278 HD
ENDROOT
BRANCH   1   4
ATOM      4  C5  <0> d          -0.049  -0.013  -0.064  0.00  0.00     0.213 C 
ATOM      5  C1  <0> d           0.157   1.495   0.049  0.00  0.00     0.060 C 
ATOM      6  C2  <0> d           1.648   1.808   0.204  0.00  0.00     0.077 C 
ATOM      7  S1  <0> d           2.244   1.055   1.748  0.00  0.00    -0.169 SA
ATOM      8  C3  <0> d           1.705  -0.675   1.596  0.00  0.00     0.077 C 
ATOM      9  C4  <0> d           0.207  -0.696   1.277  0.00  0.00     0.060 C 
BRANCH   4  10
ATOM     10  C6  <0> d          -1.465  -0.289  -0.499  0.00  0.00     0.210 C 
ATOM     11  O1  <0> d          -1.682  -0.768  -1.598  0.00  0.00    -0.646 OA
ATOM     12  O2  <0> d          -2.393  -0.033   0.249  0.00  0.00    -0.646 OA
ENDBRANCH   4  10
ENDBRANCH   1   4
BRANCH   1  13
ATOM     13  C7  <0> d           0.779  -2.019  -1.085  0.00  0.00     0.267 C 
BRANCH  13  14
ATOM     14  C8  <0> d           1.772  -2.585  -2.102  0.00  0.00     0.170 C 
ATOM     15  O4  <0> d           3.108  -2.305  -1.673  0.00  0.00    -0.380 OA
ATOM     16  C11 <0> d           4.112  -2.841  -2.540  0.00  0.00     0.194 C 
ATOM     17  C10 <0> d           3.925  -4.358  -2.649  0.00  0.00     0.193 C 
ATOM     18  O3  <0> d           2.590  -4.636  -3.078  0.00  0.00    -0.386 OA
ATOM     19  C9  <0> d           1.585  -4.101  -2.211  0.00  0.00     0.201 C 
ENDBRANCH  13  14
ENDBRANCH   1  13
TORSDOF 4
