REMARK  6 active torsions:
REMARK  status: ('A' for Active; 'I' for Inactive)
REMARK    1  A    between atoms: C3_3  and  C5_7 
REMARK    2  A    between atoms: C5_7  and  N2_8 
REMARK    3  A    between atoms: C8_11  and  N3_14 
REMARK       I    between atoms: N3_14  and  C11_15 
REMARK    4  A    between atoms: C11_15  and  C12_17 
REMARK    5  A    between atoms: C13_18  and  N6_23 
REMARK       I    between atoms: N6_23  and  C16_24 
REMARK    6  A    between atoms: C16_24  and  C17_26 
ROOT
ATOM      1  N3  <0> d           6.111  -0.785   4.820  0.00  0.00    -0.351 N 
ATOM      2  C11 <0> d           7.368  -1.160   5.130  0.00  0.00     0.274 C 
ATOM      3  O1  <0> d           8.140  -1.483   4.249  0.00  0.00    -0.266 OA
ATOM      4  H16 <0> d           5.494  -0.528   5.523  0.00  0.00     0.163 HD
ENDROOT
BRANCH   2   5
ATOM      5  C12 <0> d           7.807  -1.177   6.542  0.00  0.00     0.170 A 
ATOM      6  N5  <0> d           7.005  -0.716   7.497  0.00  0.00    -0.250 NA
ATOM      7  C15 <0> d           7.397  -0.737   8.754  0.00  0.00     0.137 A 
ATOM      8  C14 <0> d           8.651  -1.230   9.088  0.00  0.00     0.138 A 
ATOM      9  N4  <0> d           9.460  -1.686   8.149  0.00  0.00    -0.239 NA
ATOM     10  C13 <0> d           9.075  -1.675   6.879  0.00  0.00     0.164 A 
BRANCH  10  11
ATOM     11  N6  <0> d           9.922  -2.154   5.889  0.00  0.00    -0.309 N 
ATOM     12  C16 <0> d          11.092  -2.732   6.226  0.00  0.00     0.227 C 
ATOM     13  O2  <0> d          11.405  -2.833   7.393  0.00  0.00    -0.273 OA
ATOM     14  H19 <0> d           9.672  -2.072   4.956  0.00  0.00     0.170 HD
BRANCH  12  15
ATOM     15  C17 <0> d          12.012  -3.252   5.151  0.00  0.00     0.078 C 
ATOM     16  C22 <0> d          13.261  -3.855   5.797  0.00  0.00     0.014 C 
ATOM     17  C21 <0> d          14.195  -4.383   4.707  0.00  0.00     0.001 C 
ATOM     18  C20 <0> d          13.472  -5.458   3.893  0.00  0.00     0.000 C 
ATOM     19  C19 <0> d          12.223  -4.854   3.247  0.00  0.00     0.001 C 
ATOM     20  C18 <0> d          11.289  -4.327   4.338  0.00  0.00     0.014 C 
ENDBRANCH  12  15
ENDBRANCH  10  11
ENDBRANCH   2   5
BRANCH   1  21
ATOM     21  C8  <0> d           5.675  -0.768   3.422  0.00  0.00     0.087 C 
ATOM     22  C7  <0> d           4.154  -0.931   3.357  0.00  0.00     0.053 C 
ATOM     23  C6  <0> d           3.697  -0.833   1.900  0.00  0.00     0.237 C 
ATOM     24  N2  <0> d           4.075   0.475   1.352  0.00  0.00    -0.066 N 
ATOM     25  C10 <0> d           5.536   0.610   1.345  0.00  0.00     0.237 C 
ATOM     26  H31 <0> d           3.674   1.205   1.923  0.00  0.00     0.280 HD
ATOM     27  C9  <0> d           6.064   0.567   2.781  0.00  0.00     0.053 C 
BRANCH  24  28
ATOM     28  C5  <0> d           3.567   0.595  -0.021  0.00  0.00     0.291 C 
BRANCH  28  29
ATOM     29  C3  <0> d           2.060   0.581  -0.002  0.00  0.00     0.035 A 
ATOM     30  C2  <0> d           1.259   1.666   0.011  0.00  0.00     0.028 A 
ATOM     31  C1  <0> d          -0.073   1.206   0.026  0.00  0.00     0.019 A 
ATOM     32  C4  <0> d          -0.035  -0.142   0.022  0.00  0.00     0.088 A 
ATOM     33  N1  <0> d           1.271  -0.531   0.004  0.00  0.00    -0.368 N 
ATOM     34  H1  <0> d           1.587  -1.448  -0.002  0.00  0.00     0.165 HD
ENDBRANCH  28  29
ENDBRANCH  24  28
ENDBRANCH   1  21
TORSDOF 6
