REMARK  4 active torsions:
REMARK  status: ('A' for Active; 'I' for Inactive)
REMARK    1  A    between atoms: C3_3  and  C5_8 
REMARK    2  A    between atoms: C5_8  and  N1_9 
REMARK    3  A    between atoms: N2_12  and  C10_15 
REMARK    4  A    between atoms: C17_24  and  C21_30 
ROOT
ATOM      1  C10 <0> d          -2.773   4.454  -4.843  0.00  0.00     0.051 A 
ATOM      2  C11 <0> d          -2.975   3.412  -5.734  0.00  0.00     0.051 A 
ATOM      3  C12 <0> d          -3.369   3.676  -7.043  0.00  0.00     0.028 A 
ATOM      4  C13 <0> d          -3.559   5.011  -7.437  0.00  0.00     0.035 A 
ATOM      5  C14 <0> d          -3.333   6.056  -6.529  0.00  0.00     0.061 A 
ATOM      6  C15 <0> d          -2.948   5.779  -5.250  0.00  0.00     0.138 A 
ATOM      7  F1  <0> d          -2.735   6.787  -4.376  0.00  0.00    -0.204 F 
ATOM      8  C16 <0> d          -4.007   5.318  -8.797  0.00  0.00     0.178 C 
ATOM      9  O4  <0> d          -4.326   6.448  -9.102  0.00  0.00    -0.291 OA
ATOM     10  C17 <0> d          -4.066   4.204  -9.809  0.00  0.00     0.189 C 
ATOM     11  C18 <0> d          -4.314   2.879  -9.107  0.00  0.00     0.149 C 
ATOM     12  N3  <0> d          -3.543   2.613  -7.907  0.00  0.00    -0.254 NA
ATOM     13  C19 <0> d          -4.610   1.721  -7.423  0.00  0.00     0.123 C 
ATOM     14  S1  <0> d          -5.851   2.828  -8.149  0.00  0.00    -0.127 SA
ATOM     15  C20 <0> d          -4.687   1.648  -5.897  0.00  0.00     0.038 C 
ENDROOT
BRANCH   1  16
ATOM     16  N2  <0> d          -2.388   4.179  -3.535  0.00  0.00    -0.278 NA
ATOM     17  C7  <0> d          -1.068   3.534  -3.499  0.00  0.00     0.123 C 
ATOM     18  C6  <0> d          -0.646   3.320  -2.044  0.00  0.00     0.250 C 
ATOM     19  N1  <0> d          -1.652   2.494  -1.362  0.00  0.00    -0.063 N 
ATOM     20  C9  <0> d          -2.972   3.139  -1.397  0.00  0.00     0.250 C 
ATOM     21  H22 <0> d          -1.727   1.537  -1.899  0.00  0.00     0.280 HD
ATOM     22  C8  <0> d          -3.393   3.352  -2.853  0.00  0.00     0.123 C 
BRANCH  19  23
ATOM     23  C5  <0> d          -1.245   2.203   0.020  0.00  0.00     0.302 C 
BRANCH  23  24
ATOM     24  C3  <0> d          -0.016   1.331   0.009  0.00  0.00     0.114 A 
ATOM     25  C2  <0> d           1.237   1.755  -0.001  0.00  0.00     0.086 A 
ATOM     26  C1  <0> d           1.682   3.195   0.002  0.00  0.00     0.079 C 
ATOM     27  O3  <0> d           2.051   0.671  -0.015  0.00  0.00    -0.258 OA
ATOM     28  C4  <0> d           1.278  -0.426  -0.014  0.00  0.00     0.416 A 
ATOM     29  O1  <0> d          -0.004  -0.025   0.001  0.00  0.00    -0.255 OA
ATOM     30  O2  <0> d           1.668  -1.578  -0.025  0.00  0.00    -0.229 OA
ENDBRANCH  23  24
ENDBRANCH  19  23
ENDBRANCH   1  16
BRANCH  10  31
ATOM     31  C21 <0> d          -5.185   4.473 -10.782  0.00  0.00     0.187 C 
ATOM     32  O5  <0> d          -6.089   3.679 -10.898  0.00  0.00    -0.647 OA
ATOM     33  O6  <0> d          -5.178   5.594 -11.521  0.00  0.00    -0.647 OA
ENDBRANCH  10  31
TORSDOF 4
