REMARK  7 active torsions:
REMARK  status: ('A' for Active; 'I' for Inactive)
REMARK    1  A    between atoms: O1_2  and  C2_3 
REMARK    2  A    between atoms: C2_3  and  C3_4 
REMARK    3  A    between atoms: C3_4  and  N1_5 
REMARK       I    between atoms: N1_5  and  C4_6 
REMARK    4  A    between atoms: C4_6  and  C5_8 
REMARK       I    between atoms: N2_10  and  C13_18 
REMARK    5  A    between atoms: C13_18  and  C14_20 
REMARK    6  A    between atoms: C18_25  and  S1_26 
REMARK    7  A    between atoms: S1_26  and  C19_27 
ROOT
ATOM      1  C5  <0> d          -2.484  -4.340  -1.135  0.00  0.00     0.106 C 
ATOM      2  C6  <0> d          -3.141  -3.866  -2.451  0.00  0.00     0.141 C 
ATOM      3  N2  <0> d          -2.968  -5.003  -3.386  0.00  0.00    -0.346 N 
ATOM      4  C7  <0> d          -3.199  -6.206  -2.550  0.00  0.00     0.136 C 
ATOM      5  C8  <0> d          -2.527  -5.875  -1.202  0.00  0.00    -0.007 C 
ATOM      6  C9  <0> d          -1.112  -6.446  -1.166  0.00  0.00     0.039 C 
ATOM      7  C10 <0> d          -1.183  -7.975  -1.176  0.00  0.00     0.233 C 
ATOM      8  N3  <0> d          -1.950  -8.440  -0.014  0.00  0.00    -0.075 N 
ATOM      9  C11 <0> d          -3.335  -7.963  -0.105  0.00  0.00     0.233 C 
ATOM     10  C12 <0> d          -3.355  -6.433  -0.049  0.00  0.00     0.039 C 
ATOM     11  C13 <0> d          -2.669  -4.955  -4.699  0.00  0.00     0.256 C 
ATOM     12  O3  <0> d          -2.413  -3.889  -5.226  0.00  0.00    -0.267 OA
ATOM     13  H18 <0> d          -1.944  -9.448   0.010  0.00  0.00     0.277 HD
ATOM     14  H31 <0> d          -1.527  -8.083   0.830  0.00  0.00     0.277 HD
ENDROOT
BRANCH  11  15
ATOM     15  C14 <0> d          -2.653  -6.194  -5.498  0.00  0.00     0.068 A 
ATOM     16  C18 <0> d          -1.729  -6.359  -6.543  0.00  0.00     0.113 A 
ATOM     17  N4  <0> d          -1.716  -7.477  -7.255  0.00  0.00    -0.253 NA
ATOM     18  C17 <0> d          -2.564  -8.459  -7.020  0.00  0.00     0.118 A 
ATOM     19  C16 <0> d          -3.507  -8.367  -6.011  0.00  0.00     0.020 A 
ATOM     20  C15 <0> d          -3.562  -7.224  -5.232  0.00  0.00     0.021 A 
BRANCH  16  21
ATOM     21  S1  <0> d          -0.576  -5.077  -6.906  0.00  0.00    -0.070 SA
BRANCH  21  22
ATOM     22  C19 <0> d           0.452  -5.770  -8.158  0.00  0.00     0.007 A 
ATOM     23  C24 <0> d           1.542  -6.557  -7.807  0.00  0.00     0.019 A 
ATOM     24  C23 <0> d           2.342  -7.103  -8.791  0.00  0.00     0.001 A 
ATOM     25  C22 <0> d           2.068  -6.857 -10.124  0.00  0.00     0.000 A 
ATOM     26  C21 <0> d           0.988  -6.068 -10.476  0.00  0.00     0.001 A 
ATOM     27  C20 <0> d           0.179  -5.524  -9.498  0.00  0.00     0.019 A 
ENDBRANCH  21  22
ENDBRANCH  16  21
ENDBRANCH  11  15
BRANCH   1  28
ATOM     28  C4  <0> d          -1.058  -3.857  -1.057  0.00  0.00     0.224 C 
ATOM     29  N1  <0> d          -0.499  -3.597   0.141  0.00  0.00    -0.359 N 
ATOM     30  H9  <0> d          -1.015  -3.719   0.954  0.00  0.00     0.162 HD
ATOM     31  O2  <0> d          -0.413  -3.704  -2.073  0.00  0.00    -0.273 OA
BRANCH  29  32
ATOM     32  C3  <0> d           0.886  -3.128   0.217  0.00  0.00     0.148 C 
BRANCH  32  33
ATOM     33  C2  <0> d           1.272  -2.909   1.681  0.00  0.00     0.186 C 
BRANCH  33  34
ATOM     34  O1  <0> d           1.258  -4.161   2.370  0.00  0.00    -0.394 OA
ATOM     35  C1  <0> d           1.605  -4.067   3.753  0.00  0.00     0.201 C 
ENDBRANCH  33  34
ENDBRANCH  32  33
ENDBRANCH  29  32
ENDBRANCH   1  28
TORSDOF 7
