REMARK  7 active torsions:
REMARK  status: ('A' for Active; 'I' for Inactive)
REMARK    1  A    between atoms: C2_2  and  C3_3 
REMARK    2  A    between atoms: C3_3  and  N1_4 
REMARK    3  A    between atoms: C9_10  and  N2_13 
REMARK       I    between atoms: N2_13  and  C12_14 
REMARK    4  A    between atoms: C12_14  and  C13_16 
REMARK    5  A    between atoms: C17_20  and  O2_22 
REMARK    6  A    between atoms: O2_22  and  C19_23 
REMARK    7  A    between atoms: C19_23  and  C20_24 
REMARK       I    between atoms: C20_24  and  N3_26 
ROOT
ATOM      1  N2  <0> d           2.317  -4.794  -4.318  0.00  0.00    -0.322 N 
ATOM      2  C12 <0> d           2.284  -5.959  -4.997  0.00  0.00     0.256 C 
ATOM      3  O1  <0> d           2.337  -7.014  -4.396  0.00  0.00    -0.267 OA
ATOM      4  H15 <0> d           2.193  -3.955  -4.789  0.00  0.00     0.169 HD
ENDROOT
BRANCH   1   5
ATOM      5  C9  <0> d           2.529  -4.796  -2.936  0.00  0.00     0.043 A 
ATOM      6  C8  <0> d           3.197  -5.856  -2.336  0.00  0.00     0.030 A 
ATOM      7  C7  <0> d           3.405  -5.854  -0.971  0.00  0.00     0.003 A 
ATOM      8  C6  <0> d           2.949  -4.800  -0.201  0.00  0.00     0.009 A 
ATOM      9  C5  <0> d           2.284  -3.743  -0.794  0.00  0.00    -0.022 A 
ATOM     10  C4  <0> d           1.686  -2.479  -0.218  0.00  0.00     0.274 C 
ATOM     11  C10 <0> d           2.072  -3.739  -2.161  0.00  0.00     0.002 A 
ATOM     12  N1  <0> d           0.758  -1.968  -1.253  0.00  0.00    -0.063 N 
ATOM     13  C11 <0> d           1.329  -2.472  -2.522  0.00  0.00     0.276 C 
ATOM     14  H24 <0> d          -0.171  -2.337  -1.111  0.00  0.00     0.280 HD
BRANCH  12  15
ATOM     15  C3  <0> d           0.735  -0.500  -1.245  0.00  0.00     0.235 C 
BRANCH  15  16
ATOM     16  C2  <0> d           0.029  -0.007   0.020  0.00  0.00     0.023 C 
ATOM     17  C1  <0> d           0.005   1.522   0.028  0.00  0.00     0.007 C 
ENDBRANCH  15  16
ENDBRANCH  12  15
ENDBRANCH   1   5
BRANCH   2  18
ATOM     18  C13 <0> d           2.183  -5.952  -6.471  0.00  0.00     0.035 A 
ATOM     19  C18 <0> d           2.148  -7.156  -7.176  0.00  0.00     0.053 A 
ATOM     20  C17 <0> d           2.048  -7.142  -8.557  0.00  0.00     0.070 A 
ATOM     21  C16 <0> d           1.993  -5.933  -9.238  0.00  0.00     0.037 A 
ATOM     22  C15 <0> d           2.033  -4.739  -8.541  0.00  0.00     0.004 A 
ATOM     23  C14 <0> d           2.127  -4.742  -7.165  0.00  0.00     0.017 A 
BRANCH  20  24
ATOM     24  O2  <0> d           2.007  -8.312  -9.247  0.00  0.00    -0.342 OA
BRANCH  24  25
ATOM     25  C19 <0> d           1.909  -8.224 -10.670  0.00  0.00     0.278 C 
BRANCH  25  26
ATOM     26  C20 <0> d           1.877  -9.611 -11.258  0.00  0.00     0.239 C 
ATOM     27  O3  <0> d           1.933 -10.579 -10.531  0.00  0.00    -0.271 OA
ATOM     28  N3  <0> d           1.786  -9.774 -12.593  0.00  0.00    -0.368 N 
ATOM     29  H22 <0> d           1.741  -8.999 -13.175  0.00  0.00     0.159 HD
ATOM     30  H23 <0> d           1.766 -10.667 -12.972  0.00  0.00     0.159 HD
ENDBRANCH  25  26
ENDBRANCH  24  25
ENDBRANCH  20  24
ENDBRANCH   2  18
TORSDOF 7
