REMARK  5 active torsions:
REMARK  status: ('A' for Active; 'I' for Inactive)
REMARK    1  A    between atoms: C2_2  and  C3_3 
REMARK    2  A    between atoms: C3_3  and  C4_4 
REMARK    3  A    between atoms: C3_3  and  N1_6 
REMARK       I    between atoms: N1_6  and  C5_7 
REMARK    4  A    between atoms: C5_7  and  C6_9 
REMARK    5  A    between atoms: C6_9  and  C7_10 
ROOT
ATOM      1  C7  <0> d           2.312   1.398  -6.647  0.00  0.00     0.033 A 
ATOM      2  C8  <0> d           2.261   1.173  -5.308  0.00  0.00    -0.036 A 
ATOM      3  C9  <0> d           1.023   1.522  -4.604  0.00  0.00     0.006 A 
ATOM      4  C10 <0> d           0.906   1.317  -3.230  0.00  0.00     0.029 A 
ATOM      5  C11 <0> d          -0.277   1.657  -2.588  0.00  0.00     0.008 A 
ATOM      6  C12 <0> d          -0.749   1.589  -1.205  0.00  0.00    -0.015 A 
ATOM      7  C13 <0> d          -2.002   2.071  -1.200  0.00  0.00     0.061 A 
ATOM      8  O3  <0> d          -2.355   2.433  -2.445  0.00  0.00    -0.313 OA
ATOM      9  C14 <0> d          -1.352   2.205  -3.320  0.00  0.00     0.095 A 
ATOM     10  C15 <0> d          -1.226   2.406  -4.686  0.00  0.00     0.008 A 
ATOM     11  C16 <0> d          -0.050   2.071  -5.337  0.00  0.00     0.099 A 
ATOM     12  O4  <0> d           0.063   2.271  -6.667  0.00  0.00    -0.274 OA
ATOM     13  C17 <0> d           1.194   1.951  -7.303  0.00  0.00     0.295 A 
ATOM     14  O5  <0> d           1.261   2.145  -8.503  0.00  0.00    -0.259 OA
ATOM     15  C18 <0> d          -2.375   2.992  -5.466  0.00  0.00     0.054 C 
ATOM     16  C19 <0> d          -2.852   2.173   0.046  0.00  0.00     0.066 C 
ATOM     17  C20 <0> d          -2.238   1.279   1.129  0.00  0.00     0.007 C 
ATOM     18  C21 <0> d          -0.739   1.585   1.264  0.00  0.00     0.005 C 
ATOM     19  C22 <0> d          -0.013   1.086   0.008  0.00  0.00     0.042 C 
ATOM     20  C23 <0> d           3.436   0.583  -4.572  0.00  0.00     0.050 C 
ENDROOT
BRANCH   1  21
ATOM     21  C6  <0> d           3.557   1.060  -7.425  0.00  0.00     0.148 C 
BRANCH  21  22
ATOM     22  C5  <0> d           3.467  -0.360  -7.924  0.00  0.00     0.222 C 
ATOM     23  N1  <0> d           4.474  -0.884  -8.650  0.00  0.00    -0.346 N 
ATOM     24  H7  <0> d           5.257  -0.348  -8.852  0.00  0.00     0.163 HD
ATOM     25  O2  <0> d           2.488  -1.030  -7.672  0.00  0.00    -0.273 OA
BRANCH  23  26
ATOM     26  C3  <0> d           4.386  -2.264  -9.136  0.00  0.00     0.185 C 
BRANCH  26  27
ATOM     27  C2  <0> d           5.262  -2.424 -10.380  0.00  0.00     0.032 C 
ATOM     28  C1  <0> d           4.703  -1.560 -11.512  0.00  0.00     0.007 C 
ENDBRANCH  26  27
BRANCH  26  29
ATOM     29  C4  <0> d           4.864  -3.205  -8.060  0.00  0.00     0.196 C 
ATOM     30  O1  <0> d           5.239  -2.769  -6.998  0.00  0.00    -0.646 OA
ATOM     31  O6  <0> d           4.872  -4.529  -8.283  0.00  0.00    -0.646 OA
ENDBRANCH  26  29
ENDBRANCH  23  26
ENDBRANCH  21  22
ENDBRANCH   1  21
TORSDOF 5
