REMARK  11 active torsions:
REMARK  status: ('A' for Active; 'I' for Inactive)
REMARK    1  A    between atoms: C2_2  and  C3_3 
REMARK    2  A    between atoms: C3_3  and  C4_4 
REMARK    3  A    between atoms: C3_3  and  N5_27 
REMARK    4  A    between atoms: C5_7  and  S1_15 
REMARK    5  A    between atoms: N3_8  and  C6_9 
REMARK    6  A    between atoms: S1_15  and  C12_16 
REMARK    7  A    between atoms: C12_16  and  C13_17 
REMARK    8  A    between atoms: C13_17  and  N4_24 
REMARK    9  A    between atoms: C14_18  and  C15_19 
REMARK   10  A    between atoms: C14_18  and  N4_24 
REMARK   11  A    between atoms: C15_19  and  O1_20 
ROOT
ATOM      1  C4  <0> d          -2.959   1.697   2.360  0.00  0.00     0.166 A 
ATOM      2  N1  <0> d          -3.093   1.306   3.596  0.00  0.00    -0.131 NA
ATOM      3  N2  <0> d          -3.902   2.084   4.221  0.00  0.00    -0.122 NA
ATOM      4  C5  <0> d          -4.335   3.023   3.412  0.00  0.00     0.196 A 
ATOM      5  N3  <0> d          -3.742   2.809   2.198  0.00  0.00    -0.274 N 
ENDROOT
BRANCH   4   6
ATOM      6  S1  <0> d          -5.460   4.318   3.815  0.00  0.00    -0.088 SA
BRANCH   6   7
ATOM      7  C12 <0> d          -5.772   3.932   5.556  0.00  0.00     0.110 C 
BRANCH   7   8
ATOM      8  C13 <0> d          -6.752   4.954   6.137  0.00  0.00     0.243 C 
BRANCH   8   9
ATOM      9  N4  <0> d          -7.001   4.633   7.555  0.00  0.00    -0.072 N 
ATOM     10  H27 <0> d          -6.114   4.667   8.071  0.00  0.00     0.277 HD
ATOM     11  H28 <0> d          -7.400   3.689   7.623  0.00  0.00     0.277 HD
BRANCH   9  12
ATOM     12  C14 <0> d          -7.944   5.603   8.142  0.00  0.00     0.258 C 
BRANCH  12  13
ATOM     13  C15 <0> d          -8.182   5.245   9.610  0.00  0.00     0.191 C 
BRANCH  13  14
ATOM     14  O1  <0> d          -6.966   5.403  10.343  0.00  0.00    -0.399 OA
ATOM     15  H20 <0> d          -7.043   5.193  11.284  0.00  0.00     0.209 HD
ENDBRANCH  13  14
ENDBRANCH  12  13
ENDBRANCH   9  12
ENDBRANCH   8   9
ENDBRANCH   7   8
ENDBRANCH   6   7
ENDBRANCH   4   6
BRANCH   5  16
ATOM     16  C6  <0> d          -3.903   3.569   1.030  0.00  0.00     0.043 A 
ATOM     17  C11 <0> d          -5.140   3.623   0.402  0.00  0.00     0.030 A 
ATOM     18  C10 <0> d          -5.296   4.372  -0.749  0.00  0.00     0.002 A 
ATOM     19  C9  <0> d          -4.223   5.067  -1.274  0.00  0.00     0.000 A 
ATOM     20  C8  <0> d          -2.990   5.015  -0.650  0.00  0.00     0.002 A 
ATOM     21  C7  <0> d          -2.829   4.272   0.504  0.00  0.00     0.030 A 
ENDBRANCH   5  16
BRANCH   1  22
ATOM     22  C3  <0> d          -2.099   1.049   1.306  0.00  0.00     0.258 C 
BRANCH  22  23
ATOM     23  C2  <0> d          -0.630   1.129   1.727  0.00  0.00     0.037 C 
ATOM     24  C1  <0> d           0.254   0.585   0.603  0.00  0.00     0.007 C 
ENDBRANCH  22  23
BRANCH  22  25
ATOM     25  N5  <0> d          -2.469  -0.372   1.137  0.00  0.00    -0.068 N 
ATOM     26  C16 <0> d          -2.437  -1.062   2.443  0.00  0.00     0.270 C 
ATOM     27  C17 <0> d          -3.819  -0.475   0.545  0.00  0.00     0.270 C 
ATOM     28  H29 <0> d          -1.793  -0.820   0.506  0.00  0.00     0.279 HD
ENDBRANCH  22  25
ENDBRANCH   1  22
TORSDOF 11
