REMARK  8 active torsions:
REMARK  status: ('A' for Active; 'I' for Inactive)
REMARK    1  A    between atoms: C5_5  and  O4_29 
REMARK    2  A    between atoms: C6_6  and  C8_8 
REMARK    3  A    between atoms: N3_16  and  C19_25 
REMARK    4  A    between atoms: C12_17  and  C13_18 
REMARK    5  A    between atoms: C17_22  and  O2_24 
REMARK    6  A    between atoms: C19_25  and  C20_26 
REMARK    7  A    between atoms: C20_26  and  C21_27 
REMARK    8  A    between atoms: C21_27  and  O3_28 
ROOT
ATOM      1  C8  <0> d           0.052  -2.841   2.463  0.00  0.00     0.074 A 
ATOM      2  C9  <0> d           1.054  -3.632   2.928  0.00  0.00     0.034 A 
ATOM      3  C10 <0> d           0.613  -4.128   4.175  0.00  0.00     0.155 A 
ATOM      4  N1  <0> d          -0.588  -3.625   4.385  0.00  0.00    -0.168 NA
ATOM      5  N2  <0> d          -0.936  -2.868   3.406  0.00  0.00    -0.276 N 
ATOM      6  H1  <0> d          -1.777  -2.389   3.345  0.00  0.00     0.189 HD
ATOM      7  C11 <0> d           1.674  -4.994   4.719  0.00  0.00     0.275 A 
ATOM      8  O1  <0> d           1.613  -5.581   5.782  0.00  0.00    -0.266 OA
ATOM      9  N3  <0> d           2.717  -5.045   3.874  0.00  0.00    -0.334 N 
ATOM     10  C12 <0> d           2.424  -4.212   2.702  0.00  0.00     0.159 A 
ENDROOT
BRANCH   1  11
ATOM     11  C6  <0> d           0.036  -2.092   1.188  0.00  0.00     0.027 A 
ATOM     12  C5  <0> d           0.040  -2.779  -0.031  0.00  0.00     0.084 A 
ATOM     13  C4  <0> d           0.024  -2.069  -1.221  0.00  0.00    -0.027 A 
ATOM     14  C3  <0> d           0.006  -0.687  -1.202  0.00  0.00     0.016 A 
ATOM     15  C22 <0> d           0.028  -2.804  -2.536  0.00  0.00     0.051 C 
ATOM     16  C2  <0> d           0.002  -0.004   0.002  0.00  0.00    -0.060 A 
ATOM     17  C1  <0> d          -0.018   1.503   0.010  0.00  0.00     0.048 C 
ATOM     18  C7  <0> d           0.023  -0.698   1.195  0.00  0.00     0.023 A 
BRANCH  12  19
ATOM     19  O4  <0> d           0.058  -4.137  -0.049  0.00  0.00    -0.359 OA
ATOM     20  H20 <0> d           0.946  -4.519  -0.058  0.00  0.00     0.217 HD
ENDBRANCH  12  19
ENDBRANCH   1  11
BRANCH  10  21
ATOM     21  C13 <0> d           3.441  -3.107   2.585  0.00  0.00    -0.028 A 
ATOM     22  C18 <0> d           3.881  -2.703   1.340  0.00  0.00     0.046 A 
ATOM     23  C17 <0> d           4.814  -1.681   1.233  0.00  0.00     0.066 A 
ATOM     24  C16 <0> d           5.310  -1.075   2.378  0.00  0.00     0.036 A 
ATOM     25  C15 <0> d           4.871  -1.487   3.621  0.00  0.00     0.003 A 
ATOM     26  C14 <0> d           3.937  -2.501   3.725  0.00  0.00     0.010 A 
BRANCH  23  27
ATOM     27  O2  <0> d           5.244  -1.278   0.008  0.00  0.00    -0.361 OA
ATOM     28  H12 <0> d           6.020  -1.757  -0.313  0.00  0.00     0.217 HD
ENDBRANCH  23  27
ENDBRANCH  10  21
BRANCH   9  29
ATOM     29  C19 <0> d           3.950  -5.808   4.088  0.00  0.00     0.129 C 
BRANCH  29  30
ATOM     30  C20 <0> d           3.788  -7.212   3.502  0.00  0.00     0.046 C 
BRANCH  30  31
ATOM     31  C21 <0> d           5.075  -8.009   3.725  0.00  0.00     0.165 C 
BRANCH  31  32
ATOM     32  O3  <0> d           4.925  -9.320   3.178  0.00  0.00    -0.401 OA
ATOM     33  H19 <0> d           5.704  -9.883   3.284  0.00  0.00     0.209 HD
ENDBRANCH  31  32
ENDBRANCH  30  31
ENDBRANCH  29  30
ENDBRANCH   9  29
TORSDOF 8
