REMARK  5 active torsions:
REMARK  status: ('A' for Active; 'I' for Inactive)
REMARK    1  A    between atoms: N2_14  and  C11_15 
REMARK    2  A    between atoms: C11_15  and  C12_16 
REMARK    3  A    between atoms: C12_16  and  C13_17 
REMARK       I    between atoms: C13_17  and  N3_19 
REMARK    4  A    between atoms: N3_19  and  C14_20 
REMARK    5  A    between atoms: C17_26  and  N4_27 
ROOT
ATOM      1  C12 <0> d          -1.720  -0.987  -1.429  0.00  0.00     0.123 C 
ENDROOT
BRANCH   1   2
ATOM      2  C11 <0> d          -1.265  -0.739   0.010  0.00  0.00     0.142 C 
BRANCH   2   3
ATOM      3  N2  <0> d           0.002  -0.004   0.002  0.00  0.00    -0.307 N 
ATOM      4  C1  <0> d          -0.016   1.354   0.009  0.00  0.00     0.213 A 
ATOM      5  N1  <0> d           1.092   2.045   0.003  0.00  0.00    -0.235 NA
ATOM      6  C2  <0> d           2.276   1.439  -0.012  0.00  0.00     0.115 A 
ATOM      7  S1  <0> d           3.960   1.997  -0.025  0.00  0.00    -0.073 SA
ATOM      8  C3  <0> d           2.396   0.040  -0.021  0.00  0.00     0.075 A 
ATOM      9  C5  <0> d           4.764   0.417  -0.043  0.00  0.00    -0.008 A 
ATOM     10  C4  <0> d           3.760  -0.486  -0.038  0.00  0.00    -0.026 A 
ATOM     11  C6  <0> d           6.235   0.137  -0.060  0.00  0.00     0.047 C 
ATOM     12  C9  <0> d           4.058  -1.983  -0.050  0.00  0.00     0.041 C 
ATOM     13  C8  <0> d           5.494  -2.196  -0.530  0.00  0.00     0.005 C 
ATOM     14  C7  <0> d           6.452  -1.339   0.303  0.00  0.00     0.005 C 
ATOM     15  C10 <0> d           1.161  -0.689  -0.013  0.00  0.00     0.262 A 
ATOM     16  O1  <0> d           1.161  -1.907  -0.019  0.00  0.00    -0.267 OA
ENDBRANCH   2   3
ENDBRANCH   1   2
BRANCH   1  17
ATOM     17  C13 <0> d          -3.024  -1.743  -1.421  0.00  0.00     0.219 C 
ATOM     18  O2  <0> d          -3.538  -2.053  -0.367  0.00  0.00    -0.274 OA
ATOM     19  N3  <0> d          -3.618  -2.075  -2.584  0.00  0.00    -0.353 N 
ATOM     20  H16 <0> d          -3.207  -1.827  -3.427  0.00  0.00     0.163 HD
BRANCH  19  21
ATOM     21  C14 <0> d          -4.886  -2.809  -2.576  0.00  0.00     0.132 C 
ATOM     22  C17 <0> d          -4.985  -3.628  -3.862  0.00  0.00     0.260 C 
ATOM     23  C16 <0> d          -5.677  -2.804  -4.978  0.00  0.00     0.178 C 
ATOM     24  S2  <0> d          -6.981  -1.964  -3.975  0.00  0.00     0.148 S 
ATOM     25  C15 <0> d          -6.039  -1.802  -2.402  0.00  0.00     0.167 C 
ATOM     26  O3  <0> d          -8.068  -2.858  -3.780  0.00  0.00    -0.228 OA
ATOM     27  O4  <0> d          -7.223  -0.670  -4.511  0.00  0.00    -0.228 OA
BRANCH  22  28
ATOM     28  N4  <0> d          -3.636  -4.003  -4.305  0.00  0.00     0.096 N 
ATOM     29  C21 <0> d          -3.689  -4.799  -5.551  0.00  0.00     0.273 C 
ATOM     30  C20 <0> d          -2.536  -5.818  -5.485  0.00  0.00     0.032 C 
ATOM     31  C19 <0> d          -1.855  -5.570  -4.120  0.00  0.00     0.032 C 
ATOM     32  C18 <0> d          -2.967  -4.868  -3.300  0.00  0.00     0.273 C 
ENDBRANCH  22  28
ENDBRANCH  19  21
ENDBRANCH   1  17
TORSDOF 5
