REMARK  6 active torsions:
REMARK  status: ('A' for Active; 'I' for Inactive)
REMARK    1  A    between atoms: C12_12  and  O3_22 
REMARK    2  A    between atoms: C14_14  and  C16_17 
REMARK    3  A    between atoms: C14_14  and  C19_20 
REMARK    4  A    between atoms: C15_15  and  O1_16 
REMARK    5  A    between atoms: C16_17  and  C17_18 
REMARK    6  A    between atoms: C19_20  and  O2_21 
ROOT
ATOM      1  C1  <0> d          -7.417   4.185   2.053  0.00  0.00     0.020 C 
ATOM      2  C2  <0> d          -6.377   3.063   2.197  0.00  0.00    -0.014 C 
ATOM      3  C3  <0> d          -5.266   3.582   3.106  0.00  0.00     0.019 C 
ATOM      4  C4  <0> d          -5.764   3.783   4.537  0.00  0.00     0.070 C 
ATOM      5  C5  <0> d          -6.276   2.454   5.095  0.00  0.00     0.167 C 
ATOM      6  C6  <0> d          -7.502   2.014   4.288  0.00  0.00     0.103 C 
ATOM      7  C7  <0> d          -7.073   1.897   2.834  0.00  0.00    -0.070 C 
ATOM      8  C8  <0> d          -7.341   0.781   2.219  0.00  0.00    -0.023 C 
ATOM      9  C9  <0> d          -6.973   0.552   0.781  0.00  0.00     0.035 C 
ATOM     10  C10 <0> d          -5.672   1.307   0.489  0.00  0.00     0.026 C 
ATOM     11  C11 <0> d          -5.863   2.781   0.801  0.00  0.00     0.033 C 
ATOM     12  C12 <0> d          -4.605   3.563   0.465  0.00  0.00     0.124 C 
ATOM     13  C13 <0> d          -3.332   2.980   1.023  0.00  0.00     0.046 C 
ATOM     14  C14 <0> d          -3.251   1.500   1.198  0.00  0.00     0.013 C 
ATOM     15  C15 <0> d          -4.523   0.714   1.276  0.00  0.00     0.134 C 
ATOM     16  O4  <0> d          -6.631   2.605   6.476  0.00  0.00    -0.353 OA
ATOM     17  C20 <0> d          -6.273   1.343   7.090  0.00  0.00     0.197 C 
ATOM     18  C21 <0> d          -4.991   0.960   6.310  0.00  0.00     0.197 C 
ATOM     19  O5  <0> d          -5.251   1.459   4.983  0.00  0.00    -0.353 OA
ENDROOT
BRANCH  14  20
ATOM     20  C16 <0> d          -2.451   0.944   0.019  0.00  0.00     0.040 C 
BRANCH  20  21
ATOM     21  C17 <0> d          -3.192   1.217  -1.265  0.00  0.00    -0.036 C 
ATOM     22  C18 <0> d          -2.645   1.965  -2.191  0.00  0.00     0.007 C 
ENDBRANCH  20  21
ENDBRANCH  14  20
BRANCH  14  23
ATOM     23  C19 <0> d          -2.442   1.209   2.458  0.00  0.00     0.176 C 
BRANCH  23  24
ATOM     24  O2  <0> d          -1.167   1.848   2.364  0.00  0.00    -0.400 OA
ATOM     25  H27 <0> d          -0.598   1.705   3.133  0.00  0.00     0.209 HD
ENDBRANCH  23  24
ENDBRANCH  14  23
BRANCH  15  26
ATOM     26  O1  <0> d          -4.263  -0.596   0.774  0.00  0.00    -0.394 OA
ATOM     27  H19 <0> d          -5.033  -1.181   0.785  0.00  0.00     0.210 HD
ENDBRANCH  15  26
BRANCH  12  28
ATOM     28  O3  <0> d          -4.482   3.651  -0.963  0.00  0.00    -0.395 OA
ATOM     29  H28 <0> d          -3.701   4.137  -1.261  0.00  0.00     0.210 HD
ENDBRANCH  12  28
TORSDOF 6
