REMARK  7 active torsions:
REMARK  status: ('A' for Active; 'I' for Inactive)
REMARK    1  A    between atoms: S1_2  and  S2_5 
REMARK    2  A    between atoms: S2_5  and  C2_6 
REMARK    3  A    between atoms: C2_6  and  C3_7 
REMARK    4  A    between atoms: C3_7  and  C4_8 
REMARK       I    between atoms: C4_8  and  N1_10 
REMARK    5  A    between atoms: N1_10  and  C5_11 
REMARK    6  A    between atoms: C16_24  and  O8_35 
REMARK    7  A    between atoms: C23_32  and  O7_34 
ROOT
ATOM      1  C5  <0> d           6.681  -1.297   1.150  0.00  0.00     0.035 A 
ATOM      2  C6  <0> d           7.223  -0.160   0.569  0.00  0.00     0.030 A 
ATOM      3  C7  <0> d           8.522   0.254   0.843  0.00  0.00     0.014 A 
ATOM      4  C8  <0> d           9.253  -0.517   1.720  0.00  0.00     0.003 A 
ATOM      5  C9  <0> d           8.714  -1.673   2.316  0.00  0.00     0.051 A 
ATOM      6  C10 <0> d           7.408  -2.082   2.042  0.00  0.00     0.048 A 
ATOM      7  C11 <0> d           9.743  -2.248   3.183  0.00  0.00     0.295 A 
ATOM      8  O4  <0> d           9.612  -3.255   3.850  0.00  0.00    -0.259 OA
ATOM      9  O5  <0> d          10.858  -1.493   3.131  0.00  0.00    -0.291 OA
ATOM     10  C12 <0> d          10.649  -0.387   2.242  0.00  0.00     0.159 A 
ATOM     11  C13 <0> d          11.641  -0.461   1.111  0.00  0.00     0.020 A 
ATOM     12  C14 <0> d          11.909  -1.686   0.526  0.00  0.00     0.016 A 
ATOM     13  C15 <0> d          12.817  -1.779  -0.510  0.00  0.00     0.037 A 
ATOM     14  C16 <0> d          13.464  -0.640  -0.969  0.00  0.00     0.068 A 
ATOM     15  C17 <0> d          13.197   0.587  -0.386  0.00  0.00     0.074 A 
ATOM     16  C18 <0> d          12.283   0.680   0.656  0.00  0.00     0.088 A 
ATOM     17  O6  <0> d          12.035   1.889   1.212  0.00  0.00    -0.309 OA
ATOM     18  C19 <0> d          11.492   1.973   2.450  0.00  0.00     0.088 A 
ATOM     19  C20 <0> d          10.807   0.903   3.003  0.00  0.00     0.020 A 
ATOM     20  C21 <0> d          10.259   1.012   4.269  0.00  0.00     0.016 A 
ATOM     21  C22 <0> d          10.393   2.184   4.987  0.00  0.00     0.037 A 
ATOM     22  C23 <0> d          11.080   3.258   4.439  0.00  0.00     0.068 A 
ATOM     23  C24 <0> d          11.629   3.152   3.171  0.00  0.00     0.074 A 
ENDROOT
BRANCH   1  24
ATOM     24  N1  <0> d           5.367  -1.662   0.835  0.00  0.00    -0.327 N 
ATOM     25  C4  <0> d           4.579  -2.220   1.775  0.00  0.00     0.222 C 
ATOM     26  O3  <0> d           5.032  -2.482   2.869  0.00  0.00    -0.273 OA
ATOM     27  H8  <0> d           5.024  -1.514  -0.060  0.00  0.00     0.169 HD
BRANCH  25  28
ATOM     28  C3  <0> d           3.134  -2.519   1.467  0.00  0.00     0.114 C 
BRANCH  28  29
ATOM     29  C2  <0> d           2.470  -3.144   2.695  0.00  0.00     0.100 C 
BRANCH  29  30
ATOM     30  S2  <0> d           0.731  -3.504   2.324  0.00  0.00    -0.037 SA
BRANCH  30  31
ATOM     31  S1  <0> d           0.819  -5.056   0.988  0.00  0.00     0.195 S 
ATOM     32  C1  <0> d           1.248  -6.508   1.988  0.00  0.00     0.174 C 
ATOM     33  O1  <0> d           1.894  -4.726   0.119  0.00  0.00    -0.217 OA
ATOM     34  O2  <0> d          -0.505  -5.180   0.488  0.00  0.00    -0.217 OA
ENDBRANCH  30  31
ENDBRANCH  29  30
ENDBRANCH  28  29
ENDBRANCH  25  28
ENDBRANCH   1  24
BRANCH  22  35
ATOM     35  O7  <0> d          11.214   4.412   5.144  0.00  0.00    -0.361 OA
ATOM     36  H18 <0> d          12.005   4.444   5.699  0.00  0.00     0.217 HD
ENDBRANCH  22  35
BRANCH  14  37
ATOM     37  O8  <0> d          14.359  -0.730  -1.988  0.00  0.00    -0.361 OA
ATOM     38  H19 <0> d          13.968  -0.621  -2.866  0.00  0.00     0.217 HD
ENDBRANCH  14  37
TORSDOF 7
