REMARK  4 active torsions:
REMARK  status: ('A' for Active; 'I' for Inactive)
REMARK    1  A    between atoms: C7_7  and  N1_8 
REMARK       I    between atoms: N1_8  and  C8_9 
REMARK    2  A    between atoms: C8_9  and  C9_11 
REMARK    3  A    between atoms: C9_11  and  N3_28 
REMARK    4  A    between atoms: C18_20  and  C19_21 
REMARK       I    between atoms: C19_21  and  N2_23 
ROOT
ATOM      1  C10 <0> d           0.429   2.829   1.782  0.00  0.00     0.275 C 
ATOM      2  C11 <0> d          -0.577   3.311   2.794  0.00  0.00    -0.026 A 
ATOM      3  C12 <0> d          -0.723   4.678   2.980  0.00  0.00     0.009 A 
ATOM      4  C13 <0> d          -1.626   5.164   3.903  0.00  0.00     0.001 A 
ATOM      5  C14 <0> d          -2.391   4.285   4.647  0.00  0.00     0.001 A 
ATOM      6  C15 <0> d          -2.248   2.924   4.461  0.00  0.00     0.008 A 
ATOM      7  C16 <0> d          -1.342   2.435   3.533  0.00  0.00    -0.048 A 
ATOM      8  C17 <0> d          -1.223   0.942   3.362  0.00  0.00     0.082 C 
ATOM      9  C18 <0> d           0.077   0.602   2.634  0.00  0.00     0.284 C 
ATOM     10  N3  <0> d           0.143   1.432   1.414  0.00  0.00    -0.046 N 
ATOM     11  H21 <0> d          -0.763   1.391   0.932  0.00  0.00     0.281 HD
ENDROOT
BRANCH  10  12
ATOM     12  C9  <0> d           1.195   0.921   0.507  0.00  0.00     0.338 C 
BRANCH  12  13
ATOM     13  C8  <0> d           1.003   1.531  -0.858  0.00  0.00     0.248 C 
ATOM     14  N1  <0> d           1.837   1.205  -1.865  0.00  0.00    -0.325 N 
ATOM     15  H8  <0> d           2.522   0.533  -1.729  0.00  0.00     0.169 HD
ATOM     16  O1  <0> d           0.097   2.314  -1.049  0.00  0.00    -0.271 OA
BRANCH  14  17
ATOM     17  C7  <0> d           1.714   1.838  -3.107  0.00  0.00     0.040 A 
ATOM     18  C2  <0> d           2.823   1.972  -3.932  0.00  0.00    -0.034 A 
ATOM     19  C1  <0> d           4.161   1.435  -3.490  0.00  0.00     0.050 C 
ATOM     20  C3  <0> d           2.699   2.593  -5.160  0.00  0.00     0.032 A 
ATOM     21  C4  <0> d           1.472   3.091  -5.563  0.00  0.00     0.034 A 
ATOM     22  C5  <0> d           0.367   2.963  -4.740  0.00  0.00     0.026 A 
ATOM     23 Cl1  <0> d           1.321   3.877  -7.103  0.00  0.00    -0.084 Cl
ATOM     24  C6  <0> d           0.485   2.339  -3.514  0.00  0.00     0.032 A 
ENDBRANCH  14  17
ENDBRANCH  12  13
ENDBRANCH  10  12
BRANCH   9  25
ATOM     25  C19 <0> d           0.076  -0.856   2.250  0.00  0.00     0.246 C 
ATOM     26  O2  <0> d          -0.439  -1.209   1.210  0.00  0.00    -0.271 OA
ATOM     27  N2  <0> d           0.648  -1.766   3.062  0.00  0.00    -0.368 N 
ATOM     28  H19 <0> d           1.060  -1.484   3.894  0.00  0.00     0.159 HD
ATOM     29  H20 <0> d           0.647  -2.704   2.816  0.00  0.00     0.159 HD
ENDBRANCH   9  25
TORSDOF 4
