REMARK  7 active torsions:
REMARK  status: ('A' for Active; 'I' for Inactive)
REMARK    1  A    between atoms: C2_2  and  N1_9 
REMARK       I    between atoms: N1_9  and  C6_10 
REMARK    2  A    between atoms: C6_10  and  C7_12 
REMARK    3  A    between atoms: C7_12  and  N2_13 
REMARK    4  A    between atoms: N3_16  and  C14_25 
REMARK    5  A    between atoms: N4_19  and  C11_22 
REMARK    6  A    between atoms: C11_22  and  C12_23 
REMARK    7  A    between atoms: C14_25  and  C15_26 
ROOT
ATOM      1  N2  <0> d           2.407   1.043  -0.015  0.00  0.00    -0.242 N 
ATOM      2  C8  <0> d           2.939   0.610   1.145  0.00  0.00     0.337 A 
ATOM      3  O4  <0> d           2.486   0.997   2.203  0.00  0.00    -0.246 OA
ATOM      4  N3  <0> d           3.972  -0.256   1.130  0.00  0.00    -0.247 N 
ATOM      5  C9  <0> d           4.479  -0.680  -0.044  0.00  0.00     0.337 A 
ATOM      6  O5  <0> d           5.413  -1.458  -0.058  0.00  0.00    -0.246 OA
ATOM      7  N4  <0> d           3.950  -0.243  -1.204  0.00  0.00    -0.247 N 
ATOM      8  C10 <0> d           2.913   0.618  -1.190  0.00  0.00     0.337 A 
ATOM      9  O6  <0> d           2.436   1.013  -2.235  0.00  0.00    -0.246 OA
ENDROOT
BRANCH   1  10
ATOM     10  C7  <0> d           1.280   1.980   0.001  0.00  0.00     0.241 C 
BRANCH  10  11
ATOM     11  C6  <0> d          -0.014   1.209   0.009  0.00  0.00     0.236 C 
ATOM     12  N1  <0> d          -1.191   1.867   0.018  0.00  0.00    -0.350 N 
ATOM     13  H10 <0> d          -1.206   2.966   0.024  0.00  0.00     0.163 HD
ATOM     14  O3  <0> d           0.002  -0.004   0.002  0.00  0.00    -0.272 OA
BRANCH  12  15
ATOM     15  C2  <0> d          -2.449   1.117   0.020  0.00  0.00     0.043 C 
ATOM     16  C1  <0> d          -2.514   0.273   1.294  0.00  0.00     0.039 C 
ATOM     17  C5  <0> d          -3.621   2.118   0.031  0.00  0.00     0.170 C 
ATOM     18  S1  <0> d          -4.629   1.603  -1.421  0.00  0.00     0.146 S 
ATOM     19  C4  <0> d          -3.922  -0.088  -1.646  0.00  0.00     0.143 C 
ATOM     20  O1  <0> d          -5.990   1.492  -1.028  0.00  0.00    -0.228 OA
ATOM     21  O2  <0> d          -4.284   2.408  -2.540  0.00  0.00    -0.228 OA
ATOM     22  C3  <0> d          -2.462   0.178  -1.186  0.00  0.00     0.046 C 
ENDBRANCH  12  15
ENDBRANCH  10  11
ENDBRANCH   1  10
BRANCH   7  23
ATOM     23  C11 <0> d           4.501  -0.705  -2.481  0.00  0.00     0.165 C 
BRANCH  23  24
ATOM     24  C12 <0> d           5.598   0.230  -2.921  0.00  0.00    -0.017 C 
ATOM     25  C13 <0> d           6.790  -0.241  -3.191  0.00  0.00     0.008 C 
ENDBRANCH  23  24
ENDBRANCH   7  23
BRANCH   4  26
ATOM     26  C14 <0> d           4.547  -0.731   2.391  0.00  0.00     0.165 C 
BRANCH  26  27
ATOM     27  C15 <0> d           5.653   0.198   2.821  0.00  0.00    -0.017 C 
ATOM     28  C16 <0> d           5.622   0.748   4.009  0.00  0.00     0.008 C 
ENDBRANCH  26  27
ENDBRANCH   4  26
TORSDOF 7
