REMARK  4 active torsions:
REMARK  status: ('A' for Active; 'I' for Inactive)
REMARK    1  A    between atoms: C6_6  and  N1_7 
REMARK    2  A    between atoms: C7_9  and  S1_11 
REMARK    3  A    between atoms: S1_11  and  C8_13 
REMARK    4  A    between atoms: C8_13  and  C9_14 
ROOT
ATOM      1  C1  <0> d          -0.017   1.389   0.010  0.00  0.00     0.031 A 
ATOM      2  C2  <0> d           1.151   2.098   0.002  0.00  0.00     0.037 A 
ATOM      3  C3  <0> d           2.374   1.426  -0.013  0.00  0.00     0.094 A 
ATOM      4  C4  <0> d           2.398   0.022  -0.021  0.00  0.00     0.109 A 
ATOM      5  C5  <0> d           1.208  -0.687  -0.013  0.00  0.00     0.068 A 
ATOM      6  C6  <0> d           0.002  -0.004   0.002  0.00  0.00     0.028 A 
ATOM      7  O1  <0> d           3.702  -0.333  -0.035  0.00  0.00    -0.282 OA
ATOM      8  C7  <0> d           4.441   0.788  -0.037  0.00  0.00     0.240 A 
ATOM      9  N2  <0> d           3.673   1.835  -0.024  0.00  0.00    -0.214 NA
ENDROOT
BRANCH   8  10
ATOM     10  S1  <0> d           6.203   0.833  -0.054  0.00  0.00     0.096 S 
ATOM     11  O2  <0> d           6.509   2.098  -0.624  0.00  0.00    -0.249 OA
BRANCH  10  12
ATOM     12  C8  <0> d           6.659   0.834   1.702  0.00  0.00     0.149 C 
BRANCH  12  13
ATOM     13  C9  <0> d           8.182   0.872   1.833  0.00  0.00     0.133 C 
ATOM     14  O3  <0> d           8.762  -0.309   1.255  0.00  0.00    -0.385 OA
ATOM     15  C12 <0> d           9.893  -0.727   2.031  0.00  0.00     0.168 C 
ATOM     16  C11 <0> d          10.026   0.244   3.224  0.00  0.00     0.029 C 
ATOM     17  C10 <0> d           8.595   0.839   3.326  0.00  0.00     0.035 C 
ENDBRANCH  12  13
ENDBRANCH  10  12
ENDBRANCH   8  10
BRANCH   6  18
ATOM     18  N1  <0> d          -1.201  -0.716   0.010  0.00  0.00    -0.399 N 
ATOM     19  H5  <0> d          -2.046  -0.240   0.021  0.00  0.00     0.156 HD
ATOM     20  H6  <0> d          -1.190  -1.686   0.005  0.00  0.00     0.156 HD
ENDBRANCH   6  18
TORSDOF 4
