REMARK  7 active torsions:
REMARK  status: ('A' for Active; 'I' for Inactive)
REMARK    1  A    between atoms: C2_2  and  C3_3 
REMARK    2  A    between atoms: C2_2  and  O4_25 
REMARK       I    between atoms: C3_3  and  N1_5 
REMARK    3  A    between atoms: N1_5  and  N2_6 
REMARK       I    between atoms: N2_6  and  C4_7 
REMARK    4  A    between atoms: C4_7  and  C5_9 
REMARK    5  A    between atoms: C5_9  and  C6_10 
REMARK    6  A    between atoms: C6_10  and  N3_11 
REMARK    7  A    between atoms: O4_25  and  C17_26 
ROOT
ATOM      1  N2  <0> d           2.815  -8.055  -3.554  0.00  0.00    -0.267 N 
ATOM      2  C4  <0> d           2.662  -7.560  -2.309  0.00  0.00     0.237 C 
ATOM      3  O2  <0> d           3.428  -7.887  -1.428  0.00  0.00    -0.272 OA
ATOM      4  H6  <0> d           2.120  -7.758  -4.353  0.00  0.00     0.190 HD
ENDROOT
BRANCH   2   5
ATOM      5  C5  <0> d           1.539  -6.599  -2.014  0.00  0.00     0.125 C 
BRANCH   5   6
ATOM      6  C6  <0> d           1.591  -6.193  -0.539  0.00  0.00     0.142 C 
BRANCH   6   7
ATOM      7  N3  <0> d           0.499  -5.259  -0.252  0.00  0.00    -0.307 N 
ATOM      8  C10 <0> d           0.728  -3.933  -0.402  0.00  0.00     0.262 A 
ATOM      9  C9  <0> d          -0.382  -3.072  -0.105  0.00  0.00     0.075 A 
ATOM     10  O3  <0> d           1.807  -3.498  -0.766  0.00  0.00    -0.267 OA
ATOM     11  C8  <0> d          -1.582  -3.693   0.308  0.00  0.00     0.115 A 
ATOM     12  C11 <0> d          -0.405  -1.623  -0.185  0.00  0.00    -0.026 A 
ATOM     13  N4  <0> d          -1.731  -5.008   0.433  0.00  0.00    -0.235 NA
ATOM     14  S1  <0> d          -2.678  -2.334   0.569  0.00  0.00    -0.073 SA
ATOM     15  C7  <0> d          -0.691  -5.763   0.153  0.00  0.00     0.213 A 
ATOM     16  C12 <0> d          -1.569  -1.015   0.142  0.00  0.00    -0.008 A 
ATOM     17  C13 <0> d          -1.856   0.455   0.144  0.00  0.00     0.047 C 
ATOM     18  C14 <0> d          -0.521   1.211   0.075  0.00  0.00     0.005 C 
ATOM     19  C15 <0> d           0.334   0.594  -1.035  0.00  0.00     0.005 C 
ATOM     20  C16 <0> d           0.806  -0.798  -0.614  0.00  0.00     0.041 C 
ENDBRANCH   6   7
ENDBRANCH   5   6
ENDBRANCH   2   5
BRANCH   1  21
ATOM     21  N1  <0> d           3.859  -8.948  -3.829  0.00  0.00    -0.265 N 
ATOM     22  C3  <0> d           4.012  -9.443  -5.073  0.00  0.00     0.265 C 
ATOM     23  O1  <0> d           3.245  -9.116  -5.954  0.00  0.00    -0.269 OA
ATOM     24  H5  <0> d           4.554  -9.245  -3.030  0.00  0.00     0.190 HD
BRANCH  22  25
ATOM     25  C2  <0> d           5.135 -10.404  -5.369  0.00  0.00     0.218 C 
ATOM     26  C1  <0> d           4.918 -11.699  -4.584  0.00  0.00     0.050 C 
BRANCH  25  27
ATOM     27  O4  <0> d           5.158 -10.693  -6.768  0.00  0.00    -0.337 OA
BRANCH  27  28
ATOM     28  C17 <0> d           6.345 -11.094  -7.296  0.00  0.00     0.070 A 
ATOM     29  C22 <0> d           6.467 -11.283  -8.665  0.00  0.00     0.040 A 
ATOM     30  C21 <0> d           7.674 -11.691  -9.200  0.00  0.00     0.045 A 
ATOM     31  C20 <0> d           8.761 -11.910  -8.371  0.00  0.00     0.116 A 
ATOM     32  C19 <0> d           8.640 -11.721  -7.004  0.00  0.00     0.045 A 
ATOM     33  F1  <0> d           9.940 -12.310  -8.895  0.00  0.00    -0.206 F 
ATOM     34  C18 <0> d           7.436 -11.308  -6.467  0.00  0.00     0.040 A 
ENDBRANCH  27  28
ENDBRANCH  25  27
ENDBRANCH  22  25
ENDBRANCH   1  21
TORSDOF 7
