REMARK  6 active torsions:
REMARK  status: ('A' for Active; 'I' for Inactive)
REMARK    1  A    between atoms: C3_3  and  C7_8 
REMARK    2  A    between atoms: C7_8  and  C8_9 
REMARK    3  A    between atoms: C7_8  and  S1_11 
REMARK    4  A    between atoms: C8_9  and  N1_10 
REMARK    5  A    between atoms: S1_11  and  C9_12 
REMARK    6  A    between atoms: N4_18  and  C11_19 
ROOT
ATOM      1  C7  <0> d           3.744   2.145  -0.037  0.00  0.00     0.113 C 
ENDROOT
BRANCH   1   2
ATOM      2  C3  <0> d           2.349   1.585   0.068  0.00  0.00    -0.041 A 
ATOM      3  C2  <0> d           1.272   2.438   0.218  0.00  0.00     0.008 A 
ATOM      4  C1  <0> d          -0.009   1.925   0.313  0.00  0.00     0.002 A 
ATOM      5  C6  <0> d          -0.212   0.558   0.259  0.00  0.00     0.019 A 
ATOM      6  C5  <0> d           0.867  -0.295   0.109  0.00  0.00     0.011 A 
ATOM      7  C4  <0> d           2.147   0.219   0.013  0.00  0.00     0.027 A 
ATOM      8 Br1  <0> d           0.590  -2.164   0.034  0.00  0.00    -0.051 Br
ENDBRANCH   1   2
BRANCH   1   9
ATOM      9  C8  <0> d           4.600   1.599   1.108  0.00  0.00     0.249 C 
BRANCH   9  10
ATOM     10  N1  <0> d           4.083   2.103   2.388  0.00  0.00    -0.078 N 
ATOM     11  H9  <0> d           4.040   3.110   2.361  0.00  0.00     0.274 HD
ATOM     12  H10 <0> d           3.159   1.730   2.548  0.00  0.00     0.274 HD
ATOM     13  H16 <0> d           4.697   1.813   3.135  0.00  0.00     0.274 HD
ENDBRANCH   9  10
ENDBRANCH   1   9
BRANCH   1  14
ATOM     14  S1  <0> d           4.475   1.657  -1.623  0.00  0.00    -0.079 SA
BRANCH  14  15
ATOM     15  C9  <0> d           5.984   2.563  -1.695  0.00  0.00     0.193 A 
ATOM     16  N4  <0> d           6.949   2.440  -2.669  0.00  0.00    -0.271 N 
ATOM     17  C10 <0> d           7.950   3.298  -2.385  0.00  0.00     0.345 A 
ATOM     18  N3  <0> d           7.623   3.942  -1.246  0.00  0.00    -0.226 N 
ATOM     19  O1  <0> d           8.967   3.458  -3.036  0.00  0.00    -0.245 OA
ATOM     20  N2  <0> d           6.374   3.457  -0.833  0.00  0.00    -0.145 NA
ATOM     21  H2  <0> d           8.154   4.617  -0.795  0.00  0.00     0.194 HD
BRANCH  16  22
ATOM     22  C11 <0> d           6.896   1.535  -3.819  0.00  0.00     0.097 A 
ATOM     23  C13 <0> d           6.943   2.162  -5.214  0.00  0.00     0.028 A 
ATOM     24  C12 <0> d           8.158   1.405  -4.675  0.00  0.00     0.028 A 
ENDBRANCH  16  22
ENDBRANCH  14  15
ENDBRANCH   1  14
TORSDOF 6
