REMARK  5 active torsions:
REMARK  status: ('A' for Active; 'I' for Inactive)
REMARK    1  A    between atoms: C2_2  and  N1_3 
REMARK    2  A    between atoms: C13_15  and  C14_16 
REMARK    3  A    between atoms: N4_22  and  C18_25 
REMARK    4  A    between atoms: C23_30  and  O3_31 
REMARK    5  A    between atoms: O3_31  and  C24_32 
ROOT
ATOM      1  C14 <0> d          -0.710  -2.532   1.121  0.00  0.00     0.098 A 
ATOM      2  H3  <0> d          -1.352  -2.898   4.275  0.00  0.00     0.172 HD
ATOM      3  C15 <0> d          -1.370  -2.382   2.305  0.00  0.00     0.196 A 
ATOM      4  N3  <0> d          -0.886  -3.002   3.430  0.00  0.00    -0.285 N 
ATOM      5  C16 <0> d           0.230  -3.751   3.369  0.00  0.00     0.336 A 
ATOM      6  O1  <0> d           0.643  -4.292   4.377  0.00  0.00    -0.246 OA
ATOM      7  N4  <0> d           0.894  -3.911   2.211  0.00  0.00    -0.227 N 
ATOM      8  C17 <0> d           0.450  -3.325   1.081  0.00  0.00     0.269 A 
ATOM      9  O2  <0> d           1.054  -3.477   0.033  0.00  0.00    -0.267 OA
ATOM     10  O4  <0> d          -2.489  -1.631   2.370  0.00  0.00    -0.171 OA
ENDROOT
BRANCH   1  11
ATOM     11  C13 <0> d          -1.222  -1.863  -0.128  0.00  0.00     0.257 C 
ATOM     12  N1  <0> d          -1.175  -0.401   0.038  0.00  0.00    -0.060 N 
ATOM     13  C3  <0> d          -1.837   0.033   1.270  0.00  0.00     0.240 C 
ATOM     14  H27 <0> d          -1.633   0.033  -0.749  0.00  0.00     0.280 HD
ATOM     15  C4  <0> d          -3.348  -0.256   1.197  0.00  0.00     0.065 C 
ATOM     16  C5  <0> d          -3.477  -1.704   0.792  0.00  0.00    -0.041 C 
ATOM     17  C12 <0> d          -2.675  -2.272  -0.374  0.00  0.00     0.148 C 
ATOM     18  C6  <0> d          -4.187  -2.710   1.280  0.00  0.00    -0.005 A 
ATOM     19  N2  <0> d          -2.879  -3.718  -0.321  0.00  0.00    -0.378 N 
ATOM     20  C11 <0> d          -3.774  -3.970   0.590  0.00  0.00     0.039 A 
ATOM     21  H26 <0> d          -2.426  -4.377  -0.871  0.00  0.00     0.160 HD
ATOM     22  C10 <0> d          -4.374  -5.204   0.974  0.00  0.00     0.030 A 
ATOM     23  C9  <0> d          -5.319  -5.163   1.947  0.00  0.00     0.002 A 
ATOM     24  C8  <0> d          -5.738  -3.995   2.593  0.00  0.00     0.001 A 
ATOM     25  C7  <0> d          -5.230  -2.765   2.317  0.00  0.00     0.014 A 
BRANCH  12  26
ATOM     26  C2  <0> d           0.229   0.031   0.072  0.00  0.00     0.231 C 
ATOM     27  C1  <0> d           0.291   1.559   0.119  0.00  0.00     0.034 C 
ENDBRANCH  12  26
ENDBRANCH   1  11
BRANCH   7  28
ATOM     28  C18 <0> d           2.055  -4.699   2.176  0.00  0.00     0.080 A 
ATOM     29  C23 <0> d           3.298  -4.121   2.422  0.00  0.00     0.096 A 
ATOM     30  C22 <0> d           4.440  -4.905   2.393  0.00  0.00     0.039 A 
ATOM     31  C21 <0> d           4.346  -6.254   2.109  0.00  0.00     0.003 A 
ATOM     32  C20 <0> d           3.112  -6.827   1.859  0.00  0.00     0.002 A 
ATOM     33  C19 <0> d           1.968  -6.053   1.892  0.00  0.00     0.033 A 
BRANCH  29  34
ATOM     34  O3  <0> d           3.390  -2.792   2.695  0.00  0.00    -0.349 OA
BRANCH  34  35
ATOM     35  C24 <0> d           4.704  -2.245   2.823  0.00  0.00     0.171 C 
ATOM     36  C25 <0> d           4.609  -0.732   3.027  0.00  0.00     0.034 C 
ENDBRANCH  34  35
ENDBRANCH  29  34
ENDBRANCH   7  28
TORSDOF 5
