REMARK  4 active torsions:
REMARK  status: ('A' for Active; 'I' for Inactive)
REMARK    1  A    between atoms: N1_5  and  S1_9 
REMARK    2  A    between atoms: S1_9  and  C8_12 
REMARK    3  A    between atoms: C10_14  and  N3_21 
REMARK    4  A    between atoms: C13_17  and  N2_18 
ROOT
ATOM      1  C8  <0> d           4.027  -2.668  -0.160  0.00  0.00     0.114 A 
ATOM      2  C9  <0> d           3.970  -1.318  -0.447  0.00  0.00     0.056 A 
ATOM      3  C10 <0> d           5.144  -0.594  -0.607  0.00  0.00     0.027 A 
ATOM      4  C11 <0> d           6.372  -1.230  -0.477  0.00  0.00     0.031 A 
ATOM      5  C12 <0> d           6.422  -2.580  -0.190  0.00  0.00     0.040 A 
ATOM      6  C13 <0> d           5.251  -3.297  -0.026  0.00  0.00     0.126 A 
ENDROOT
BRANCH   1   7
ATOM      7  S1  <0> d           2.538  -3.588   0.044  0.00  0.00     0.263 S 
ATOM      8  O1  <0> d           2.627  -4.230   1.308  0.00  0.00    -0.200 OA
ATOM      9  O2  <0> d           2.337  -4.309  -1.164  0.00  0.00    -0.200 OA
BRANCH   7  10
ATOM     10  N1  <0> d           1.298  -2.495   0.154  0.00  0.00    -0.302 N 
ATOM     11  C4  <0> d           0.498  -2.149  -1.028  0.00  0.00     0.136 C 
ATOM     12  C3  <0> d           0.500  -0.627  -1.197  0.00  0.00     0.025 C 
ATOM     13  C2  <0> d           0.019   0.027   0.101  0.00  0.00    -0.015 C 
ATOM     14  C1  <0> d          -0.013   1.546  -0.075  0.00  0.00     0.010 C 
ATOM     15  C6  <0> d           0.975  -0.334   1.240  0.00  0.00     0.030 C 
ATOM     16  C5  <0> d           0.978  -1.853   1.437  0.00  0.00     0.092 C 
ATOM     17  C7  <0> d          -0.401  -2.315   1.911  0.00  0.00     0.033 C 
ENDBRANCH   7  10
ENDBRANCH   1   7
BRANCH   6  18
ATOM     18  N2  <0> d           5.308  -4.743   0.287  0.00  0.00    -0.114 N 
ATOM     19  O3  <0> d           6.370  -5.268   0.525  0.00  0.00    -0.532 OA
ATOM     20  O4  <0> d           4.292  -5.398   0.304  0.00  0.00    -0.532 OA
ENDBRANCH   6  18
BRANCH   3  21
ATOM     21  N3  <0> d           5.090   0.771  -0.898  0.00  0.00    -0.399 N 
ATOM     22  H18 <0> d           4.232   1.214  -0.988  0.00  0.00     0.156 HD
ATOM     23  H19 <0> d           5.911   1.276  -1.009  0.00  0.00     0.156 HD
ENDBRANCH   3  21
TORSDOF 4
