REMARK  5 active torsions:
REMARK  status: ('A' for Active; 'I' for Inactive)
REMARK    1  A    between atoms: O1_2  and  C2_3 
REMARK    2  A    between atoms: C2_3  and  C3_4 
REMARK    3  A    between atoms: C10_12  and  C11_13 
REMARK       I    between atoms: C11_13  and  N1_15 
REMARK    4  A    between atoms: N1_15  and  C12_16 
REMARK    5  A    between atoms: C15_22  and  N2_23 
ROOT
ATOM      1  C11 <0> d          -1.098  -2.480   2.483  0.00  0.00     0.276 C 
ATOM      2  O3  <0> d          -1.206  -1.297   2.745  0.00  0.00    -0.265 OA
ATOM      3  N1  <0> d          -1.005  -3.385   3.478  0.00  0.00    -0.348 N 
ATOM      4  H12 <0> d          -0.918  -4.328   3.268  0.00  0.00     0.163 HD
ENDROOT
BRANCH   3   5
ATOM      5  C12 <0> d          -1.033  -2.944   4.874  0.00  0.00     0.130 C 
ATOM      6  C15 <0> d          -0.257  -3.946   5.716  0.00  0.00     0.225 C 
ATOM      7  C14 <0> d          -1.085  -4.598   6.841  0.00  0.00     0.175 C 
ATOM      8  S1  <0> d          -2.801  -4.364   6.203  0.00  0.00     0.148 S 
ATOM      9  C13 <0> d          -2.506  -2.776   5.309  0.00  0.00     0.167 C 
ATOM     10  O4  <0> d          -3.682  -4.133   7.294  0.00  0.00    -0.228 OA
ATOM     11  O5  <0> d          -3.098  -5.386   5.261  0.00  0.00    -0.228 OA
BRANCH   6  12
ATOM     12  N2  <0> d           0.891  -3.258   6.322  0.00  0.00    -0.064 N 
ATOM     13  C20 <0> d           1.654  -4.210   7.139  0.00  0.00     0.235 C 
ATOM     14  C19 <0> d           2.804  -3.482   7.837  0.00  0.00     0.028 C 
ATOM     15  C18 <0> d           3.724  -2.861   6.782  0.00  0.00     0.003 C 
ATOM     16  C17 <0> d           2.902  -1.927   5.889  0.00  0.00     0.028 C 
ATOM     17  C16 <0> d           1.748  -2.713   5.263  0.00  0.00     0.235 C 
ATOM     18  H27 <0> d           0.561  -2.505   6.906  0.00  0.00     0.280 HD
ENDBRANCH   6  12
ENDBRANCH   3   5
BRANCH   1  19
ATOM     19  C10 <0> d          -1.070  -2.922   1.082  0.00  0.00     0.152 A 
ATOM     20  C3  <0> d          -1.156  -2.103   0.002  0.00  0.00     0.018 A 
ATOM     21  C4  <0> d          -1.080  -2.972  -1.172  0.00  0.00     0.009 A 
ATOM     22  C9  <0> d          -0.956  -4.281  -0.671  0.00  0.00     0.087 A 
ATOM     23  C5  <0> d          -1.107  -2.750  -2.551  0.00  0.00     0.015 A 
ATOM     24  C8  <0> d          -0.862  -5.343  -1.564  0.00  0.00     0.038 A 
ATOM     25  O2  <0> d          -0.957  -4.204   0.674  0.00  0.00    -0.304 OA
ATOM     26  C7  <0> d          -0.890  -5.103  -2.920  0.00  0.00     0.003 A 
ATOM     27  C6  <0> d          -1.012  -3.809  -3.409  0.00  0.00     0.001 A 
BRANCH  20  28
ATOM     28  C2  <0> d          -1.295  -0.603   0.011  0.00  0.00     0.209 C 
BRANCH  28  29
ATOM     29  O1  <0> d           0.002  -0.004   0.002  0.00  0.00    -0.391 OA
ATOM     30  C1  <0> d          -0.017   1.425   0.010  0.00  0.00     0.201 C 
ENDBRANCH  28  29
ENDBRANCH  20  28
ENDBRANCH   1  19
TORSDOF 5
