REMARK  1 active torsions:
REMARK  status: ('A' for Active; 'I' for Inactive)
REMARK    1  A    between atoms: C9_10  and  N1_11 
REMARK       I    between atoms: N1_11  and  C10_12 
REMARK       I    between atoms: C10_12  and  N2_14 
ROOT
ATOM      1  C1  <0> d          -0.018   1.503   0.010  0.00  0.00     0.076 C 
ATOM      2  C2  <0> d           0.002  -0.004   0.002  0.00  0.00     0.050 A 
ATOM      3  C3  <0> d          -1.081  -0.806   0.003  0.00  0.00     0.044 A 
ATOM      4  C4  <0> d          -0.602  -2.129  -0.007  0.00  0.00    -0.003 A 
ATOM      5  C5  <0> d           0.745  -2.064  -0.014  0.00  0.00     0.062 A 
ATOM      6  O1  <0> d           1.104  -0.775  -0.013  0.00  0.00    -0.319 OA
ATOM      7  C6  <0> d           1.646  -3.276  -0.028  0.00  0.00     0.074 C 
ATOM      8  C7  <0> d           0.815  -4.493  -0.450  0.00  0.00    -0.040 C 
ATOM      9  C8  <0> d          -0.462  -4.558   0.393  0.00  0.00     0.039 C 
ATOM     10  C9  <0> d          -1.397  -3.409  -0.008  0.00  0.00     0.122 C 
ATOM     11  C12 <0> d           1.633  -5.768  -0.235  0.00  0.00     0.015 C 
ATOM     12  C13 <0> d           0.444  -4.369  -1.929  0.00  0.00     0.015 C 
ENDROOT
BRANCH  10  13
ATOM     13  N1  <0> d          -2.496  -3.308   0.956  0.00  0.00    -0.334 N 
ATOM     14  C10 <0> d          -3.661  -2.739   0.591  0.00  0.00     0.316 C 
ATOM     15  O2  <0> d          -3.801  -2.309  -0.538  0.00  0.00    -0.247 OA
ATOM     16  N2  <0> d          -4.673  -2.646   1.477  0.00  0.00    -0.347 N 
ATOM     17  C11 <0> d          -5.940  -2.027   1.080  0.00  0.00     0.151 C 
ATOM     18  H11 <0> d          -4.561  -2.989   2.377  0.00  0.00     0.163 HD
ATOM     19  H10 <0> d          -2.384  -3.651   1.856  0.00  0.00     0.165 HD
ENDBRANCH  10  13
TORSDOF 1
