REMARK  3 active torsions:
REMARK  status: ('A' for Active; 'I' for Inactive)
REMARK    1  A    between atoms: O1_2  and  C2_3 
REMARK    2  A    between atoms: C2_3  and  C3_5 
REMARK    3  A    between atoms: C3_5  and  N1_6 
ROOT
ATOM      1  N1  <0> d           7.141  -1.726   2.531  0.00  0.00    -0.278 N 
ATOM      2  C4  <0> d           7.333  -0.757   1.580  0.00  0.00     0.232 C 
ATOM      3  O3  <0> d           8.335  -0.099   1.394  0.00  0.00    -0.272 OA
ATOM      4  C5  <0> d           6.041  -0.683   0.819  0.00  0.00     0.097 C 
ATOM      5  C6  <0> d           6.034  -0.477  -0.703  0.00  0.00     0.018 C 
ATOM      6  C7  <0> d           5.970  -1.928  -1.319  0.00  0.00     0.017 C 
ATOM      7  C8  <0> d           4.890  -2.474  -0.280  0.00  0.00     0.030 C 
ATOM      8  C9  <0> d           5.748  -2.238   0.897  0.00  0.00     0.100 C 
ATOM      9  C10 <0> d           6.027  -2.501   2.276  0.00  0.00     0.232 C 
ATOM     10  O4  <0> d           5.426  -3.227   3.039  0.00  0.00    -0.272 OA
ATOM     11  C11 <0> d           3.834  -1.377  -0.378  0.00  0.00    -0.059 C 
ATOM     12  C12 <0> d           2.560  -1.433  -0.009  0.00  0.00     0.026 C 
ATOM     13  C13 <0> d           1.755  -0.224  -0.020  0.00  0.00     0.044 A 
ATOM     14  C14 <0> d           2.235   1.068  -0.026  0.00  0.00     0.091 A 
ATOM     15  N2  <0> d           1.292   2.049   0.001  0.00  0.00    -0.311 N 
ATOM     16  H5  <0> d           1.598   3.106   0.014  0.00  0.00     0.170 HD
ATOM     17  C15 <0> d          -0.021   1.733   0.012  0.00  0.00     0.289 A 
ATOM     18  O5  <0> d          -0.983   2.480   0.021  0.00  0.00    -0.260 OA
ATOM     19  S1  <0> d           0.002  -0.004   0.002  0.00  0.00    -0.026 SA
ATOM     20  S2  <0> d           4.000   1.322  -0.077  0.00  0.00    -0.101 SA
ATOM     21  C16 <0> d           4.532  -0.156  -0.980  0.00  0.00     0.088 C 
ENDROOT
BRANCH   1  22
ATOM     22  C3  <0> d           8.014  -1.909   3.693  0.00  0.00     0.245 C 
BRANCH  22  23
ATOM     23  C2  <0> d           7.504  -1.076   4.841  0.00  0.00     0.277 C 
ATOM     24  O2  <0> d           6.513  -0.399   4.702  0.00  0.00    -0.263 OA
BRANCH  23  25
ATOM     25  O1  <0> d           8.150  -1.086   6.017  0.00  0.00    -0.325 OA
ATOM     26  C1  <0> d           7.602  -0.260   7.078  0.00  0.00     0.213 C 
ENDBRANCH  23  25
ENDBRANCH  22  23
ENDBRANCH   1  22
TORSDOF 3
