REMARK  5 active torsions:
REMARK  status: ('A' for Active; 'I' for Inactive)
REMARK    1  A    between atoms: C5_5  and  C8_8 
REMARK       I    between atoms: C8_8  and  N1_10 
REMARK    2  A    between atoms: C9_11  and  C16_20 
REMARK    3  A    between atoms: C11_14  and  C12_15 
REMARK       I    between atoms: C16_20  and  N2_22 
REMARK    4  A    between atoms: N2_22  and  C17_23 
REMARK    5  A    between atoms: C17_23  and  C19_25 
ROOT
ATOM      1  C8  <0> d           1.378  -5.116  -0.354  0.00  0.00     0.255 C 
ATOM      2  O1  <0> d           1.083  -5.946  -1.192  0.00  0.00    -0.267 OA
ATOM      3  N1  <0> d           0.914  -5.236   0.906  0.00  0.00    -0.316 N 
ATOM      4  C9  <0> d           0.267  -6.457   1.379  0.00  0.00     0.190 C 
ATOM      5  C10 <0> d          -0.813  -6.132   2.452  0.00  0.00     0.111 C 
ATOM      6  S1  <0> d           0.085  -4.779   3.337  0.00  0.00    -0.136 SA
ATOM      7  C11 <0> d           1.035  -4.144   1.891  0.00  0.00     0.186 C 
ENDROOT
BRANCH   4   8
ATOM      8  C16 <0> d          -0.388  -7.154   0.214  0.00  0.00     0.242 C 
ATOM      9  O3  <0> d          -0.800  -6.508  -0.725  0.00  0.00    -0.271 OA
ATOM     10  N2  <0> d          -0.515  -8.496   0.217  0.00  0.00    -0.351 N 
ATOM     11  H16 <0> d          -0.185  -9.013   0.969  0.00  0.00     0.163 HD
BRANCH  10  12
ATOM     12  C17 <0> d          -1.151  -9.174  -0.915  0.00  0.00     0.113 C 
ATOM     13  C18 <0> d          -0.113  -9.421  -2.011  0.00  0.00     0.037 C 
BRANCH  12  14
ATOM     14  C19 <0> d          -1.721 -10.491  -0.456  0.00  0.00    -0.036 A 
ATOM     15  C24 <0> d          -2.949 -10.916  -0.928  0.00  0.00     0.009 A 
ATOM     16  C23 <0> d          -3.469 -12.126  -0.511  0.00  0.00     0.001 A 
ATOM     17  C22 <0> d          -2.766 -12.908   0.387  0.00  0.00     0.000 A 
ATOM     18  C21 <0> d          -1.540 -12.481   0.863  0.00  0.00     0.001 A 
ATOM     19  C20 <0> d          -1.018 -11.273   0.442  0.00  0.00     0.009 A 
ENDBRANCH  12  14
ENDBRANCH  10  12
ENDBRANCH   4   8
BRANCH   1  20
ATOM     20  C5  <0> d           2.245  -3.975  -0.716  0.00  0.00     0.032 A 
ATOM     21  C4  <0> d           2.978  -4.001  -1.904  0.00  0.00     0.017 A 
ATOM     22  C3  <0> d           3.785  -2.933  -2.237  0.00  0.00     0.007 A 
ATOM     23  C2  <0> d           3.869  -1.837  -1.396  0.00  0.00    -0.062 A 
ATOM     24  C1  <0> d           4.752  -0.674  -1.766  0.00  0.00     0.048 C 
ATOM     25  C7  <0> d           3.149  -1.807  -0.215  0.00  0.00     0.007 A 
ATOM     26  C6  <0> d           2.334  -2.866   0.127  0.00  0.00     0.017 A 
ENDBRANCH   1  20
BRANCH   7  27
ATOM     27  C12 <0> d           2.479  -3.916   2.257  0.00  0.00    -0.001 A 
ATOM     28  C15 <0> d           3.462  -4.833   2.251  0.00  0.00     0.151 A 
ATOM     29  O2  <0> d           4.602  -4.237   2.637  0.00  0.00    -0.334 OA
ATOM     30  C14 <0> d           4.362  -2.942   2.902  0.00  0.00     0.142 A 
ATOM     31  C13 <0> d           3.058  -2.697   2.681  0.00  0.00     0.036 A 
ENDBRANCH   7  27
TORSDOF 5
