REMARK  7 active torsions:
REMARK  status: ('A' for Active; 'I' for Inactive)
REMARK    1  A    between atoms: O1_2  and  C2_3 
REMARK    2  A    between atoms: C3_4  and  C8_11 
REMARK    3  A    between atoms: C6_7  and  O2_10 
REMARK    4  A    between atoms: C8_11  and  C9_12 
REMARK    5  A    between atoms: C8_11  and  N1_15 
REMARK    6  A    between atoms: C9_12  and  C10_13 
REMARK    7  A    between atoms: N1_15  and  C11_16 
ROOT
ATOM      1  C2  <0> d          -0.356   0.776   0.578  0.00  0.00     0.095 A 
ATOM      2  C3  <0> d          -1.365   0.448   1.472  0.00  0.00    -0.000 A 
ATOM      3  C4  <0> d          -2.585   1.092   1.405  0.00  0.00     0.015 A 
ATOM      4  C5  <0> d          -2.804   2.065   0.448  0.00  0.00     0.038 A 
ATOM      5  C6  <0> d          -1.799   2.397  -0.448  0.00  0.00     0.085 A 
ATOM      6  C7  <0> d          -0.571   1.756  -0.380  0.00  0.00     0.073 A 
ATOM      7  I1  <0> d           0.953   2.260  -1.726  0.00  0.00    -0.039 I 
ENDROOT
BRANCH   2   8
ATOM      8  C8  <0> d          -1.130  -0.613   2.516  0.00  0.00     0.126 C 
BRANCH   8   9
ATOM      9  C9  <0> d          -1.234  -1.996   1.871  0.00  0.00     0.099 C 
BRANCH   9  10
ATOM     10  C10 <0> d          -0.879  -3.052   2.886  0.00  0.00     0.233 C 
ATOM     11  O3  <0> d          -1.651  -3.950   3.119  0.00  0.00    -0.307 OA
ENDBRANCH   9  10
ENDBRANCH   8   9
BRANCH   8  12
ATOM     12  N1  <0> d          -2.137  -0.490   3.573  0.00  0.00    -0.359 N 
ATOM     13  H11 <0> d          -2.952  -1.015   3.530  0.00  0.00     0.162 HD
BRANCH  12  14
ATOM     14  C11 <0> d          -1.933   0.353   4.604  0.00  0.00     0.349 C 
ATOM     15  O4  <0> d          -0.914   1.010   4.658  0.00  0.00    -0.284 OA
ENDBRANCH  12  14
ENDBRANCH   8  12
ENDBRANCH   2   8
BRANCH   1  16
ATOM     16  O1  <0> d           0.844   0.141   0.644  0.00  0.00    -0.354 OA
ATOM     17  C1  <0> d           1.841   0.724   1.486  0.00  0.00     0.210 C 
ENDBRANCH   1  16
BRANCH   5  18
ATOM     18  O2  <0> d          -2.015   3.354  -1.389  0.00  0.00    -0.359 OA
ATOM     19  H7  <0> d          -1.782   4.247  -1.102  0.00  0.00     0.217 HD
ENDBRANCH   5  18
TORSDOF 7
