REMARK  4 active torsions:
REMARK  status: ('A' for Active; 'I' for Inactive)
REMARK    1  A    between atoms: C3_4  and  C5_7 
REMARK    2  A    between atoms: C5_7  and  N1_8 
REMARK    3  A    between atoms: N1_8  and  C6_9 
REMARK    4  A    between atoms: C9_15  and  O5_16 
ROOT
ATOM      1  C6  <0> d           4.980  -0.586  -3.538  0.00  0.00     0.263 C 
ATOM      2  C7  <0> d           5.421  -2.050  -3.316  0.00  0.00     0.178 C 
ATOM      3  S1  <0> d           7.065  -2.062  -4.156  0.00  0.00     0.149 S 
ATOM      4  O3  <0> d           6.878  -2.232  -5.554  0.00  0.00    -0.228 OA
ATOM      5  O4  <0> d           7.946  -2.927  -3.453  0.00  0.00    -0.228 OA
ATOM      6  C8  <0> d           7.521  -0.308  -3.808  0.00  0.00     0.174 C 
ATOM      7  C9  <0> d           6.135   0.368  -3.805  0.00  0.00     0.166 C 
ENDROOT
BRANCH   1   8
ATOM      8  N1  <0> d           4.261  -0.127  -2.342  0.00  0.00     0.094 N 
ATOM      9  H12 <0> d           4.345   0.872  -2.231  0.00  0.00     0.316 HD
BRANCH   8  10
ATOM     10  C5  <0> d           2.850  -0.534  -2.389  0.00  0.00     0.304 C 
BRANCH  10  11
ATOM     11  C3  <0> d           2.135  -0.039  -1.130  0.00  0.00     0.173 C 
ATOM     12  O1  <0> d           2.115   1.391  -1.122  0.00  0.00    -0.380 OA
ATOM     13  C2  <0> d           1.422   1.949  -0.001  0.00  0.00     0.194 C 
ATOM     14  C1  <0> d          -0.017   1.427   0.010  0.00  0.00     0.193 C 
ATOM     15  O2  <0> d           0.002  -0.004   0.002  0.00  0.00    -0.386 OA
ATOM     16  C4  <0> d           0.695  -0.561  -1.119  0.00  0.00     0.201 C 
ENDBRANCH  10  11
ENDBRANCH   8  10
ENDBRANCH   1   8
BRANCH   7  17
ATOM     17  O5  <0> d           6.127   1.386  -2.802  0.00  0.00    -0.392 OA
ATOM     18  H17 <0> d           6.834   2.038  -2.899  0.00  0.00     0.210 HD
ENDBRANCH   7  17
TORSDOF 4
