REMARK  4 active torsions:
REMARK  status: ('A' for Active; 'I' for Inactive)
REMARK       I    between atoms: C2_2  and  N1_4 
REMARK    1  A    between atoms: C11_13  and  C12_14 
REMARK    2  A    between atoms: C12_14  and  C13_15 
REMARK       I    between atoms: C13_15  and  N2_17 
REMARK    3  A    between atoms: N2_17  and  C14_18 
REMARK    4  A    between atoms: C19_23  and  C20_24 
REMARK       I    between atoms: C20_24  and  N3_26 
ROOT
ATOM      1  C13 <0> d          -0.022   4.112   0.115  0.00  0.00     0.224 C 
ATOM      2  O2  <0> d          -1.046   3.489   0.299  0.00  0.00    -0.273 OA
ATOM      3  N2  <0> d           1.153   3.461   0.005  0.00  0.00    -0.326 N 
ATOM      4  H13 <0> d           2.092   4.029  -0.075  0.00  0.00     0.169 HD
ENDROOT
BRANCH   1   5
ATOM      5  C12 <0> d          -0.063   5.615   0.008  0.00  0.00     0.134 C 
BRANCH   5   6
ATOM      6  C11 <0> d          -1.507   6.097   0.166  0.00  0.00     0.134 C 
ATOM      7  N1  <0> d          -2.313   5.611  -0.959  0.00  0.00    -0.319 N 
ATOM      8  C2  <0> d          -3.158   4.575  -0.788  0.00  0.00     0.220 C 
ATOM      9  C3  <0> d          -2.201   6.222  -2.202  0.00  0.00     0.095 C 
ATOM     10  C1  <0> d          -3.985   4.078  -1.945  0.00  0.00     0.117 C 
ATOM     11  O1  <0> d          -3.254   4.043   0.298  0.00  0.00    -0.273 OA
ATOM     12  C4  <0> d          -1.934   7.531  -2.271  0.00  0.00     0.029 C 
ATOM     13  C5  <0> d          -1.736   8.294  -1.024  0.00  0.00    -0.026 A 
ATOM     14  C10 <0> d          -1.536   7.605   0.178  0.00  0.00    -0.024 A 
ATOM     15  C6  <0> d          -1.721   9.688  -1.032  0.00  0.00     0.012 A 
ATOM     16  C9  <0> d          -1.367   8.304   1.351  0.00  0.00     0.010 A 
ATOM     17  C8  <0> d          -1.373   9.688   1.339  0.00  0.00     0.001 A 
ATOM     18  C7  <0> d          -1.544  10.377   0.151  0.00  0.00     0.001 A 
ENDBRANCH   5   6
ENDBRANCH   1   5
BRANCH   3  19
ATOM     19  C14 <0> d           1.179   2.068  -0.006  0.00  0.00     0.050 A 
ATOM     20  C19 <0> d           2.244   1.378   0.591  0.00  0.00     0.058 A 
ATOM     21  C18 <0> d           2.259  -0.018   0.572  0.00  0.00     0.019 A 
ATOM     22  C17 <0> d           1.230  -0.708  -0.031  0.00  0.00     0.001 A 
ATOM     23  C16 <0> d           0.179  -0.024  -0.620  0.00  0.00     0.002 A 
ATOM     24  C15 <0> d           0.151   1.356  -0.609  0.00  0.00     0.030 A 
BRANCH  20  25
ATOM     25  C20 <0> d           3.342   2.123   1.236  0.00  0.00     0.253 C 
ATOM     26  O3  <0> d           3.373   3.337   1.172  0.00  0.00    -0.268 OA
ATOM     27  N3  <0> d           4.311   1.458   1.896  0.00  0.00    -0.361 N 
ATOM     28  C21 <0> d           5.402   2.198   2.536  0.00  0.00     0.149 C 
ATOM     29  H18 <0> d           4.284   0.360   1.954  0.00  0.00     0.162 HD
ENDBRANCH  20  25
ENDBRANCH   3  19
TORSDOF 4
