REMARK  3 active torsions:
REMARK  status: ('A' for Active; 'I' for Inactive)
REMARK    1  A    between atoms: C2_2  and  C3_3 
REMARK    2  A    between atoms: C2_2  and  N2_10 
REMARK    3  A    between atoms: N2_10  and  C9_11 
ROOT
ATOM      1  N2  <0> d          -1.370  -0.513   0.133  0.00  0.00    -0.062 N 
ATOM      2  H18 <0> d          -1.515  -1.474   0.403  0.00  0.00     0.278 HD
ATOM      3  H30 <0> d          -1.696   0.096   0.869  0.00  0.00     0.278 HD
ENDROOT
BRANCH   1   4
ATOM      4  C2  <0> d           0.062  -0.280  -0.097  0.00  0.00     0.186 C 
ATOM      5  C1  <0> d           0.305   1.212  -0.331  0.00  0.00     0.040 C 
BRANCH   4   6
ATOM      6  C3  <0> d           0.857  -0.740   1.127  0.00  0.00     0.019 C 
ATOM      7  C7  <0> d           2.350  -0.498   0.888  0.00  0.00     0.034 C 
ATOM      8  C6  <0> d           3.145  -1.032   2.082  0.00  0.00     0.234 C 
ATOM      9  N1  <0> d           2.900  -2.471   2.233  0.00  0.00    -0.075 N 
ATOM     10  C5  <0> d           1.482  -2.706   2.533  0.00  0.00     0.234 C 
ATOM     11  C8  <0> d           3.724  -2.995   3.330  0.00  0.00     0.269 C 
ATOM     12  H29 <0> d           3.144  -2.945   1.376  0.00  0.00     0.279 HD
ATOM     13  C4  <0> d           0.623  -2.236   1.357  0.00  0.00     0.034 C 
ENDBRANCH   4   6
ENDBRANCH   1   4
BRANCH   1  14
ATOM     14  C9  <0> d          -2.116  -0.233  -1.101  0.00  0.00     0.222 C 
ATOM     15  C14 <0> d          -2.052   1.242  -1.410  0.00  0.00     0.016 A 
ATOM     16  C13 <0> d          -1.824   1.751  -2.648  0.00  0.00     0.040 A 
ATOM     17  C15 <0> d          -2.205   2.309  -0.527  0.00  0.00     0.150 A 
ATOM     18  C12 <0> d          -1.609   0.910  -3.882  0.00  0.00     0.059 C 
ATOM     19  N4  <0> d          -1.831   3.090  -2.550  0.00  0.00    -0.278 N 
ATOM     20  C11 <0> d          -2.096  -0.514  -3.588  0.00  0.00     0.008 C 
ATOM     21  C10 <0> d          -1.487  -1.001  -2.270  0.00  0.00     0.038 C 
ATOM     22  N3  <0> d          -2.074   3.421  -1.207  0.00  0.00    -0.184 NA
ATOM     23  C16 <0> d          -1.622   4.037  -3.648  0.00  0.00     0.179 C 
ENDBRANCH   1  14
TORSDOF 3
