REMARK  2 active torsions:
REMARK  status: ('A' for Active; 'I' for Inactive)
REMARK    1  A    between atoms: C3_3  and  C6_7 
REMARK       I    between atoms: C6_7  and  N1_9 
REMARK    2  A    between atoms: N1_9  and  C7_10 
ROOT
ATOM      1  C7  <0> d           5.792   1.941   2.090  0.00  0.00     0.173 A 
ATOM      2  N2  <0> d           6.384   2.709   1.201  0.00  0.00    -0.228 NA
ATOM      3  C8  <0> d           7.670   3.022   1.293  0.00  0.00     0.053 A 
ATOM      4  C9  <0> d           8.316   2.490   2.365  0.00  0.00     0.036 A 
ATOM      5  S1  <0> d           7.031   1.584   3.176  0.00  0.00    -0.053 SA
ATOM      6  C10 <0> d           9.752   2.663   2.721  0.00  0.00     0.280 C 
ATOM      7  N3  <0> d          10.459   3.195   1.540  0.00  0.00    -0.070 N 
ATOM      8  C11 <0> d           9.730   4.356   1.012  0.00  0.00     0.238 C 
ATOM      9  C12 <0> d           8.439   3.906   0.320  0.00  0.00     0.088 C 
ATOM     10  H13 <0> d          11.392   3.476   1.805  0.00  0.00     0.277 HD
ATOM     11  H18 <0> d          10.513   2.481   0.830  0.00  0.00     0.277 HD
ENDROOT
BRANCH   1  12
ATOM     12  N1  <0> d           4.465   1.528   2.128  0.00  0.00    -0.305 N 
ATOM     13  C6  <0> d           3.610   1.918   1.162  0.00  0.00     0.229 C 
ATOM     14  O2  <0> d           3.999   2.629   0.260  0.00  0.00    -0.273 OA
ATOM     15  H10 <0> d           4.154   0.960   2.850  0.00  0.00     0.171 HD
BRANCH  13  16
ATOM     16  C3  <0> d           2.171   1.471   1.203  0.00  0.00     0.102 C 
ATOM     17  C2  <0> d           1.421   2.049  -0.001  0.00  0.00     0.018 C 
ATOM     18  C1  <0> d          -0.019   1.527   0.010  0.00  0.00     0.027 C 
ATOM     19  C5  <0> d           0.002  -0.004   0.002  0.00  0.00     0.167 C 
ATOM     20  O1  <0> d           0.741  -0.475   1.131  0.00  0.00    -0.390 OA
ATOM     21  C4  <0> d           2.108  -0.057   1.149  0.00  0.00     0.181 C 
ENDBRANCH  13  16
ENDBRANCH   1  12
TORSDOF 2
