REMARK  4 active torsions:
REMARK  status: ('A' for Active; 'I' for Inactive)
REMARK       I    between atoms: N1_2  and  C2_3 
REMARK    1  A    between atoms: C2_3  and  C3_5 
REMARK    2  A    between atoms: N2_7  and  C11_15 
REMARK    3  A    between atoms: C11_15  and  C12_16 
REMARK    4  A    between atoms: C15_22  and  C18_27 
ROOT
ATOM      1  C12 <0> d          -4.230   7.224  -4.700  0.00  0.00     0.121 A 
ATOM      2  N3  <0> d          -3.911   6.019  -5.239  0.00  0.00    -0.310 N 
ATOM      3  H2  <0> d          -4.202   5.208  -4.794  0.00  0.00     0.170 HD
ATOM      4  C13 <0> d          -3.200   5.930  -6.378  0.00  0.00     0.260 A 
ATOM      5  O3  <0> d          -2.921   4.840  -6.849  0.00  0.00    -0.267 OA
ATOM      6  C14 <0> d          -2.776   7.132  -7.028  0.00  0.00     0.080 A 
ATOM      7  C15 <0> d          -2.006   7.295  -8.257  0.00  0.00     0.006 A 
ATOM      8  C16 <0> d          -1.726   8.550  -8.687  0.00  0.00     0.065 A 
ATOM      9  S1  <0> d          -2.480   9.589  -7.451  0.00  0.00    -0.080 SA
ATOM     10  C17 <0> d          -3.148   8.329  -6.395  0.00  0.00     0.116 A 
ATOM     11  N4  <0> d          -3.849   8.339  -5.264  0.00  0.00    -0.226 NA
ENDROOT
BRANCH   1  12
ATOM     12  C11 <0> d          -5.028   7.276  -3.422  0.00  0.00     0.174 C 
BRANCH  12  13
ATOM     13  N2  <0> d          -5.128   8.668  -2.964  0.00  0.00    -0.271 NA
ATOM     14  C4  <0> d          -5.999   9.451  -3.847  0.00  0.00     0.138 C 
ATOM     15  C3  <0> d          -5.965  10.917  -3.395  0.00  0.00     0.234 C 
ATOM     16  O2  <0> d          -4.626  11.397  -3.559  0.00  0.00    -0.333 OA
ATOM     17  C10 <0> d          -3.627  10.582  -3.119  0.00  0.00     0.091 A 
ATOM     18  C5  <0> d          -3.861   9.244  -2.828  0.00  0.00     0.044 A 
ATOM     19  C9  <0> d          -2.354  11.112  -2.964  0.00  0.00     0.039 A 
ATOM     20  C6  <0> d          -2.810   8.445  -2.388  0.00  0.00     0.026 A 
ATOM     21  C7  <0> d          -1.546   8.979  -2.238  0.00  0.00     0.002 A 
ATOM     22  C8  <0> d          -1.317  10.312  -2.524  0.00  0.00     0.003 A 
BRANCH  15  23
ATOM     23  C2  <0> d          -6.907  11.734  -4.242  0.00  0.00     0.248 C 
ATOM     24  N1  <0> d          -8.233  11.502  -4.190  0.00  0.00    -0.363 N 
ATOM     25  C1  <0> d          -9.149  12.296  -5.013  0.00  0.00     0.149 C 
ATOM     26  H6  <0> d          -8.582  10.809  -3.607  0.00  0.00     0.162 HD
ATOM     27  O1  <0> d          -6.471  12.601  -4.969  0.00  0.00    -0.271 OA
ENDBRANCH  15  23
ENDBRANCH  12  13
ENDBRANCH   1  12
BRANCH   7  28
ATOM     28  C18 <0> d          -1.547   6.116  -9.020  0.00  0.00     0.016 A 
ATOM     29  S2  <0> d          -0.681   4.667  -8.439  0.00  0.00    -0.101 SA
ATOM     30  C21 <0> d          -0.545   3.810  -9.999  0.00  0.00     0.050 A 
ATOM     31  C20 <0> d          -1.166   4.667 -10.849  0.00  0.00     0.008 A 
ATOM     32  C19 <0> d          -1.681   5.847 -10.356  0.00  0.00     0.020 A 
ENDBRANCH   7  28
TORSDOF 4
