REMARK  5 active torsions:
REMARK  status: ('A' for Active; 'I' for Inactive)
REMARK    1  A    between atoms: C2_2  and  C3_3 
REMARK    2  A    between atoms: C2_2  and  N1_9 
REMARK       I    between atoms: N1_9  and  C7_10 
REMARK       I    between atoms: C7_10  and  N2_12 
REMARK    3  A    between atoms: N2_12  and  C8_13 
REMARK    4  A    between atoms: C12_17  and  S2_19 
REMARK    5  A    between atoms: S2_19  and  C14_22 
ROOT
ATOM      1  N1  <0> d           0.687  -0.482  -1.202  0.00  0.00    -0.334 N 
ATOM      2  C7  <0> d           2.031  -0.586  -1.215  0.00  0.00     0.321 C 
ATOM      3  O1  <0> d           2.674  -0.286  -0.228  0.00  0.00    -0.247 OA
ATOM      4  N2  <0> d           2.662  -1.022  -2.324  0.00  0.00    -0.309 N 
ATOM      5  H7  <0> d           0.174  -0.722  -1.989  0.00  0.00     0.165 HD
ATOM      6  H8  <0> d           2.147  -1.325  -3.088  0.00  0.00     0.170 HD
ENDROOT
BRANCH   4   7
ATOM      7  C8  <0> d           4.060  -1.037  -2.373  0.00  0.00     0.037 A 
ATOM      8  C13 <0> d           4.718  -0.764  -3.564  0.00  0.00     0.053 A 
ATOM      9  C12 <0> d           6.099  -0.774  -3.608  0.00  0.00     0.067 A 
ATOM     10  C11 <0> d           6.825  -1.069  -2.469  0.00  0.00     0.024 A 
ATOM     11  C10 <0> d           6.173  -1.347  -1.282  0.00  0.00     0.004 A 
ATOM     12  C9  <0> d           4.793  -1.332  -1.230  0.00  0.00     0.029 A 
BRANCH   9  13
ATOM     13  S2  <0> d           6.934  -0.419  -5.118  0.00  0.00     0.236 S 
ATOM     14  O2  <0> d           6.031   0.399  -5.849  0.00  0.00    -0.217 OA
ATOM     15  O3  <0> d           8.204   0.079  -4.721  0.00  0.00    -0.217 OA
BRANCH  13  16
ATOM     16  C14 <0> d           7.122  -2.027  -5.936  0.00  0.00     0.478 C 
ATOM     17  F1  <0> d           7.871  -2.882  -5.119  0.00  0.00    -0.197 F 
ATOM     18  F2  <0> d           5.860  -2.586  -6.162  0.00  0.00    -0.197 F 
ENDBRANCH  13  16
ENDBRANCH   9  13
ENDBRANCH   4   7
BRANCH   1  19
ATOM     19  C2  <0> d           0.002  -0.009   0.003  0.00  0.00     0.122 C 
ATOM     20  C1  <0> d          -0.027   1.521   0.005  0.00  0.00     0.038 C 
BRANCH  19  21
ATOM     21  C3  <0> d          -1.409  -0.537   0.019  0.00  0.00     0.006 A 
ATOM     22  S1  <0> d          -2.562  -0.704  -1.334  0.00  0.00    -0.080 SA
ATOM     23  C6  <0> d          -3.929  -1.395  -0.416  0.00  0.00     0.075 A 
ATOM     24  C5  <0> d          -3.426  -1.444   0.843  0.00  0.00     0.032 A 
ATOM     25 Cl1  <0> d          -5.498  -1.873  -0.986  0.00  0.00    -0.076 Cl
ATOM     26  C4  <0> d          -2.134  -1.004   1.065  0.00  0.00     0.019 A 
ENDBRANCH  19  21
ENDBRANCH   1  19
TORSDOF 5
