REMARK  6 active torsions:
REMARK  status: ('A' for Active; 'I' for Inactive)
REMARK    1  A    between atoms: C5_5  and  O1_8 
REMARK    2  A    between atoms: O1_8  and  C8_9 
REMARK    3  A    between atoms: C9_10  and  C13_15 
REMARK       I    between atoms: C13_15  and  N2_17 
REMARK    4  A    between atoms: C15_19  and  C22_27 
REMARK       I    between atoms: C22_27  and  N4_29 
REMARK    5  A    between atoms: N4_29  and  C23_30 
REMARK    6  A    between atoms: C23_30  and  C24_31 
ROOT
ATOM      1  C13 <0> d           0.284  -6.854  -0.110  0.00  0.00     0.258 C 
ATOM      2  O2  <0> d           0.248  -6.280  -1.181  0.00  0.00    -0.267 OA
ATOM      3  N2  <0> d           0.311  -8.201  -0.068  0.00  0.00    -0.346 N 
ATOM      4  C14 <0> d           0.427  -9.070   1.127  0.00  0.00     0.141 C 
ATOM      5  C15 <0> d          -0.526 -10.252   0.844  0.00  0.00     0.106 C 
ATOM      6  C16 <0> d          -0.649 -10.299  -0.689  0.00  0.00    -0.007 C 
ATOM      7  C17 <0> d           0.226  -9.148  -1.206  0.00  0.00     0.136 C 
ATOM      8  C18 <0> d          -0.135 -11.634  -1.220  0.00  0.00     0.039 C 
ATOM      9  C19 <0> d          -0.321 -11.679  -2.739  0.00  0.00     0.233 C 
ATOM     10  N3  <0> d          -1.743 -11.515  -3.065  0.00  0.00    -0.075 N 
ATOM     11  C20 <0> d          -2.206 -10.191  -2.633  0.00  0.00     0.233 C 
ATOM     12  C21 <0> d          -2.100 -10.082  -1.109  0.00  0.00     0.039 C 
ATOM     13  H20 <0> d          -1.871 -11.606  -4.062  0.00  0.00     0.277 HD
ATOM     14  H33 <0> d          -2.279 -12.228  -2.593  0.00  0.00     0.277 HD
ENDROOT
BRANCH   1  15
ATOM     15  C9  <0> d           0.297  -6.077   1.144  0.00  0.00     0.085 A 
ATOM     16  C8  <0> d          -0.432  -4.883   1.252  0.00  0.00     0.185 A 
ATOM     17  N1  <0> d          -0.413  -4.186   2.376  0.00  0.00    -0.236 NA
ATOM     18  C12 <0> d           0.273  -4.585   3.429  0.00  0.00     0.119 A 
ATOM     19  C11 <0> d           1.017  -5.751   3.400  0.00  0.00     0.020 A 
ATOM     20  C10 <0> d           1.038  -6.517   2.247  0.00  0.00     0.023 A 
BRANCH  16  21
ATOM     21  O1  <0> d          -1.155  -4.438   0.197  0.00  0.00    -0.291 OA
BRANCH  21  22
ATOM     22  C5  <0> d          -1.759  -3.225   0.303  0.00  0.00     0.077 A 
ATOM     23  C4  <0> d          -0.992  -2.074   0.406  0.00  0.00     0.038 A 
ATOM     24  C3  <0> d          -1.608  -0.842   0.513  0.00  0.00     0.009 A 
ATOM     25  C2  <0> d          -2.988  -0.756   0.518  0.00  0.00    -0.062 A 
ATOM     26  C1  <0> d          -3.658   0.589   0.635  0.00  0.00     0.048 C 
ATOM     27  C7  <0> d          -3.755  -1.903   0.421  0.00  0.00     0.009 A 
ATOM     28  C6  <0> d          -3.144  -3.136   0.308  0.00  0.00     0.038 A 
ENDBRANCH  21  22
ENDBRANCH  16  21
ENDBRANCH   1  15
BRANCH   5  29
ATOM     29  C22 <0> d           0.062 -11.538   1.365  0.00  0.00     0.224 C 
ATOM     30  O3  <0> d           1.264 -11.648   1.489  0.00  0.00    -0.273 OA
ATOM     31  N4  <0> d          -0.746 -12.566   1.692  0.00  0.00    -0.357 N 
ATOM     32  H25 <0> d          -1.707 -12.477   1.592  0.00  0.00     0.162 HD
BRANCH  31  33
ATOM     33  C23 <0> d          -0.174 -13.815   2.198  0.00  0.00     0.155 C 
BRANCH  33  34
ATOM     34  C24 <0> d          -1.282 -14.795   2.487  0.00  0.00    -0.075 C 
ATOM     35  C25 <0> d          -1.624 -15.682   1.585  0.00  0.00     0.015 C 
ATOM     36  C26 <0> d          -1.998 -14.754   3.812  0.00  0.00     0.044 C 
ENDBRANCH  33  34
ENDBRANCH  31  33
ENDBRANCH   5  29
TORSDOF 6
