REMARK  10 active torsions:
REMARK  status: ('A' for Active; 'I' for Inactive)
REMARK    1  A    between atoms: C2_2  and  C3_3 
REMARK    2  A    between atoms: C3_3  and  N1_4 
REMARK    3  A    between atoms: N1_4  and  C4_5 
REMARK    4  A    between atoms: N1_4  and  C7_10 
REMARK    5  A    between atoms: C4_5  and  C5_6 
REMARK       I    between atoms: C5_6  and  N2_8 
REMARK    6  A    between atoms: C7_10  and  C8_11 
REMARK       I    between atoms: C8_11  and  N3_13 
REMARK    7  A    between atoms: N3_13  and  C9_14 
REMARK    8  A    between atoms: C9_14  and  C10_15 
REMARK    9  A    between atoms: N4_18  and  C14_20 
REMARK   10  A    between atoms: C14_20  and  C15_21 
ROOT
ATOM      1  C8  <0> d           0.887  -2.154   3.883  0.00  0.00     0.243 C 
ATOM      2  O2  <0> d          -0.090  -1.437   3.823  0.00  0.00    -0.272 OA
ATOM      3  N3  <0> d           1.355  -2.555   5.082  0.00  0.00    -0.359 N 
ATOM      4  H17 <0> d           2.137  -3.128   5.130  0.00  0.00     0.162 HD
ENDROOT
BRANCH   1   5
ATOM      5  C7  <0> d           1.577  -2.595   2.618  0.00  0.00     0.337 C 
BRANCH   5   6
ATOM      6  N1  <0> d           0.879  -2.029   1.456  0.00  0.00    -0.054 N 
ATOM      7  H28 <0> d          -0.096  -2.284   1.493  0.00  0.00     0.281 HD
BRANCH   6   8
ATOM      8  C3  <0> d           1.004  -0.565   1.476  0.00  0.00     0.235 C 
BRANCH   8   9
ATOM      9  C2  <0> d           0.161   0.034   0.349  0.00  0.00     0.023 C 
ATOM     10  C1  <0> d           0.168   1.560   0.463  0.00  0.00     0.007 C 
ENDBRANCH   8   9
ENDBRANCH   6   8
BRANCH   6  11
ATOM     11  C4  <0> d           1.477  -2.554   0.222  0.00  0.00     0.337 C 
BRANCH  11  12
ATOM     12  C5  <0> d           1.203  -4.032   0.120  0.00  0.00     0.243 C 
ATOM     13  O1  <0> d           0.474  -4.570   0.926  0.00  0.00    -0.272 OA
ATOM     14  N2  <0> d           1.767  -4.756  -0.866  0.00  0.00    -0.364 N 
ATOM     15  C6  <0> d           1.500  -6.194  -0.965  0.00  0.00     0.149 C 
ATOM     16  H11 <0> d           2.351  -4.326  -1.511  0.00  0.00     0.161 HD
ENDBRANCH  11  12
ENDBRANCH   6  11
ENDBRANCH   5   6
ENDBRANCH   1   5
BRANCH   3  17
ATOM     17  C9  <0> d           0.685  -2.126   6.311  0.00  0.00     0.129 C 
BRANCH  17  18
ATOM     18  C10 <0> d           1.411  -2.716   7.521  0.00  0.00     0.031 C 
ATOM     19  C13 <0> d           0.688  -2.332   8.836  0.00  0.00     0.241 C 
ATOM     20  N4  <0> d           1.767  -2.422   9.855  0.00  0.00    -0.062 N 
ATOM     21  C12 <0> d           2.983  -1.885   9.207  0.00  0.00     0.235 C 
ATOM     22  H29 <0> d           1.912  -3.385  10.121  0.00  0.00     0.280 HD
ATOM     23  C11 <0> d           2.807  -2.072   7.689  0.00  0.00     0.035 C 
BRANCH  20  24
ATOM     24  C14 <0> d           1.422  -1.616  11.034  0.00  0.00     0.351 C 
BRANCH  24  25
ATOM     25  C15 <0> d           2.508  -1.780  12.099  0.00  0.00     0.411 C 
ATOM     26  F1  <0> d           3.736  -1.351  11.584  0.00  0.00    -0.169 F 
ATOM     27  F2  <0> d           2.179  -1.012  13.222  0.00  0.00    -0.169 F 
ATOM     28  F3  <0> d           2.601  -3.127  12.467  0.00  0.00    -0.169 F 
ENDBRANCH  24  25
ENDBRANCH  20  24
ENDBRANCH  17  18
ENDBRANCH   3  17
TORSDOF 10
