REMARK  8 active torsions:
REMARK  status: ('A' for Active; 'I' for Inactive)
REMARK    1  A    between atoms: C5_6  and  C9_11 
REMARK    2  A    between atoms: C9_11  and  C10_12 
REMARK    3  A    between atoms: C10_12  and  N2_13 
REMARK    4  A    between atoms: C12_16  and  C14_20 
REMARK    5  A    between atoms: C13_18  and  O2_19 
REMARK    6  A    between atoms: C14_20  and  C15_21 
REMARK    7  A    between atoms: C15_21  and  C16_22 
REMARK       I    between atoms: C16_22  and  N4_24 
REMARK    8  A    between atoms: N4_24  and  C17_25 
ROOT
ATOM      1  N2  <0> d           5.000  -3.595  -1.503  0.00  0.00    -0.280 N 
ATOM      2  C11 <0> d           6.300  -3.947  -1.415  0.00  0.00     0.252 A 
ATOM      3  O1  <0> d           7.259  -3.211  -1.314  0.00  0.00    -0.271 OA
ATOM      4  C12 <0> d           6.302  -5.462  -1.470  0.00  0.00     0.205 A 
ATOM      5  N3  <0> d           4.878  -5.812  -1.594  0.00  0.00    -0.236 NA
ATOM      6  C13 <0> d           4.204  -4.707  -1.599  0.00  0.00     0.244 A 
ENDROOT
BRANCH   1   7
ATOM      7  C10 <0> d           4.508  -2.215  -1.491  0.00  0.00     0.140 C 
BRANCH   7   8
ATOM      8  C9  <0> d           4.231  -1.785  -0.049  0.00  0.00     0.057 C 
BRANCH   8   9
ATOM      9  C5  <0> d           3.724  -0.366  -0.036  0.00  0.00    -0.048 A 
ATOM     10  C4  <0> d           4.557   0.897  -0.038  0.00  0.00     0.155 A 
ATOM     11  N1  <0> d           3.600   2.009  -0.022  0.00  0.00    -0.385 N 
ATOM     12  C3  <0> d           2.385   1.516  -0.013  0.00  0.00     0.038 A 
ATOM     13  H26 <0> d           3.828   2.952  -0.020  0.00  0.00     0.160 HD
ATOM     14  C2  <0> d           1.109   2.143   0.003  0.00  0.00     0.031 A 
ATOM     15  C6  <0> d           2.433   0.036  -0.021  0.00  0.00    -0.004 A 
ATOM     16  C1  <0> d          -0.017   1.399   0.010  0.00  0.00     0.026 A 
ATOM     17  C8  <0> d           0.002  -0.004   0.002  0.00  0.00     0.035 A 
ATOM     18  C7  <0> d           1.163  -0.699  -0.013  0.00  0.00     0.037 A 
ATOM     19 Cl1  <0> d          -1.502  -0.870   0.012  0.00  0.00    -0.084 Cl
ENDBRANCH   8   9
ENDBRANCH   7   8
ENDBRANCH   1   7
BRANCH   6  20
ATOM     20  O2  <0> d           2.857  -4.655  -1.695  0.00  0.00    -0.331 OA
ATOM     21  H11 <0> d           2.433  -5.522  -1.756  0.00  0.00     0.221 HD
ENDBRANCH   6  20
BRANCH   4  22
ATOM     22  C14 <0> d           6.893  -6.045  -0.185  0.00  0.00     0.046 C 
BRANCH  22  23
ATOM     23  C15 <0> d           6.998  -7.566  -0.317  0.00  0.00     0.105 C 
BRANCH  23  24
ATOM     24  C16 <0> d           7.580  -8.141   0.949  0.00  0.00     0.217 C 
ATOM     25  O3  <0> d           7.881  -7.406   1.866  0.00  0.00    -0.274 OA
ATOM     26  N4  <0> d           7.766  -9.471   1.062  0.00  0.00    -0.356 N 
ATOM     27  H16 <0> d           7.526 -10.058   0.328  0.00  0.00     0.162 HD
BRANCH  26  28
ATOM     28  C17 <0> d           8.332 -10.029   2.292  0.00  0.00     0.084 C 
ATOM     29  C21 <0> d           7.890 -11.494   2.458  0.00  0.00     0.025 C 
ATOM     30  C20 <0> d           9.178 -12.344   2.469  0.00  0.00     0.002 C 
ATOM     31  C19 <0> d          10.282 -11.355   2.918  0.00  0.00     0.002 C 
ATOM     32  C18 <0> d           9.872 -10.040   2.208  0.00  0.00     0.025 C 
ENDBRANCH  26  28
ENDBRANCH  23  24
ENDBRANCH  22  23
ENDBRANCH   4  22
TORSDOF 8
