REMARK  4 active torsions:
REMARK  status: ('A' for Active; 'I' for Inactive)
REMARK    1  A    between atoms: C2_2  and  N5_15 
REMARK    2  A    between atoms: C2_2  and  C3_3 
REMARK    3  A    between atoms: C4_6  and  C5_9 
REMARK       I    between atoms: N5_15  and  C10_16 
REMARK       I    between atoms: C10_16  and  N6_18 
REMARK    4  A    between atoms: N6_18  and  C11_19 
ROOT
ATOM      1  C1  <0> d          -0.019   1.522   0.021  0.00  0.00     0.041 C 
ATOM      2  C2  <0> d           0.003  -0.008   0.002  0.00  0.00     0.155 C 
ENDROOT
BRANCH   2   3
ATOM      3  N5  <0> d          -1.370  -0.517   0.012  0.00  0.00    -0.332 N 
ATOM      4  C10 <0> d          -2.051  -0.641  -1.144  0.00  0.00     0.321 C 
ATOM      5  O1  <0> d          -1.526  -0.331  -2.196  0.00  0.00    -0.247 OA
ATOM      6  N6  <0> d          -3.315  -1.109  -1.135  0.00  0.00    -0.309 N 
ATOM      7  H11 <0> d          -3.711  -1.420  -0.306  0.00  0.00     0.170 HD
ATOM      8  H10 <0> d          -1.790  -0.764   0.851  0.00  0.00     0.165 HD
BRANCH   6   9
ATOM      9  C11 <0> d          -4.056  -1.148  -2.322  0.00  0.00     0.036 A 
ATOM     10  C16 <0> d          -3.425  -1.425  -3.527  0.00  0.00     0.031 A 
ATOM     11  C15 <0> d          -4.159  -1.468  -4.696  0.00  0.00     0.021 A 
ATOM     12  C14 <0> d          -5.521  -1.224  -4.669  0.00  0.00     0.011 A 
ATOM     13  C13 <0> d          -6.151  -0.941  -3.470  0.00  0.00     0.021 A 
ATOM     14 Br1  <0> d          -6.522  -1.276  -6.272  0.00  0.00    -0.051 Br
ATOM     15  C12 <0> d          -5.423  -0.903  -2.297  0.00  0.00     0.031 A 
ENDBRANCH   6   9
ENDBRANCH   2   3
BRANCH   2  16
ATOM     16  C3  <0> d           0.736  -0.515   1.218  0.00  0.00     0.170 A 
ATOM     17  N1  <0> d           1.966  -1.018   1.221  0.00  0.00    -0.210 NA
ATOM     18  C4  <0> d           2.302  -1.365   2.447  0.00  0.00     0.156 A 
ATOM     19  N2  <0> d           1.260  -1.077   3.259  0.00  0.00    -0.259 N 
ATOM     20  H2  <0> d           1.211  -1.222   4.217  0.00  0.00     0.191 HD
ATOM     21  N3  <0> d           0.263  -0.524   2.438  0.00  0.00    -0.155 NA
BRANCH  18  22
ATOM     22  C5  <0> d           3.592  -1.962   2.861  0.00  0.00     0.014 A 
ATOM     23  C9  <0> d           3.835  -2.290   4.199  0.00  0.00     0.034 A 
ATOM     24  C8  <0> d           5.048  -2.851   4.541  0.00  0.00     0.117 A 
ATOM     25  N4  <0> d           5.975  -3.068   3.627  0.00  0.00    -0.273 NA
ATOM     26  C7  <0> d           5.789  -2.768   2.357  0.00  0.00     0.117 A 
ATOM     27  C6  <0> d           4.603  -2.209   1.927  0.00  0.00     0.034 A 
ENDBRANCH  18  22
ENDBRANCH   2  16
TORSDOF 4
