REMARK  4 active torsions:
REMARK  status: ('A' for Active; 'I' for Inactive)
REMARK    1  A    between atoms: C3_3  and  C10_13 
REMARK    2  A    between atoms: C4_5  and  C5_7 
REMARK       I    between atoms: C10_13  and  N3_15 
REMARK    3  A    between atoms: N3_15  and  C11_16 
REMARK    4  A    between atoms: C15_20  and  C17_22 
ROOT
ATOM      1  C11 <0> d          -0.104  -0.750  -4.923  0.00  0.00     0.035 A 
ATOM      2  C12 <0> d          -0.114   0.600  -5.250  0.00  0.00     0.029 A 
ATOM      3  C13 <0> d          -0.216   0.987  -6.572  0.00  0.00     0.003 A 
ATOM      4  C14 <0> d          -0.308   0.033  -7.569  0.00  0.00     0.010 A 
ATOM      5  C15 <0> d          -0.300  -1.311  -7.246  0.00  0.00    -0.019 A 
ATOM      6  C16 <0> d          -0.192  -1.706  -5.926  0.00  0.00     0.039 A 
ENDROOT
BRANCH   1   7
ATOM      7  N3  <0> d          -0.001  -1.146  -3.585  0.00  0.00    -0.322 N 
ATOM      8  C10 <0> d          -0.591  -0.415  -2.619  0.00  0.00     0.265 C 
ATOM      9  O1  <0> d          -1.142   0.633  -2.899  0.00  0.00    -0.267 OA
ATOM     10  H8  <0> d           0.495  -1.946  -3.353  0.00  0.00     0.169 HD
BRANCH   8  11
ATOM     11  C3  <0> d          -0.570  -0.884  -1.229  0.00  0.00     0.099 A 
ATOM     12  C2  <0> d          -1.107  -0.301  -0.087  0.00  0.00     0.054 A 
ATOM     13  C1  <0> d          -1.847   1.011  -0.138  0.00  0.00     0.072 C 
ATOM     14  N1  <0> d          -0.929  -0.949   1.033  0.00  0.00    -0.243 NA
ATOM     15  C4  <0> d          -0.282  -2.102   1.070  0.00  0.00     0.127 A 
ATOM     16  S1  <0> d           0.152  -2.362  -0.534  0.00  0.00    -0.061 SA
BRANCH  15  17
ATOM     17  C5  <0> d          -0.003  -2.956   2.244  0.00  0.00     0.092 A 
ATOM     18  N2  <0> d          -0.429  -2.585   3.446  0.00  0.00    -0.258 NA
ATOM     19  C9  <0> d          -0.205  -3.320   4.515  0.00  0.00     0.117 A 
ATOM     20  C8  <0> d           0.497  -4.509   4.426  0.00  0.00     0.019 A 
ATOM     21  C7  <0> d           0.966  -4.932   3.190  0.00  0.00     0.004 A 
ATOM     22  C6  <0> d           0.712  -4.143   2.082  0.00  0.00     0.034 A 
ENDBRANCH  15  17
ENDBRANCH   8  11
ENDBRANCH   1   7
BRANCH   5  23
ATOM     23  C17 <0> d          -0.402  -2.348  -8.335  0.00  0.00     0.139 A 
ATOM     24  N5  <0> d          -0.501  -1.703  -9.656  0.00  0.00    -0.321 N 
ATOM     25  C19 <0> d           0.573  -2.102 -10.361  0.00  0.00     0.324 A 
ATOM     26  H14 <0> d          -1.204  -1.107  -9.959  0.00  0.00     0.165 HD
ATOM     27  N4  <0> d           1.363  -2.929  -9.665  0.00  0.00    -0.277 N 
ATOM     28  O3  <0> d           0.800  -1.752 -11.502  0.00  0.00    -0.247 OA
ATOM     29  C18 <0> d           0.879  -3.153  -8.427  0.00  0.00     0.258 A 
ATOM     30  H13 <0> d           2.182  -3.318 -10.009  0.00  0.00     0.173 HD
ATOM     31  O2  <0> d           1.367  -3.853  -7.566  0.00  0.00    -0.270 OA
ATOM     32  C20 <0> d          -1.602  -3.265  -8.093  0.00  0.00     0.054 C 
ENDBRANCH   5  23
TORSDOF 4
