REMARK  5 active torsions:
REMARK  status: ('A' for Active; 'I' for Inactive)
REMARK    1  A    between atoms: O1_2  and  C2_3 
REMARK    2  A    between atoms: C5_6  and  C8_9 
REMARK    3  A    between atoms: C8_9  and  C9_11 
REMARK    4  A    between atoms: C14_16  and  C15_17 
REMARK    5  A    between atoms: C14_16  and  N3_31 
REMARK       I    between atoms: C15_17  and  N1_19 
ROOT
ATOM      1  C9  <0> d          -3.758   1.897   0.163  0.00  0.00     0.064 C 
ATOM      2  C10 <0> d          -4.229   1.964   1.618  0.00  0.00     0.040 C 
ATOM      3  C11 <0> d          -5.588   2.665   1.678  0.00  0.00     0.236 C 
ATOM      4  C12 <0> d          -6.152   1.888  -0.547  0.00  0.00     0.236 C 
ATOM      5  C13 <0> d          -4.810   1.163  -0.673  0.00  0.00     0.040 C 
ATOM      6  N3  <0> d          -6.561   1.895   0.874  0.00  0.00    -0.063 N 
ATOM      7  H26 <0> d          -6.587   0.928   1.218  0.00  0.00     0.280 HD
ENDROOT
BRANCH   6   8
ATOM      8  C14 <0> d          -7.908   2.489   1.008  0.00  0.00     0.337 C 
BRANCH   8   9
ATOM      9  C15 <0> d          -8.912   1.560   0.376  0.00  0.00     0.250 C 
ATOM     10  O3  <0> d          -8.558   0.478  -0.043  0.00  0.00    -0.271 OA
ATOM     11  N1  <0> d         -10.204   1.932   0.275  0.00  0.00    -0.306 N 
ATOM     12  C19 <0> d         -11.158   1.084  -0.310  0.00  0.00     0.064 A 
ATOM     13  C16 <0> d         -10.659   3.236   0.780  0.00  0.00     0.235 C 
ATOM     14  C18 <0> d         -12.483   1.169   0.121  0.00  0.00     0.061 A 
ATOM     15  C20 <0> d         -10.802   0.181  -1.294  0.00  0.00     0.032 A 
ATOM     16  N2  <0> d         -12.825   2.079   1.127  0.00  0.00    -0.324 N 
ATOM     17  C23 <0> d         -13.442   0.346  -0.447  0.00  0.00     0.032 A 
ATOM     18  C17 <0> d         -11.976   3.061   1.484  0.00  0.00     0.240 C 
ATOM     19  H21 <0> d         -13.684   2.002   1.571  0.00  0.00     0.169 HD
ATOM     20  O4  <0> d         -12.275   3.812   2.388  0.00  0.00    -0.271 OA
ATOM     21  C22 <0> d         -13.081  -0.555  -1.432  0.00  0.00     0.002 A 
ATOM     22  C21 <0> d         -11.767  -0.639  -1.855  0.00  0.00     0.002 A 
ENDBRANCH   8   9
ENDBRANCH   6   8
BRANCH   1  23
ATOM     23  C8  <0> d          -2.449   1.155   0.090  0.00  0.00     0.163 C 
ATOM     24  O2  <0> d          -2.438  -0.033  -0.153  0.00  0.00    -0.292 OA
BRANCH  23  25
ATOM     25  C5  <0> d          -1.186   1.870   0.314  0.00  0.00     0.010 A 
ATOM     26  C4  <0> d           0.032   1.182   0.247  0.00  0.00     0.018 A 
ATOM     27  C3  <0> d           1.209   1.855   0.452  0.00  0.00     0.037 A 
ATOM     28  C2  <0> d           1.194   3.218   0.731  0.00  0.00     0.068 A 
ATOM     29  C7  <0> d          -0.013   3.904   0.804  0.00  0.00     0.037 A 
ATOM     30  C6  <0> d          -1.196   3.240   0.601  0.00  0.00     0.018 A 
BRANCH  28  31
ATOM     31  O1  <0> d           2.361   3.879   0.932  0.00  0.00    -0.356 OA
ATOM     32  C1  <0> d           2.274   5.277   1.214  0.00  0.00     0.210 C 
ENDBRANCH  28  31
ENDBRANCH  23  25
ENDBRANCH   1  23
TORSDOF 5
