REMARK  2 active torsions:
REMARK  status: ('A' for Active; 'I' for Inactive)
REMARK    1  A    between atoms: C5_5  and  C6_7 
REMARK       I    between atoms: C6_7  and  N1_9 
REMARK    2  A    between atoms: C8_11  and  C13_16 
REMARK       I    between atoms: C13_16  and  N2_18 
ROOT
ATOM      1  C6  <0> d           1.110  -3.908  -0.536  0.00  0.00     0.261 C 
ATOM      2  O1  <0> d           0.346  -4.847  -0.413  0.00  0.00    -0.267 OA
ATOM      3  N1  <0> d           2.439  -4.102  -0.426  0.00  0.00    -0.342 N 
ATOM      4  C7  <0> d           3.367  -2.963  -0.467  0.00  0.00     0.140 C 
ATOM      5  C8  <0> d           4.424  -3.228  -1.544  0.00  0.00     0.096 C 
ATOM      6  C9  <0> d           5.095  -4.577  -1.275  0.00  0.00     0.018 C 
ATOM      7  C10 <0> d           4.048  -5.691  -1.341  0.00  0.00     0.026 C 
ATOM      8  C11 <0> d           2.987  -5.454  -0.256  0.00  0.00     0.083 C 
ATOM      9  C12 <0> d           1.865  -6.484  -0.400  0.00  0.00     0.032 C 
ENDROOT
BRANCH   1  10
ATOM     10  C5  <0> d           0.584  -2.566  -0.804  0.00  0.00     0.073 A 
ATOM     11  C4  <0> d          -0.449  -2.184  -1.646  0.00  0.00     0.025 A 
ATOM     12  C3  <0> d          -0.716  -0.837  -1.690  0.00  0.00     0.015 A 
ATOM     13  C2  <0> d           0.025   0.007  -0.930  0.00  0.00    -0.020 A 
ATOM     14  C1  <0> d          -0.096   1.506  -0.825  0.00  0.00     0.056 C 
ATOM     15  S1  <0> d           1.112  -0.999  -0.137  0.00  0.00    -0.090 SA
ENDBRANCH   1  10
BRANCH   5  16
ATOM     16  C13 <0> d           3.765  -3.255  -2.899  0.00  0.00     0.221 C 
ATOM     17  O2  <0> d           3.828  -4.254  -3.584  0.00  0.00    -0.273 OA
ATOM     18  N2  <0> d           3.106  -2.169  -3.350  0.00  0.00    -0.370 N 
ATOM     19  H17 <0> d           3.056  -1.370  -2.802  0.00  0.00     0.159 HD
ATOM     20  H18 <0> d           2.682  -2.186  -4.222  0.00  0.00     0.159 HD
ENDBRANCH   5  16
TORSDOF 2
