REMARK  3 active torsions:
REMARK  status: ('A' for Active; 'I' for Inactive)
REMARK    1  A    between atoms: C2_2  and  C7_10 
REMARK    2  A    between atoms: C5_5  and  O1_8 
REMARK    3  A    between atoms: N1_11  and  N2_12 
REMARK       I    between atoms: N2_12  and  C8_13 
REMARK       I    between atoms: C8_13  and  N3_15 
ROOT
ATOM      1  C1  <0> d          -0.017   1.375   0.010  0.00  0.00     0.035 A 
ATOM      2  C2  <0> d           1.185   2.088   0.002  0.00  0.00    -0.014 A 
ATOM      3  C3  <0> d           2.401   1.400  -0.013  0.00  0.00     0.035 A 
ATOM      4  C4  <0> d           2.410   0.021  -0.021  0.00  0.00     0.046 A 
ATOM      5  C5  <0> d           1.213  -0.684  -0.014  0.00  0.00     0.100 A 
ATOM      6  C6  <0> d           0.002  -0.004   0.002  0.00  0.00     0.046 A 
ATOM      7 Br1  <0> d          -1.623  -0.970   0.013  0.00  0.00    -0.048 Br
ATOM      8 Br2  <0> d           4.055  -0.912  -0.042  0.00  0.00    -0.048 Br
ENDROOT
BRANCH   2   9
ATOM      9  C7  <0> d           1.170   3.562   0.009  0.00  0.00     0.150 C 
ATOM     10  N1  <0> d           2.287   4.223   0.002  0.00  0.00    -0.182 NA
BRANCH  10  11
ATOM     11  N2  <0> d           2.272   5.623   0.010  0.00  0.00    -0.229 N 
ATOM     12  C8  <0> d           3.432   6.309   0.002  0.00  0.00     0.334 C 
ATOM     13  O2  <0> d           3.420   7.525   0.009  0.00  0.00    -0.246 OA
ATOM     14  N3  <0> d           4.606   5.647  -0.012  0.00  0.00    -0.351 N 
ATOM     15  H6  <0> d           4.616   4.678  -0.017  0.00  0.00     0.160 HD
ATOM     16  H7  <0> d           5.441   6.141  -0.017  0.00  0.00     0.160 HD
ATOM     17  H5  <0> d           1.427   6.100   0.020  0.00  0.00     0.194 HD
ENDBRANCH  10  11
ENDBRANCH   2   9
BRANCH   5  18
ATOM     18  O1  <0> d           1.227  -2.043  -0.022  0.00  0.00    -0.358 OA
ATOM     19  H3  <0> d           1.240  -2.442   0.859  0.00  0.00     0.217 HD
ENDBRANCH   5  18
TORSDOF 3
