REMARK  4 active torsions:
REMARK  status: ('A' for Active; 'I' for Inactive)
REMARK    1  A    between atoms: C2_2  and  N3_31 
REMARK    2  A    between atoms: C10_11  and  C11_13 
REMARK    3  A    between atoms: C13_15  and  O2_20 
REMARK    4  A    between atoms: C16_18  and  O1_19 
ROOT
ATOM      1  C3  <0> d           0.272   0.224   2.397  0.00  0.00     0.239 C 
ATOM      2  C4  <0> d           1.136  -0.201   3.587  0.00  0.00     0.090 C 
ATOM      3  C5  <0> d           1.016  -1.711   3.785  0.00  0.00     0.162 C 
ATOM      4  C6  <0> d           1.423  -2.434   2.502  0.00  0.00     0.090 C 
ATOM      5  C7  <0> d           0.551  -1.942   1.345  0.00  0.00     0.239 C 
ATOM      6  N1  <0> d          -0.361  -2.062   4.142  0.00  0.00    -0.260 N 
ATOM      7  C8  <0> d          -0.720  -3.457   4.490  0.00  0.00     0.149 C 
ATOM      8  C9  <0> d          -2.080  -3.294   5.181  0.00  0.00     0.094 C 
ATOM      9  C10 <0> d          -2.468  -1.862   4.873  0.00  0.00     0.070 C 
ATOM     10  N2  <0> d          -1.481  -1.264   4.289  0.00  0.00    -0.177 NA
ATOM     11  C17 <0> d           0.343  -3.944   5.440  0.00  0.00     0.002 A 
ATOM     12  C18 <0> d           0.100  -5.072   6.202  0.00  0.00     0.036 A 
ATOM     13  C19 <0> d           1.064  -5.550   7.069  0.00  0.00     0.034 A 
ATOM     14  C20 <0> d           2.279  -4.895   7.172  0.00  0.00     0.026 A 
ATOM     15  C21 <0> d           2.522  -3.767   6.418  0.00  0.00     0.039 A 
ATOM     16  C22 <0> d           1.551  -3.273   5.547  0.00  0.00     0.080 A 
ATOM     17  O3  <0> d           1.844  -2.132   4.870  0.00  0.00    -0.318 OA
ATOM     18 Cl1  <0> d           0.753  -6.965   8.025  0.00  0.00    -0.084 Cl
ATOM     19  N3  <0> d           0.742  -0.485   1.187  0.00  0.00    -0.071 N 
ATOM     20  H25 <0> d           1.742  -0.292   1.056  0.00  0.00     0.279 HD
ENDROOT
BRANCH   9  21
ATOM     21  C11 <0> d          -3.768  -1.245   5.192  0.00  0.00     0.026 A 
ATOM     22  C16 <0> d          -4.011   0.095   4.862  0.00  0.00     0.078 A 
ATOM     23  C15 <0> d          -5.237   0.666   5.160  0.00  0.00     0.040 A 
ATOM     24  C14 <0> d          -6.216  -0.079   5.790  0.00  0.00     0.039 A 
ATOM     25  C13 <0> d          -5.980  -1.406   6.124  0.00  0.00     0.066 A 
ATOM     26  C12 <0> d          -4.762  -1.992   5.828  0.00  0.00     0.053 A 
BRANCH  22  27
ATOM     27  O1  <0> d          -3.048   0.831   4.248  0.00  0.00    -0.360 OA
ATOM     28  H20 <0> d          -3.080   0.794   3.282  0.00  0.00     0.217 HD
ENDBRANCH  22  27
BRANCH  25  29
ATOM     29  O2  <0> d          -6.949  -2.132   6.744  0.00  0.00    -0.361 OA
ATOM     30  H21 <0> d          -6.916  -2.088   7.709  0.00  0.00     0.217 HD
ENDBRANCH  25  29
ENDBRANCH   9  21
BRANCH  19  31
ATOM     31  C2  <0> d           0.002  -0.004   0.002  0.00  0.00     0.230 C 
ATOM     32  C1  <0> d          -0.019   1.526   0.010  0.00  0.00     0.034 C 
ENDBRANCH  19  31
TORSDOF 4
