REMARK  4 active torsions:
REMARK  status: ('A' for Active; 'I' for Inactive)
REMARK    1  A    between atoms: N1_2  and  C2_3 
REMARK    2  A    between atoms: C2_3  and  C3_4 
REMARK    3  A    between atoms: N2_9  and  C8_10 
REMARK    4  A    between atoms: C8_10  and  C9_11 
ROOT
ATOM      1  C3  <0> d          -1.447  -2.131   0.112  0.00  0.00     0.214 C 
ATOM      2  C4  <0> d          -2.908  -2.551  -0.065  0.00  0.00     0.035 C 
ATOM      3  C5  <0> d          -2.988  -4.079  -0.143  0.00  0.00     0.004 C 
ATOM      4  C6  <0> d          -2.101  -4.569  -1.291  0.00  0.00     0.028 C 
ATOM      5  C7  <0> d          -0.670  -4.074  -1.069  0.00  0.00     0.235 C 
ATOM      6  N2  <0> d          -0.657  -2.607  -1.030  0.00  0.00    -0.061 N 
ATOM      7  H22 <0> d          -1.052  -2.245  -1.885  0.00  0.00     0.280 HD
ENDROOT
BRANCH   6   8
ATOM      8  C8  <0> d           0.728  -2.135  -0.896  0.00  0.00     0.274 C 
BRANCH   8   9
ATOM      9  C9  <0> d           1.509  -2.511  -2.129  0.00  0.00    -0.028 A 
ATOM     10  C14 <0> d           1.561  -1.643  -3.203  0.00  0.00     0.035 A 
ATOM     11  C13 <0> d           2.282  -1.982  -4.335  0.00  0.00     0.070 A 
ATOM     12  C12 <0> d           2.943  -3.199  -4.398  0.00  0.00     0.126 A 
ATOM     13 Cl1  <0> d           2.351  -0.886  -5.680  0.00  0.00    -0.081 Cl
ATOM     14  C11 <0> d           2.885  -4.075  -3.317  0.00  0.00     0.107 A 
ATOM     15  O1  <0> d           3.703  -3.766  -5.379  0.00  0.00    -0.321 OA
ATOM     16  C10 <0> d           2.167  -3.726  -2.184  0.00  0.00     0.048 A 
ATOM     17  O2  <0> d           3.608  -5.191  -3.621  0.00  0.00    -0.323 OA
ATOM     18  C15 <0> d           4.445  -4.817  -4.732  0.00  0.00     0.352 C 
ENDBRANCH   8   9
ENDBRANCH   6   8
BRANCH   1  19
ATOM     19  C2  <0> d          -1.362  -0.606   0.190  0.00  0.00     0.264 C 
BRANCH  19  20
ATOM     20  N1  <0> d          -1.755  -0.026  -1.101  0.00  0.00    -0.077 N 
ATOM     21  C1  <0> d          -1.783   1.439  -0.992  0.00  0.00     0.267 C 
ATOM     22  H5  <0> d          -2.671  -0.362  -1.355  0.00  0.00     0.276 HD
ATOM     23  H23 <0> d          -1.089  -0.298  -1.809  0.00  0.00     0.276 HD
ENDBRANCH  19  20
ENDBRANCH   1  19
TORSDOF 4
