REMARK  3 active torsions:
REMARK  status: ('A' for Active; 'I' for Inactive)
REMARK    1  A    between atoms: O1_2  and  C2_3 
REMARK    2  A    between atoms: C2_3  and  C3_5 
REMARK    3  A    between atoms: C4_6  and  N1_10 
REMARK       I    between atoms: N1_10  and  C7_11 
REMARK       I    between atoms: C7_11  and  N2_13 
ROOT
ATOM      1  N1  <0> d          -2.921  -1.675   1.744  0.00  0.00    -0.333 N 
ATOM      2  C7  <0> d          -3.534  -2.081   2.874  0.00  0.00     0.319 C 
ATOM      3  O3  <0> d          -3.662  -3.268   3.104  0.00  0.00    -0.247 OA
ATOM      4  N2  <0> d          -4.005  -1.171   3.749  0.00  0.00    -0.328 N 
ATOM      5  C8  <0> d          -4.772  -1.589   4.932  0.00  0.00     0.134 C 
ATOM      6  C9  <0> d          -3.986  -1.218   6.196  0.00  0.00     0.079 C 
ATOM      7  C10 <0> d          -3.464   0.187   6.047  0.00  0.00     0.036 A 
ATOM      8  N3  <0> d          -3.015   1.026   7.022  0.00  0.00    -0.354 N 
ATOM      9  C11 <0> d          -2.644   2.177   6.414  0.00  0.00     0.181 A 
ATOM     10  N4  <0> d          -2.854   2.061   5.129  0.00  0.00    -0.353 N 
ATOM     11  C12 <0> d          -3.358   0.851   4.876  0.00  0.00     0.051 A 
ATOM     12  H3  <0> d          -2.969   0.835   7.972  0.00  0.00     0.166 HD
ATOM     13  C13 <0> d          -3.759   0.269   3.546  0.00  0.00     0.186 C 
ATOM     14  H9  <0> d          -2.755  -0.732   1.594  0.00  0.00     0.165 HD
ATOM     15  H17 <0> d          -2.672   2.744   4.465  0.00  0.00     0.166 HD
ENDROOT
BRANCH   1  16
ATOM     16  C4  <0> d          -2.506  -2.660   0.742  0.00  0.00     0.133 C 
ATOM     17  C3  <0> d          -1.254  -2.132  -0.006  0.00  0.00     0.177 C 
ATOM     18  S1  <0> d          -1.625  -2.791  -1.686  0.00  0.00    -0.124 SA
ATOM     19  C6  <0> d          -3.389  -3.001  -1.504  0.00  0.00     0.044 C 
ATOM     20  C5  <0> d          -3.634  -2.894  -0.212  0.00  0.00     0.007 C 
BRANCH  17  21
ATOM     21  C2  <0> d          -1.203  -0.625  -0.003  0.00  0.00     0.275 C 
ATOM     22  O2  <0> d          -0.556  -0.045   0.836  0.00  0.00    -0.264 OA
BRANCH  21  23
ATOM     23  O1  <0> d          -1.877   0.071  -0.932  0.00  0.00    -0.326 OA
ATOM     24  C1  <0> d          -1.784   1.496  -0.868  0.00  0.00     0.213 C 
ENDBRANCH  21  23
ENDBRANCH  17  21
ENDBRANCH   1  16
TORSDOF 3
