REMARK  6 active torsions:
REMARK  status: ('A' for Active; 'I' for Inactive)
REMARK    1  A    between atoms: C4_5  and  C5_7 
REMARK    2  A    between atoms: C5_7  and  C6_8 
REMARK    3  A    between atoms: C7_10  and  C8_13 
REMARK    4  A    between atoms: C11_16  and  C14_19 
REMARK    5  A    between atoms: C14_19  and  C15_20 
REMARK    6  A    between atoms: C15_20  and  N4_21 
ROOT
ATOM      1  C6  <0> d          -1.359  -3.290   2.682  0.00  0.00     0.162 A 
ATOM      2  N2  <0> d          -2.096  -2.613   3.565  0.00  0.00    -0.204 NA
ATOM      3  C7  <0> d          -3.282  -3.169   3.680  0.00  0.00     0.206 A 
ATOM      4  O1  <0> d          -3.325  -4.231   2.857  0.00  0.00    -0.191 OA
ATOM      5  N3  <0> d          -2.060  -4.285   2.214  0.00  0.00    -0.110 NA
ENDROOT
BRANCH   3   6
ATOM      6  C8  <0> d          -4.375  -2.707   4.561  0.00  0.00     0.019 A 
ATOM      7  C13 <0> d          -5.591  -3.392   4.587  0.00  0.00     0.016 A 
ATOM      8  C12 <0> d          -6.606  -2.960   5.415  0.00  0.00     0.008 A 
ATOM      9  C11 <0> d          -6.425  -1.842   6.210  0.00  0.00    -0.057 A 
ATOM     10  C10 <0> d          -5.224  -1.154   6.185  0.00  0.00     0.008 A 
ATOM     11  C9  <0> d          -4.199  -1.580   5.365  0.00  0.00     0.016 A 
BRANCH   9  12
ATOM     12  C14 <0> d          -7.540  -1.371   7.108  0.00  0.00     0.065 C 
BRANCH  12  13
ATOM     13  C15 <0> d          -8.419  -0.374   6.349  0.00  0.00     0.234 C 
BRANCH  13  14
ATOM     14  N4  <0> d          -9.506   0.084   7.225  0.00  0.00    -0.079 N 
ATOM     15  H15 <0> d         -10.086   0.741   6.724  0.00  0.00     0.274 HD
ATOM     16  H16 <0> d         -10.064  -0.706   7.511  0.00  0.00     0.274 HD
ATOM     17  H17 <0> d          -9.115   0.533   8.040  0.00  0.00     0.274 HD
ENDBRANCH  13  14
ENDBRANCH  12  13
ENDBRANCH   9  12
ENDBRANCH   3   6
BRANCH   1  18
ATOM     18  C5  <0> d           0.055  -2.955   2.284  0.00  0.00     0.150 C 
BRANCH  18  19
ATOM     19  C4  <0> d           0.036  -2.009   1.111  0.00  0.00     0.082 A 
ATOM     20  S1  <0> d           0.032  -2.379  -0.531  0.00  0.00    -0.084 SA
ATOM     21  C3  <0> d           0.006  -0.708  -1.159  0.00  0.00     0.078 A 
ATOM     22  C2  <0> d           0.002  -0.004   0.002  0.00  0.00     0.038 A 
ATOM     23  C1  <0> d          -0.018   1.503   0.010  0.00  0.00     0.071 C 
ATOM     24  N1  <0> d           0.023  -0.699   1.122  0.00  0.00    -0.250 NA
ENDBRANCH  18  19
ENDBRANCH   1  18
TORSDOF 6
