REMARK  7 active torsions:
REMARK  status: ('A' for Active; 'I' for Inactive)
REMARK    1  A    between atoms: N1_6  and  S1_8 
REMARK    2  A    between atoms: S1_8  and  N2_11 
REMARK    3  A    between atoms: N2_11  and  C7_12 
REMARK    4  A    between atoms: N2_11  and  C10_17 
REMARK    5  A    between atoms: C7_12  and  C8_13 
REMARK    6  A    between atoms: C8_13  and  C9_14 
REMARK    7  A    between atoms: C10_17  and  C11_18 
ROOT
ATOM      1  N2  <0> d           1.639  -3.234   3.643  0.00  0.00    -0.293 N 
ENDROOT
BRANCH   1   2
ATOM      2  S1  <0> d           0.573  -2.725   2.482  0.00  0.00     0.319 S 
ATOM      3  O1  <0> d          -0.471  -2.041   3.162  0.00  0.00    -0.182 OA
ATOM      4  O2  <0> d           0.328  -3.841   1.637  0.00  0.00    -0.182 OA
BRANCH   2   5
ATOM      5  N1  <0> d           1.356  -1.595   1.559  0.00  0.00    -0.294 N 
ATOM      6  C5  <0> d           2.116  -1.998   0.368  0.00  0.00     0.137 C 
ATOM      7  C4  <0> d           1.622  -1.183  -0.831  0.00  0.00     0.021 C 
ATOM      8  C3  <0> d           1.715   0.309  -0.501  0.00  0.00     0.007 C 
ATOM      9  C2  <0> d           0.819   0.624   0.699  0.00  0.00     0.000 C 
ATOM     10  C1  <0> d           0.887   2.121   1.007  0.00  0.00     0.011 C 
ATOM     11  C6  <0> d           1.303  -0.171   1.916  0.00  0.00     0.141 C 
ENDBRANCH   2   5
ENDBRANCH   1   2
BRANCH   1  12
ATOM     12  C7  <0> d           1.703  -2.542   4.932  0.00  0.00     0.143 C 
BRANCH  12  13
ATOM     13  C8  <0> d           0.806  -3.261   5.942  0.00  0.00     0.089 C 
BRANCH  13  14
ATOM     14  C9  <0> d           0.872  -2.549   7.269  0.00  0.00     0.072 C 
ATOM     15  S2  <0> d           1.790  -1.250   7.434  0.00  0.00    -0.066 SA
ATOM     16  N3  <0> d           0.158  -3.007   8.315  0.00  0.00    -0.393 N 
ATOM     17  H17 <0> d          -0.399  -3.795   8.215  0.00  0.00     0.156 HD
ATOM     18  H18 <0> d           0.200  -2.549   9.169  0.00  0.00     0.156 HD
ENDBRANCH  13  14
ENDBRANCH  12  13
ENDBRANCH   1  12
BRANCH   1  19
ATOM     19  C10 <0> d           2.518  -4.376   3.379  0.00  0.00     0.140 C 
BRANCH  19  20
ATOM     20  C11 <0> d           3.856  -3.874   2.833  0.00  0.00    -0.004 C 
ATOM     21  C12 <0> d           4.548  -3.013   3.891  0.00  0.00     0.011 C 
ATOM     22  C13 <0> d           4.746  -5.069   2.486  0.00  0.00     0.011 C 
ENDBRANCH  19  20
ENDBRANCH   1  19
TORSDOF 7
