REMARK  5 active torsions:
REMARK  status: ('A' for Active; 'I' for Inactive)
REMARK    1  A    between atoms: C8_9  and  C9_11 
REMARK       I    between atoms: C9_11  and  N1_13 
REMARK    2  A    between atoms: N1_13  and  C10_14 
REMARK    3  A    between atoms: C11_15  and  C18_23 
REMARK       I    between atoms: C18_23  and  N2_25 
REMARK    4  A    between atoms: N2_25  and  C19_26 
REMARK    5  A    between atoms: C19_26  and  C20_27 
ROOT
ATOM      1  C10 <0> d           6.343  -4.516  -0.054  0.00  0.00     0.093 A 
ATOM      2  C11 <0> d           6.760  -5.809  -0.325  0.00  0.00     0.073 A 
ATOM      3  C12 <0> d           8.082  -6.192   0.140  0.00  0.00    -0.026 A 
ATOM      4  C13 <0> d           8.744  -5.211   0.791  0.00  0.00    -0.008 A 
ATOM      5  S1  <0> d           7.636  -3.832   0.769  0.00  0.00    -0.075 SA
ATOM      6  C14 <0> d          10.115  -5.293   1.387  0.00  0.00     0.047 C 
ATOM      7  C15 <0> d          10.511  -6.774   1.482  0.00  0.00     0.005 C 
ATOM      8  C16 <0> d          10.218  -7.452   0.140  0.00  0.00     0.005 C 
ATOM      9  C17 <0> d           8.706  -7.564  -0.067  0.00  0.00     0.041 C 
ENDROOT
BRANCH   1  10
ATOM     10  N1  <0> d           5.136  -3.921  -0.391  0.00  0.00    -0.318 N 
ATOM     11  C9  <0> d           4.898  -2.639  -0.050  0.00  0.00     0.254 C 
ATOM     12  O3  <0> d           5.739  -2.006   0.552  0.00  0.00    -0.270 OA
ATOM     13  H9  <0> d           4.464  -4.428  -0.873  0.00  0.00     0.169 HD
BRANCH  11  14
ATOM     14  C8  <0> d           3.587  -1.993  -0.416  0.00  0.00     0.245 C 
ATOM     15  C7  <0> d           2.441  -2.689   0.331  0.00  0.00     0.218 C 
ATOM     16  O1  <0> d           1.214  -2.043  -0.029  0.00  0.00    -0.345 OA
ATOM     17  C5  <0> d           1.212  -0.683  -0.014  0.00  0.00     0.102 A 
ATOM     18  C4  <0> d           2.404   0.031  -0.019  0.00  0.00     0.103 A 
ATOM     19  C6  <0> d           0.002  -0.004   0.002  0.00  0.00     0.039 A 
ATOM     20  C3  <0> d           2.378   1.418  -0.012  0.00  0.00     0.040 A 
ATOM     21  O2  <0> d           3.602  -0.615  -0.029  0.00  0.00    -0.331 OA
ATOM     22  C2  <0> d           1.170   2.088   0.002  0.00  0.00     0.003 A 
ATOM     23  C1  <0> d          -0.017   1.378   0.010  0.00  0.00     0.003 A 
ENDBRANCH  11  14
ENDBRANCH   1  10
BRANCH   2  24
ATOM     24  C18 <0> d           5.903  -6.753  -1.051  0.00  0.00     0.255 C 
ATOM     25  O4  <0> d           5.963  -6.819  -2.264  0.00  0.00    -0.268 OA
ATOM     26  N2  <0> d           5.050  -7.546  -0.373  0.00  0.00    -0.354 N 
ATOM     27  H18 <0> d           5.002  -7.492   0.594  0.00  0.00     0.162 HD
BRANCH  26  28
ATOM     28  C19 <0> d           4.193  -8.488  -1.098  0.00  0.00     0.155 C 
BRANCH  28  29
ATOM     29  C20 <0> d           3.327  -9.260  -0.101  0.00  0.00     0.139 C 
ATOM     30  O5  <0> d           4.153 -10.042   0.776  0.00  0.00    -0.384 OA
ATOM     31  C23 <0> d           3.512 -11.291   1.067  0.00  0.00     0.168 C 
ATOM     32  C22 <0> d           2.184 -11.327   0.281  0.00  0.00     0.029 C 
ATOM     33  C21 <0> d           2.438 -10.288  -0.845  0.00  0.00     0.035 C 
ENDBRANCH  28  29
ENDBRANCH  26  28
ENDBRANCH   2  24
TORSDOF 5
