REMARK  5 active torsions:
REMARK  status: ('A' for Active; 'I' for Inactive)
REMARK    1  A    between atoms: C5_5  and  C6_7 
REMARK    2  A    between atoms: C6_7  and  C7_8 
REMARK    3  A    between atoms: C6_7  and  N2_10 
REMARK    4  A    between atoms: C7_8  and  N1_9 
REMARK    5  A    between atoms: N2_10  and  C9_12 
ROOT
ATOM      1  C6  <0> d           1.486  -2.982  -0.019  0.00  0.00     0.304 C 
ENDROOT
BRANCH   1   2
ATOM      2  C5  <0> d           0.650  -1.733   0.097  0.00  0.00     0.088 A 
ATOM      3  C4  <0> d          -0.694  -1.684   0.104  0.00  0.00     0.037 A 
ATOM      4  C3  <0> d          -1.053  -0.322   0.230  0.00  0.00     0.035 A 
ATOM      5  C2  <0> d           0.093   0.379   0.292  0.00  0.00     0.049 A 
ATOM      6  C1  <0> d           0.204   1.876   0.429  0.00  0.00     0.076 C 
ATOM      7  O1  <0> d           1.122  -0.480   0.205  0.00  0.00    -0.318 OA
ENDBRANCH   1   2
BRANCH   1   8
ATOM      8  C7  <0> d           2.042  -3.094  -1.440  0.00  0.00     0.272 C 
BRANCH   8   9
ATOM      9  N1  <0> d           2.873  -4.301  -1.547  0.00  0.00    -0.077 N 
ATOM     10  H10 <0> d           3.732  -4.164  -1.037  0.00  0.00     0.274 HD
ATOM     11  H11 <0> d           2.374  -5.088  -1.160  0.00  0.00     0.274 HD
ATOM     12  H21 <0> d           3.082  -4.480  -2.517  0.00  0.00     0.274 HD
ENDBRANCH   8   9
ENDBRANCH   1   8
BRANCH   1  13
ATOM     13  N2  <0> d           2.598  -2.917   0.939  0.00  0.00     0.102 N 
ATOM     14  C8  <0> d           3.686  -2.074   0.426  0.00  0.00     0.311 C 
BRANCH  13  15
ATOM     15  C9  <0> d           3.087  -4.263   1.269  0.00  0.00     0.238 C 
ATOM     16  C12 <0> d           4.401  -4.156   2.094  0.00  0.00     0.176 C 
ATOM     17  S1  <0> d           4.449  -5.826   2.870  0.00  0.00     0.146 S 
ATOM     18  C11 <0> d           2.670  -6.273   2.742  0.00  0.00     0.142 C 
ATOM     19  O2  <0> d           4.794  -5.689   4.242  0.00  0.00    -0.228 OA
ATOM     20  O3  <0> d           5.206  -6.700   2.043  0.00  0.00    -0.228 OA
ATOM     21  C10 <0> d           2.043  -4.998   2.126  0.00  0.00     0.052 C 
ENDBRANCH  13  15
ENDBRANCH   1  13
TORSDOF 5
