REMARK  5 active torsions:
REMARK  status: ('A' for Active; 'I' for Inactive)
REMARK    1  A    between atoms: N1_2  and  C2_3 
REMARK    2  A    between atoms: N1_2  and  C7_10 
REMARK    3  A    between atoms: C2_3  and  C3_4 
REMARK    4  A    between atoms: C8_11  and  C12_16 
REMARK    5  A    between atoms: C12_16  and  N3_17 
ROOT
ATOM      1  C7  <0> d          -0.218  -0.562  -0.887  0.00  0.00     0.139 A 
ATOM      2  C8  <0> d          -0.084  -0.123  -2.215  0.00  0.00     0.053 A 
ATOM      3  C9  <0> d          -0.112  -1.070  -3.244  0.00  0.00     0.020 A 
ATOM      4  C10 <0> d          -0.270  -2.403  -2.906  0.00  0.00     0.020 A 
ATOM      5  C11 <0> d          -0.396  -2.758  -1.576  0.00  0.00     0.119 A 
ATOM      6  N2  <0> d          -0.362  -1.850  -0.620  0.00  0.00    -0.242 NA
ENDROOT
BRANCH   1   7
ATOM      7  N1  <0> d          -0.194   0.357   0.147  0.00  0.00    -0.365 N 
ATOM      8  C1  <0> d          -1.417   1.072   0.520  0.00  0.00     0.151 C 
BRANCH   7   9
ATOM      9  C2  <0> d           1.055   0.615   0.868  0.00  0.00     0.170 C 
BRANCH   9  10
ATOM     10  C3  <0> d           1.163  -0.328   2.039  0.00  0.00     0.002 A 
ATOM     11  S1  <0> d           0.590  -0.108   3.715  0.00  0.00    -0.081 SA
ATOM     12  C6  <0> d           1.129  -1.677   4.374  0.00  0.00     0.075 A 
ATOM     13  C5  <0> d           1.709  -2.252   3.290  0.00  0.00     0.032 A 
ATOM     14 Cl1  <0> d           0.962  -2.302   5.985  0.00  0.00    -0.076 Cl
ATOM     15  C4  <0> d           1.726  -1.559   2.094  0.00  0.00     0.018 A 
ENDBRANCH   9  10
ENDBRANCH   7   9
ENDBRANCH   1   7
BRANCH   2  16
ATOM     16  C12 <0> d           0.083   1.312  -2.519  0.00  0.00     0.106 C 
ATOM     17  N4  <0> d          -0.775   1.924  -3.336  0.00  0.00    -0.385 N 
ATOM     18  H12 <0> d          -1.508   1.427  -3.731  0.00  0.00     0.157 HD
ATOM     19  H13 <0> d          -0.665   2.867  -3.535  0.00  0.00     0.157 HD
BRANCH  16  20
ATOM     20  N3  <0> d           1.090   1.996  -1.976  0.00  0.00    -0.385 N 
ATOM     21  H11 <0> d           1.759   1.535  -1.446  0.00  0.00     0.157 HD
ATOM     22  H14 <0> d           1.155   2.954  -2.113  0.00  0.00     0.157 HD
ENDBRANCH  16  20
ENDBRANCH   2  16
TORSDOF 5
