REMARK  5 active torsions:
REMARK  status: ('A' for Active; 'I' for Inactive)
REMARK    1  A    between atoms: C3_6  and  C11_16 
REMARK    2  A    between atoms: C11_16  and  S1_17 
REMARK    3  A    between atoms: S1_17  and  C12_18 
REMARK    4  A    between atoms: C13_21  and  C14_24 
REMARK    5  A    between atoms: C14_24  and  C15_25 
ROOT
ATOM      1  C1  <0> d          -0.018   1.461   0.010  0.00  0.00     0.157 C 
ATOM      2  N1  <0> d           0.002  -0.004   0.002  0.00  0.00    -0.311 N 
ATOM      3  C2  <0> d          -1.258  -0.745   0.004  0.00  0.00     0.341 C 
ATOM      4  N2  <0> d          -2.309  -0.066  -0.747  0.00  0.00    -0.147 NA
ATOM      5  N3  <0> d          -2.793  -0.796  -1.617  0.00  0.00    -0.167 NA
ATOM      6  C3  <0> d          -2.143  -2.114  -1.645  0.00  0.00     0.244 C 
ATOM      7  N4  <0> d          -1.030  -2.036  -0.683  0.00  0.00    -0.313 N 
ATOM      8  C4  <0> d           0.068  -2.828  -0.432  0.00  0.00     0.051 A 
ATOM      9  C5  <0> d           0.082  -4.203  -0.527  0.00  0.00     0.030 A 
ATOM     10  C6  <0> d           1.242  -4.897  -0.233  0.00  0.00     0.002 A 
ATOM     11  C7  <0> d           2.386  -4.220   0.156  0.00  0.00     0.001 A 
ATOM     12  C8  <0> d           2.392  -2.843   0.250  0.00  0.00     0.019 A 
ATOM     13  C9  <0> d           1.237  -2.130  -0.049  0.00  0.00     0.059 A 
ATOM     14  C10 <0> d           1.185  -0.658  -0.013  0.00  0.00     0.258 C 
ATOM     15  O1  <0> d           2.222  -0.022   0.008  0.00  0.00    -0.267 OA
ENDROOT
BRANCH   6  16
ATOM     16  C11 <0> d          -1.621  -2.416  -3.051  0.00  0.00     0.133 C 
BRANCH  16  17
ATOM     17  S1  <0> d          -0.447  -1.126  -3.550  0.00  0.00    -0.087 SA
BRANCH  17  18
ATOM     18  C12 <0> d           0.056  -1.611  -5.168  0.00  0.00     0.184 A 
ATOM     19  N5  <0> d          -0.355  -2.677  -5.821  0.00  0.00    -0.206 NA
ATOM     20  C13 <0> d           0.234  -2.727  -7.016  0.00  0.00     0.149 A 
ATOM     21  N6  <0> d           1.029  -1.698  -7.145  0.00  0.00    -0.157 NA
ATOM     22  N7  <0> d           0.929  -0.951  -5.960  0.00  0.00    -0.254 N 
ATOM     23  H3  <0> d           1.396  -0.127  -5.751  0.00  0.00     0.191 HD
BRANCH  20  24
ATOM     24  C14 <0> d           0.019  -3.800  -8.052  0.00  0.00     0.087 C 
BRANCH  24  25
ATOM     25  C15 <0> d          -1.137  -3.397  -8.970  0.00  0.00    -0.007 C 
ATOM     26  C19 <0> d          -1.288  -4.422 -10.108  0.00  0.00     0.005 C 
ATOM     27  C18 <0> d          -2.702  -5.024  -9.974  0.00  0.00     0.000 C 
ATOM     28  C17 <0> d          -3.503  -3.946  -9.203  0.00  0.00     0.000 C 
ATOM     29  C16 <0> d          -2.465  -3.413  -8.184  0.00  0.00     0.005 C 
ENDBRANCH  24  25
ENDBRANCH  20  24
ENDBRANCH  17  18
ENDBRANCH  16  17
ENDBRANCH   6  16
TORSDOF 5
