REMARK  6 active torsions:
REMARK  status: ('A' for Active; 'I' for Inactive)
REMARK    1  A    between atoms: O1_2  and  C2_3 
REMARK    2  A    between atoms: C8_9  and  C10_13 
REMARK    3  A    between atoms: C10_13  and  C11_14 
REMARK    4  A    between atoms: C11_14  and  N3_30 
REMARK    5  A    between atoms: C12_15  and  N3_30 
REMARK    6  A    between atoms: N2_19  and  C16_22 
ROOT
ATOM      1  N3  <0> d          -5.533   4.151   1.359  0.00  0.00    -0.061 N 
ATOM      2  H19 <0> d          -6.356   4.363   0.783  0.00  0.00     0.278 HD
ATOM      3  H20 <0> d          -5.339   3.144   1.321  0.00  0.00     0.278 HD
ENDROOT
BRANCH   1   4
ATOM      4  C11 <0> d          -5.805   4.541   2.756  0.00  0.00     0.238 C 
BRANCH   4   5
ATOM      5  C10 <0> d          -7.015   3.758   3.269  0.00  0.00     0.068 C 
BRANCH   5   6
ATOM      6  C8  <0> d          -7.299   4.151   4.696  0.00  0.00    -0.029 A 
ATOM      7  C6  <0> d          -8.091   5.300   5.142  0.00  0.00     0.001 A 
ATOM      8  C5  <0> d          -8.080   5.258   6.548  0.00  0.00     0.043 A 
ATOM      9  C7  <0> d          -8.792   6.310   4.479  0.00  0.00     0.051 A 
ATOM     10  C4  <0> d          -8.761   6.234   7.268  0.00  0.00     0.033 A 
ATOM     11  N1  <0> d          -7.325   4.164   6.915  0.00  0.00    -0.365 N 
ATOM     12  C3  <0> d          -9.444   7.228   6.604  0.00  0.00     0.039 A 
ATOM     13  C2  <0> d          -9.461   7.269   5.212  0.00  0.00     0.069 A 
ATOM     14  C9  <0> d          -6.869   3.518   5.799  0.00  0.00     0.096 A 
ATOM     15  H1  <0> d          -7.145   3.893   7.829  0.00  0.00     0.165 HD
BRANCH  13  16
ATOM     16  O1  <0> d         -10.141   8.258   4.572  0.00  0.00    -0.356 OA
ATOM     17  C1  <0> d         -10.813   9.218   5.390  0.00  0.00     0.210 C 
ENDBRANCH  13  16
ENDBRANCH   5   6
ENDBRANCH   4   5
ENDBRANCH   1   4
BRANCH   1  18
ATOM     18  C12 <0> d          -4.369   4.892   0.838  0.00  0.00     0.286 A 
ATOM     19  C15 <0> d          -3.083   4.171   1.177  0.00  0.00     0.262 A 
ATOM     20  N2  <0> d          -2.461   3.823   0.044  0.00  0.00    -0.249 N 
ATOM     21  O3  <0> d          -2.679   3.946   2.298  0.00  0.00    -0.270 OA
ATOM     22  C14 <0> d          -3.101   4.187  -1.074  0.00  0.00     0.233 A 
ATOM     23  C13 <0> d          -4.384   4.899  -0.705  0.00  0.00     0.146 A 
ATOM     24  O2  <0> d          -2.715   3.977  -2.204  0.00  0.00    -0.273 OA
BRANCH  20  25
ATOM     25  C16 <0> d          -1.238   3.137   0.029  0.00  0.00     0.068 A 
ATOM     26  C21 <0> d          -0.043   3.846   0.022  0.00  0.00     0.083 A 
ATOM     27  C20 <0> d           1.162   3.166   0.007  0.00  0.00     0.058 A 
ATOM     28 Cl1  <0> d          -0.062   5.582   0.029  0.00  0.00    -0.080 Cl
ATOM     29  C19 <0> d           1.176   1.782   0.000  0.00  0.00     0.026 A 
ATOM     30 Cl2  <0> d           2.656   4.049  -0.002  0.00  0.00    -0.082 Cl
ATOM     31  C18 <0> d          -0.013   1.076   0.008  0.00  0.00     0.004 A 
ATOM     32  C17 <0> d          -1.219   1.749   0.017  0.00  0.00     0.032 A 
ENDBRANCH  20  25
ENDBRANCH   1  18
TORSDOF 6
