REMARK  6 active torsions:
REMARK  status: ('A' for Active; 'I' for Inactive)
REMARK    1  A    between atoms: C4_6  and  C5_7 
REMARK    2  A    between atoms: C5_7  and  C6_8 
REMARK    3  A    between atoms: C5_7  and  C19_22 
REMARK    4  A    between atoms: C15_17  and  O1_18 
REMARK    5  A    between atoms: O1_18  and  C16_19 
REMARK    6  A    between atoms: C21_26  and  O2_27 
ROOT
ATOM      1  C5  <0> d          -0.317  -0.100   2.757  0.00  0.00     0.098 C 
ENDROOT
BRANCH   1   2
ATOM      2  C4  <0> d           0.106   1.172   2.070  0.00  0.00     0.048 A 
ATOM      3  C2  <0> d          -0.487   2.377   2.197  0.00  0.00     0.035 A 
ATOM      4  C1  <0> d          -1.689   2.680   3.055  0.00  0.00     0.070 C 
ATOM      5  N1  <0> d           0.190   3.276   1.423  0.00  0.00    -0.302 N 
ATOM      6  H23 <0> d          -0.021   4.218   1.331  0.00  0.00     0.186 HD
ATOM      7  N2  <0> d           1.240   2.602   0.786  0.00  0.00    -0.266 N 
ATOM      8  C3  <0> d           1.193   1.311   1.175  0.00  0.00     0.269 A 
ATOM      9  H24 <0> d           1.884   2.993   0.176  0.00  0.00     0.190 HD
ATOM     10  O3  <0> d           1.952   0.426   0.823  0.00  0.00    -0.266 OA
ENDBRANCH   1   2
BRANCH   1  11
ATOM     11  C6  <0> d           0.875  -0.727   3.432  0.00  0.00    -0.001 A 
ATOM     12  C15 <0> d           1.057  -2.080   3.386  0.00  0.00     0.077 A 
ATOM     13  C14 <0> d           2.162  -2.676   4.004  0.00  0.00     0.038 A 
ATOM     14  C13 <0> d           3.077  -1.927   4.674  0.00  0.00     0.015 A 
ATOM     15  C12 <0> d           2.918  -0.532   4.745  0.00  0.00    -0.025 A 
ATOM     16  C7  <0> d           1.803   0.075   4.116  0.00  0.00    -0.016 A 
ATOM     17  C11 <0> d           3.845   0.273   5.429  0.00  0.00     0.012 A 
ATOM     18  C8  <0> d           1.645   1.470   4.189  0.00  0.00     0.013 A 
ATOM     19  C9  <0> d           2.563   2.217   4.861  0.00  0.00     0.001 A 
ATOM     20  C10 <0> d           3.660   1.620   5.479  0.00  0.00     0.001 A 
BRANCH  12  21
ATOM     21  O1  <0> d           0.156  -2.856   2.729  0.00  0.00    -0.346 OA
BRANCH  21  22
ATOM     22  C16 <0> d           0.367  -4.269   2.767  0.00  0.00     0.120 C 
ATOM     23  C17 <0> d          -0.963  -4.989   2.536  0.00  0.00     0.040 C 
ATOM     24  C18 <0> d           1.360  -4.666   1.673  0.00  0.00     0.040 C 
ENDBRANCH  21  22
ENDBRANCH  12  21
ENDBRANCH   1  11
BRANCH   1  25
ATOM     25  C19 <0> d          -0.880  -1.058   1.739  0.00  0.00     0.011 A 
ATOM     26  C21 <0> d          -0.259  -1.498   0.425  0.00  0.00     0.296 A 
ATOM     27  N4  <0> d          -1.261  -2.429  -0.119  0.00  0.00    -0.155 NA
ATOM     28  N3  <0> d          -2.199  -2.483   0.681  0.00  0.00    -0.157 NA
ATOM     29  C20 <0> d          -2.042  -1.713   1.780  0.00  0.00     0.060 A 
ATOM     30  C22 <0> d          -3.045  -1.607   2.900  0.00  0.00     0.072 C 
BRANCH  26  31
ATOM     31  O2  <0> d           0.981  -2.170   0.652  0.00  0.00    -0.369 OA
ATOM     32  H19 <0> d           1.457  -2.403  -0.157  0.00  0.00     0.212 HD
ENDBRANCH  26  31
ENDBRANCH   1  25
TORSDOF 6
