REMARK  3 active torsions:
REMARK  status: ('A' for Active; 'I' for Inactive)
REMARK    1  A    between atoms: N2_5  and  S1_8 
REMARK    2  A    between atoms: S1_8  and  N3_11 
REMARK       I    between atoms: N3_11  and  C6_12 
REMARK    3  A    between atoms: C6_12  and  C7_14 
ROOT
ATOM      1  N3  <0> d          -1.066   3.674   0.027  0.00  0.00    -0.103 NA
ATOM      2  C6  <0> d          -1.207   2.333   0.021  0.00  0.00     0.291 C 
ATOM      3  O3  <0> d          -2.318   1.838   0.024  0.00  0.00    -0.264 OA
ENDROOT
BRANCH   1   4
ATOM      4  S1  <0> d          -2.406   4.647   0.039  0.00  0.00     0.345 S 
ATOM      5  O1  <0> d          -1.934   5.987   0.071  0.00  0.00    -0.180 OA
ATOM      6  O2  <0> d          -3.266   4.166  -0.985  0.00  0.00    -0.180 OA
BRANCH   4   7
ATOM      7  N2  <0> d          -3.188   4.386   1.476  0.00  0.00    -0.289 N 
ATOM      8  C3  <0> d          -2.869   5.190   2.665  0.00  0.00     0.164 C 
ATOM      9  C2  <0> d          -2.589   4.239   3.834  0.00  0.00     0.255 C 
ATOM     10  N1  <0> d          -3.721   3.316   3.993  0.00  0.00    -0.072 N 
ATOM     11  C1  <0> d          -3.571   2.503   5.207  0.00  0.00     0.269 C 
ATOM     12  C5  <0> d          -3.886   2.466   2.806  0.00  0.00     0.255 C 
ATOM     13  H18 <0> d          -4.634   3.921   4.100  0.00  0.00     0.279 HD
ATOM     14  C4  <0> d          -4.223   3.348   1.593  0.00  0.00     0.164 C 
ENDBRANCH   4   7
ENDBRANCH   1   4
BRANCH   2  15
ATOM     15  C7  <0> d          -0.018   1.470   0.010  0.00  0.00     0.062 A 
ATOM     16  C10 <0> d           0.002  -0.004   0.002  0.00  0.00     0.008 A 
ATOM     17  C9  <0> d           1.358  -0.370  -0.013  0.00  0.00     0.043 A 
ATOM     18  C11 <0> d          -0.986  -0.985   0.006  0.00  0.00     0.015 A 
ATOM     19  N4  <0> d           2.100   0.793  -0.014  0.00  0.00    -0.364 N 
ATOM     20  C14 <0> d           1.700  -1.718  -0.023  0.00  0.00     0.030 A 
ATOM     21  C8  <0> d           1.284   1.875  -0.000  0.00  0.00     0.106 A 
ATOM     22  H1  <0> d           3.192   0.927  -0.023  0.00  0.00     0.165 HD
ATOM     23  C13 <0> d           0.712  -2.679  -0.018  0.00  0.00     0.002 A 
ATOM     24  C12 <0> d          -0.627  -2.315  -0.004  0.00  0.00     0.001 A 
ENDBRANCH   2  15
TORSDOF 3
