REMARK  5 active torsions:
REMARK  status: ('A' for Active; 'I' for Inactive)
REMARK    1  A    between atoms: C6_6  and  N2_8 
REMARK       I    between atoms: N2_8  and  C7_9 
REMARK    2  A    between atoms: C7_9  and  C8_11 
REMARK    3  A    between atoms: C12_16  and  C13_17 
REMARK    4  A    between atoms: C20_26  and  C22_28 
REMARK    5  A    between atoms: C25_31  and  O3_34 
ROOT
ATOM      1  C8  <0> d           1.155   2.034  -0.120  0.00  0.00     0.045 C 
ATOM      2  C9  <0> d           2.252   1.260  -0.093  0.00  0.00     0.018 C 
ATOM      3  N3  <0> d           3.499   1.823  -0.101  0.00  0.00    -0.362 N 
ATOM      4  C10 <0> d           3.675   3.132   0.258  0.00  0.00     0.021 C 
ATOM      5  C11 <0> d           2.633   3.990   0.253  0.00  0.00     0.023 C 
ATOM      6  C12 <0> d           1.259   3.531  -0.171  0.00  0.00     0.099 C 
ATOM      7  C18 <0> d           2.797   5.333   0.634  0.00  0.00     0.159 C 
ATOM      8  O2  <0> d           1.840   6.081   0.611  0.00  0.00    -0.293 OA
ATOM      9  C19 <0> d           4.137   5.862   1.070  0.00  0.00     0.093 C 
ATOM     10  C20 <0> d           4.950   4.716   1.683  0.00  0.00     0.031 C 
ATOM     11  C21 <0> d           5.057   3.591   0.652  0.00  0.00     0.067 C 
ATOM     12  C29 <0> d           2.109  -0.240  -0.055  0.00  0.00     0.069 C 
ATOM     13  H10 <0> d           4.372   1.223  -0.397  0.00  0.00     0.165 HD
ENDROOT
BRANCH   1  14
ATOM     14  C7  <0> d          -0.124   1.427  -0.105  0.00  0.00     0.256 C 
ATOM     15  N2  <0> d          -0.639   0.912  -1.239  0.00  0.00    -0.308 N 
ATOM     16  H9  <0> d          -0.033   0.889  -2.157  0.00  0.00     0.170 HD
ATOM     17  O1  <0> d          -0.757   1.367   0.933  0.00  0.00    -0.267 OA
BRANCH  15  18
ATOM     18  C6  <0> d          -1.937   0.407  -1.249  0.00  0.00     0.130 A 
ATOM     19  C5  <0> d          -2.500  -0.024  -2.445  0.00  0.00     0.050 A 
ATOM     20  C4  <0> d          -3.789  -0.527  -2.439  0.00  0.00     0.006 A 
ATOM     21  C3  <0> d          -4.477  -0.573  -1.234  0.00  0.00     0.027 A 
ATOM     22  C2  <0> d          -3.858  -0.123  -0.085  0.00  0.00     0.033 A 
ATOM     23  C1  <0> d          -4.599  -0.170   1.226  0.00  0.00     0.070 C 
ATOM     24  N1  <0> d          -2.626   0.347  -0.120  0.00  0.00    -0.236 NA
ENDBRANCH  15  18
ENDBRANCH   1  14
BRANCH   6  25
ATOM     25  C13 <0> d           0.989   3.997  -1.579  0.00  0.00    -0.027 A 
ATOM     26  C17 <0> d           1.788   3.572  -2.623  0.00  0.00     0.124 A 
ATOM     27  N4  <0> d           1.557   3.976  -3.857  0.00  0.00    -0.273 NA
ATOM     28  C16 <0> d           0.565   4.795  -4.144  0.00  0.00     0.116 A 
ATOM     29  C15 <0> d          -0.277   5.262  -3.152  0.00  0.00     0.020 A 
ATOM     30  C14 <0> d          -0.069   4.855  -1.843  0.00  0.00     0.011 A 
ENDBRANCH   6  25
BRANCH  10  31
ATOM     31  C22 <0> d           6.328   5.209   2.041  0.00  0.00    -0.053 A 
ATOM     32  C27 <0> d           6.770   5.135   3.349  0.00  0.00     0.010 A 
ATOM     33  C26 <0> d           8.033   5.586   3.679  0.00  0.00     0.037 A 
ATOM     34  C25 <0> d           8.859   6.113   2.697  0.00  0.00     0.068 A 
ATOM     35  C24 <0> d           8.414   6.186   1.385  0.00  0.00     0.037 A 
ATOM     36  C23 <0> d           7.152   5.729   1.059  0.00  0.00     0.010 A 
BRANCH  34  37
ATOM     37  O3  <0> d          10.103   6.556   3.019  0.00  0.00    -0.356 OA
ATOM     38  C28 <0> d          10.898   7.087   1.957  0.00  0.00     0.210 C 
ENDBRANCH  34  37
ENDBRANCH  10  31
TORSDOF 5
