REMARK  2 active torsions:
REMARK  status: ('A' for Active; 'I' for Inactive)
REMARK    1  A    between atoms: N2_10  and  C10_13 
REMARK    2  A    between atoms: C10_13  and  C12_15 
ROOT
ATOM      1  C1  <0> d          -0.018   1.503   0.010  0.00  0.00     0.050 C 
ATOM      2  C2  <0> d           0.002  -0.004   0.002  0.00  0.00    -0.030 A 
ATOM      3  C3  <0> d           0.006  -0.689  -1.192  0.00  0.00     0.033 A 
ATOM      4  C4  <0> d           0.025  -2.078  -1.216  0.00  0.00     0.035 A 
ATOM      5  C5  <0> d           0.039  -2.799  -0.040  0.00  0.00     0.043 A 
ATOM      6  C6  <0> d           0.036  -2.124   1.178  0.00  0.00     0.063 A 
ATOM      7  C7  <0> d           0.023  -0.712   1.205  0.00  0.00     0.080 A 
ATOM      8  N1  <0> d           0.026  -0.076   2.404  0.00  0.00    -0.242 NA
ATOM      9  C8  <0> d           0.045  -0.735   3.523  0.00  0.00     0.214 A 
ATOM     10  N2  <0> d           0.065  -2.092   3.592  0.00  0.00    -0.296 N 
ATOM     11  C9  <0> d           0.051  -2.839   2.463  0.00  0.00     0.262 A 
ATOM     12  O1  <0> d           0.067  -4.055   2.510  0.00  0.00    -0.267 OA
ATOM     13 Cl1  <0> d           0.029  -2.913  -2.738  0.00  0.00    -0.084 Cl
ENDROOT
BRANCH  10  14
ATOM     14  C10 <0> d           0.086  -2.752   4.899  0.00  0.00     0.161 C 
ATOM     15  C11 <0> d           1.337  -2.321   5.668  0.00  0.00     0.041 C 
BRANCH  14  16
ATOM     16  C12 <0> d          -1.143  -2.361   5.680  0.00  0.00     0.144 A 
ATOM     17  N5  <0> d          -1.839  -1.266   5.518  0.00  0.00    -0.223 NA
ATOM     18  C13 <0> d          -2.860  -1.248   6.374  0.00  0.00     0.257 A 
ATOM     19  N4  <0> d          -2.821  -2.333   7.102  0.00  0.00    -0.167 NA
ATOM     20  N3  <0> d          -1.710  -3.074   6.668  0.00  0.00    -0.262 N 
ATOM     21  H2  <0> d          -1.411  -3.930   7.012  0.00  0.00     0.190 HD
ENDBRANCH  14  16
ENDBRANCH  10  14
TORSDOF 2
