REMARK  2 active torsions:
REMARK  status: ('A' for Active; 'I' for Inactive)
REMARK    1  A    between atoms: C2_2  and  C3_3 
REMARK    2  A    between atoms: C6_8  and  N3_9 
ROOT
ATOM      1  N3  <0> d          -1.738  -0.386  -2.482  0.00  0.00    -0.365 N 
ATOM      2  C7  <0> d          -0.327  -0.026  -2.676  0.00  0.00     0.127 C 
ATOM      3  C8  <0> d           0.269  -0.930  -3.759  0.00  0.00     0.061 C 
ATOM      4  C9  <0> d          -0.585  -0.836  -5.024  0.00  0.00     0.115 C 
ATOM      5  C10 <0> d          -2.007  -1.314  -4.723  0.00  0.00     0.061 C 
ATOM      6  C11 <0> d          -2.626  -0.418  -3.652  0.00  0.00     0.127 C 
ATOM      7  C12 <0> d           0.016  -1.692  -6.109  0.00  0.00     0.250 C 
ATOM      8  O1  <0> d           0.656  -2.678  -5.810  0.00  0.00    -0.270 OA
ATOM      9  N4  <0> d          -0.151  -1.372  -7.405  0.00  0.00    -0.323 N 
ATOM     10  C13 <0> d          -0.762  -0.168  -7.774  0.00  0.00     0.061 A 
ATOM     11  C14 <0> d          -1.121   0.066  -9.092  0.00  0.00     0.032 A 
ATOM     12  C15 <0> d          -1.732   1.257  -9.439  0.00  0.00     0.002 A 
ATOM     13  C16 <0> d          -1.987   2.218  -8.477  0.00  0.00     0.002 A 
ATOM     14  C17 <0> d          -1.630   1.994  -7.159  0.00  0.00     0.031 A 
ATOM     15  C18 <0> d          -1.016   0.805  -6.807  0.00  0.00     0.056 A 
ATOM     16  N5  <0> d          -0.628   0.560  -5.481  0.00  0.00    -0.370 N 
ATOM     17  H15 <0> d           0.155  -1.984  -8.093  0.00  0.00     0.169 HD
ATOM     18  H20 <0> d          -0.396   1.289  -4.885  0.00  0.00     0.161 HD
ENDROOT
BRANCH   1  19
ATOM     19  C6  <0> d          -2.221  -0.695  -1.221  0.00  0.00     0.135 A 
ATOM     20  C3  <0> d          -2.692   0.311  -0.375  0.00  0.00     0.003 A 
ATOM     21  C4  <0> d          -3.168  -0.049   0.870  0.00  0.00     0.100 A 
ATOM     22  N1  <0> d          -3.159  -1.327   1.222  0.00  0.00    -0.354 N 
ATOM     23  C5  <0> d          -2.702  -2.253   0.403  0.00  0.00     0.102 A 
ATOM     24  H24 <0> d          -3.492  -1.584   2.095  0.00  0.00     0.166 HD
ATOM     25  N2  <0> d          -2.238  -1.955  -0.794  0.00  0.00    -0.218 NA
ATOM     26  C19 <0> d          -2.711  -3.693   0.847  0.00  0.00     0.091 C 
BRANCH  20  27
ATOM     27  C2  <0> d          -2.685   1.753  -0.813  0.00  0.00     0.039 C 
ATOM     28  C1  <0> d          -3.954   2.048  -1.616  0.00  0.00     0.010 C 
ENDBRANCH  20  27
ENDBRANCH   1  19
TORSDOF 2
