REMARK  6 active torsions:
REMARK  status: ('A' for Active; 'I' for Inactive)
REMARK    1  A    between atoms: C6_6  and  O1_8 
REMARK    2  A    between atoms: O1_8  and  C8_9 
REMARK    3  A    between atoms: C8_9  and  C9_10 
REMARK       I    between atoms: C9_10  and  N1_12 
REMARK    4  A    between atoms: N1_12  and  N2_13 
REMARK       I    between atoms: N2_13  and  C10_14 
REMARK    5  A    between atoms: C10_14  and  C11_16 
REMARK    6  A    between atoms: C11_16  and  C12_17 
ROOT
ATOM      1  N2  <0> d           0.080  -3.286   7.105  0.00  0.00    -0.267 N 
ATOM      2  C10 <0> d           0.079  -2.780   8.354  0.00  0.00     0.240 C 
ATOM      3  O3  <0> d           0.064  -1.579   8.521  0.00  0.00    -0.272 OA
ATOM      4  H11 <0> d           0.093  -4.247   6.971  0.00  0.00     0.190 HD
ENDROOT
BRANCH   1   5
ATOM      5  N1  <0> d           0.063  -2.425   6.000  0.00  0.00    -0.266 N 
ATOM      6  C9  <0> d           0.064  -2.932   4.751  0.00  0.00     0.260 C 
ATOM      7  O2  <0> d           0.080  -4.133   4.584  0.00  0.00    -0.269 OA
ATOM      8  H10 <0> d           0.051  -1.464   6.134  0.00  0.00     0.190 HD
BRANCH   6   9
ATOM      9  C8  <0> d           0.046  -2.005   3.563  0.00  0.00     0.280 C 
BRANCH   9  10
ATOM     10  O1  <0> d           0.051  -2.775   2.359  0.00  0.00    -0.342 OA
BRANCH  10  11
ATOM     11  C6  <0> d           0.036  -2.088   1.187  0.00  0.00     0.070 A 
ATOM     12  C5  <0> d           0.040  -2.772  -0.020  0.00  0.00     0.043 A 
ATOM     13  C4  <0> d           0.025  -2.071  -1.210  0.00  0.00    -0.059 A 
ATOM     14  C3  <0> d           0.006  -0.688  -1.200  0.00  0.00     0.013 A 
ATOM     15  C20 <0> d           0.029  -2.813  -2.522  0.00  0.00     0.048 C 
ATOM     16  C2  <0> d           0.002  -0.004   0.002  0.00  0.00    -0.059 A 
ATOM     17  C1  <0> d          -0.018   1.503   0.010  0.00  0.00     0.048 C 
ATOM     18  C7  <0> d           0.023  -0.701   1.195  0.00  0.00     0.043 A 
ENDBRANCH  10  11
ENDBRANCH   9  10
ENDBRANCH   6   9
ENDBRANCH   1   5
BRANCH   2  19
ATOM     19  C11 <0> d           0.097  -3.706   9.543  0.00  0.00     0.147 C 
BRANCH  19  20
ATOM     20  C12 <0> d           0.092  -2.894  10.812  0.00  0.00    -0.001 A 
ATOM     21  C17 <0> d          -1.078  -2.626  11.451  0.00  0.00     0.041 A 
ATOM     22  N5  <0> d          -1.056  -1.896  12.598  0.00  0.00    -0.239 N 
ATOM     23  C18 <0> d          -2.383  -3.138  10.897  0.00  0.00     0.071 C 
ATOM     24  C14 <0> d           0.138  -1.431  13.089  0.00  0.00     0.154 A 
ATOM     25  N4  <0> d          -2.073  -1.472  13.461  0.00  0.00    -0.258 N 
ATOM     26  N3  <0> d           1.284  -1.695  12.450  0.00  0.00    -0.234 NA
ATOM     27  C15 <0> d          -0.138  -0.721  14.255  0.00  0.00     0.128 A 
ATOM     28  C13 <0> d           1.291  -2.404  11.342  0.00  0.00     0.042 A 
ATOM     29  C19 <0> d           2.594  -2.688  10.640  0.00  0.00     0.071 C 
ATOM     30  C16 <0> d          -1.516  -0.763  14.461  0.00  0.00     0.263 A 
ATOM     31  O4  <0> d          -2.116  -0.244  15.389  0.00  0.00    -0.267 OA
ATOM     32  H1  <0> d          -3.019  -1.658  13.357  0.00  0.00     0.191 HD
ENDBRANCH  19  20
ENDBRANCH   2  19
TORSDOF 6
