REMARK  4 active torsions:
REMARK  status: ('A' for Active; 'I' for Inactive)
REMARK    1  A    between atoms: C3_3  and  C6_7 
REMARK    2  A    between atoms: C7_9  and  C18_26 
REMARK    3  A    between atoms: C7_9  and  C19_30 
REMARK    4  A    between atoms: N4_15  and  C12_18 
ROOT
ATOM      1  C6  <0> d           3.994   1.760  -1.528  0.00  0.00     0.115 C 
ATOM      2  N2  <0> d           5.085   1.113  -1.002  0.00  0.00    -0.347 N 
ATOM      3  C7  <0> d           6.380   1.812  -1.005  0.00  0.00     0.264 C 
ATOM      4  C8  <0> d           6.125   3.257  -0.661  0.00  0.00     0.101 A 
ATOM      5  C9  <0> d           7.118   4.043  -0.069  0.00  0.00     0.262 A 
ATOM      6  N3  <0> d           6.856   5.335   0.218  0.00  0.00    -0.274 N 
ATOM      7  C10 <0> d           5.658   5.875  -0.068  0.00  0.00     0.335 A 
ATOM      8  O1  <0> d           5.457   7.045   0.193  0.00  0.00    -0.246 OA
ATOM      9  N4  <0> d           4.678   5.149  -0.637  0.00  0.00    -0.248 N 
ATOM     10  C11 <0> d           4.889   3.817  -0.937  0.00  0.00     0.133 A 
ATOM     11  N5  <0> d           3.911   3.073  -1.474  0.00  0.00    -0.327 N 
ATOM     12  O2  <0> d           8.211   3.566   0.186  0.00  0.00    -0.267 OA
ATOM     13  H5  <0> d           3.121   3.513  -1.827  0.00  0.00     0.169 HD
ATOM     14  H10 <0> d           7.540   5.881   0.635  0.00  0.00     0.173 HD
ATOM     15  H11 <0> d           5.003   0.218  -0.636  0.00  0.00     0.162 HD
ENDROOT
BRANCH   3  16
ATOM     16  C18 <0> d           7.018   1.713  -2.392  0.00  0.00     0.426 C 
ATOM     17  F1  <0> d           6.172   2.303  -3.337  0.00  0.00    -0.168 F 
ATOM     18  F2  <0> d           8.248   2.379  -2.388  0.00  0.00    -0.168 F 
ATOM     19  F3  <0> d           7.217   0.368  -2.720  0.00  0.00    -0.168 F 
ENDBRANCH   3  16
BRANCH   3  20
ATOM     20  C19 <0> d           7.308   1.187   0.038  0.00  0.00     0.426 C 
ATOM     21  F4  <0> d           7.256  -0.207  -0.066  0.00  0.00    -0.168 F 
ATOM     22  F5  <0> d           8.619   1.622  -0.183  0.00  0.00    -0.168 F 
ATOM     23  F6  <0> d           6.899   1.574   1.319  0.00  0.00    -0.168 F 
ENDBRANCH   3  20
BRANCH   1  24
ATOM     24  C3  <0> d           2.912   0.981  -2.162  0.00  0.00     0.025 A 
ATOM     25  C2  <0> d           1.592   1.449  -2.146  0.00  0.00     0.018 A 
ATOM     26  C1  <0> d           0.616   0.681  -2.755  0.00  0.00     0.020 A 
ATOM     27  C5  <0> d           0.971  -0.514  -3.355  0.00  0.00     0.116 A 
ATOM     28  N1  <0> d           2.223  -0.931  -3.356  0.00  0.00    -0.272 NA
ATOM     29  C4  <0> d           3.188  -0.236  -2.790  0.00  0.00     0.131 A 
ENDBRANCH   1  24
BRANCH   9  30
ATOM     30  C12 <0> d           3.443   5.745  -0.924  0.00  0.00     0.045 A 
ATOM     31  C17 <0> d           2.423   5.720   0.018  0.00  0.00     0.032 A 
ATOM     32  C16 <0> d           1.208   6.314  -0.266  0.00  0.00     0.026 A 
ATOM     33  C15 <0> d           1.003   6.921  -1.492  0.00  0.00     0.034 A 
ATOM     34  C14 <0> d           2.016   6.942  -2.435  0.00  0.00     0.026 A 
ATOM     35 Cl1  <0> d          -0.527   7.660  -1.848  0.00  0.00    -0.084 Cl
ATOM     36  C13 <0> d           3.235   6.355  -2.154  0.00  0.00     0.032 A 
ENDBRANCH   9  30
TORSDOF 4
