REMARK  6 active torsions:
REMARK  status: ('A' for Active; 'I' for Inactive)
REMARK    1  A    between atoms: C7_7  and  N1_8 
REMARK       I    between atoms: N1_8  and  C8_9 
REMARK    2  A    between atoms: C8_9  and  C9_11 
REMARK    3  A    between atoms: C9_11  and  C10_12 
REMARK    4  A    between atoms: C9_11  and  N2_15 
REMARK    5  A    between atoms: N2_15  and  S1_16 
REMARK    6  A    between atoms: S1_16  and  C13_19 
REMARK       I    between atoms: N3_27  and  C21_28 
ROOT
ATOM      1  N2  <0> d           0.807   0.272  -2.533  0.00  0.00    -0.301 N 
ATOM      2  H18 <0> d           0.247  -0.048  -3.258  0.00  0.00     0.173 HD
ENDROOT
BRANCH   1   3
ATOM      3  C9  <0> d           0.980  -0.542  -1.327  0.00  0.00     0.188 C 
BRANCH   3   4
ATOM      4  C8  <0> d           1.704  -1.816  -1.680  0.00  0.00     0.245 C 
ATOM      5  N1  <0> d           2.321  -2.529  -0.718  0.00  0.00    -0.325 N 
ATOM      6  H10 <0> d           2.250  -2.256   0.210  0.00  0.00     0.169 HD
ATOM      7  O1  <0> d           1.730  -2.199  -2.831  0.00  0.00    -0.271 OA
BRANCH   5   8
ATOM      8  C7  <0> d           3.067  -3.664  -1.057  0.00  0.00     0.040 A 
ATOM      9  C2  <0> d           4.152  -4.042  -0.278  0.00  0.00    -0.035 A 
ATOM     10  C1  <0> d           4.529  -3.231   0.935  0.00  0.00     0.050 C 
ATOM     11  C3  <0> d           4.886  -5.163  -0.616  0.00  0.00     0.009 A 
ATOM     12  C4  <0> d           4.540  -5.908  -1.728  0.00  0.00     0.001 A 
ATOM     13  C5  <0> d           3.459  -5.534  -2.506  0.00  0.00     0.002 A 
ATOM     14  C6  <0> d           2.719  -4.417  -2.171  0.00  0.00     0.030 A 
ENDBRANCH   5   8
ENDBRANCH   3   4
BRANCH   3  15
ATOM     15  C10 <0> d          -0.392  -0.881  -0.740  0.00  0.00     0.010 C 
ATOM     16  C11 <0> d          -1.250  -1.561  -1.809  0.00  0.00     0.012 C 
ATOM     17  C12 <0> d          -1.080   0.404  -0.275  0.00  0.00     0.012 C 
ENDBRANCH   3  15
ENDBRANCH   1   3
BRANCH   1  18
ATOM     18  S1  <0> d           1.567   1.738  -2.658  0.00  0.00     0.259 S 
ATOM     19  O2  <0> d           1.220   2.268  -3.929  0.00  0.00    -0.201 OA
ATOM     20  O3  <0> d           1.310   2.433  -1.446  0.00  0.00    -0.201 OA
BRANCH  18  21
ATOM     21  C13 <0> d           3.300   1.423  -2.700  0.00  0.00     0.080 A 
ATOM     22  C18 <0> d           4.027   1.385  -1.524  0.00  0.00     0.034 A 
ATOM     23  C17 <0> d           5.385   1.133  -1.556  0.00  0.00    -0.028 A 
ATOM     24  C16 <0> d           6.034   0.928  -2.763  0.00  0.00     0.044 A 
ATOM     25  C19 <0> d           6.401   1.033  -0.440  0.00  0.00     0.066 A 
ATOM     26  C15 <0> d           5.295   0.974  -3.946  0.00  0.00     0.032 A 
ATOM     27  N3  <0> d           7.401   0.697  -2.580  0.00  0.00    -0.313 N 
ATOM     28  C14 <0> d           3.939   1.221  -3.910  0.00  0.00     0.027 A 
ATOM     29  C20 <0> d           7.731   0.742  -1.153  0.00  0.00     0.093 A 
ATOM     30  C21 <0> d           8.285   0.465  -3.571  0.00  0.00     0.220 C 
ATOM     31  C23 <0> d           8.738   1.861  -0.876  0.00  0.00     0.033 C 
ATOM     32  O4  <0> d           9.453   0.274  -3.308  0.00  0.00    -0.273 OA
ATOM     33  C22 <0> d           7.821   0.444  -5.004  0.00  0.00     0.117 C 
ENDBRANCH  18  21
ENDBRANCH   1  18
TORSDOF 6
