REMARK  4 active torsions:
REMARK  status: ('A' for Active; 'I' for Inactive)
REMARK    1  A    between atoms: C2_2  and  C3_3 
REMARK    2  A    between atoms: C2_2  and  O2_23 
REMARK    3  A    between atoms: N1_5  and  C5_8 
REMARK       I    between atoms: N4_11  and  C10_14 
REMARK    4  A    between atoms: C10_14  and  C11_16 
ROOT
ATOM      1  C5  <0> d           2.015  -3.920   3.952  0.00  0.00     0.114 C 
ATOM      2  C6  <0> d           0.832  -4.875   3.780  0.00  0.00     0.047 C 
ATOM      3  C7  <0> d           0.526  -5.549   5.121  0.00  0.00     0.128 C 
ATOM      4  N4  <0> d           0.319  -4.509   6.138  0.00  0.00    -0.351 N 
ATOM      5  C8  <0> d           1.356  -3.485   6.322  0.00  0.00     0.128 C 
ATOM      6  C9  <0> d           1.653  -2.833   4.968  0.00  0.00     0.047 C 
ATOM      7  C10 <0> d          -0.802  -4.493   6.886  0.00  0.00     0.228 C 
ATOM      8  O1  <0> d          -0.925  -3.679   7.777  0.00  0.00    -0.273 OA
ENDROOT
BRANCH   1   9
ATOM      9  N1  <0> d           2.332  -3.297   2.664  0.00  0.00    -0.256 N 
ATOM     10  C4  <0> d           1.437  -2.950   1.711  0.00  0.00     0.146 A 
ATOM     11  C3  <0> d           2.155  -2.413   0.697  0.00  0.00     0.103 A 
ATOM     12  N3  <0> d           3.438  -2.463   1.073  0.00  0.00    -0.133 NA
ATOM     13  N2  <0> d           3.509  -2.987   2.245  0.00  0.00    -0.066 NA
BRANCH  11  14
ATOM     14  C2  <0> d           1.617  -1.871  -0.602  0.00  0.00     0.169 C 
ATOM     15  C1  <0> d           2.102  -0.433  -0.795  0.00  0.00     0.046 C 
BRANCH  14  16
ATOM     16  O2  <0> d           0.188  -1.891  -0.571  0.00  0.00    -0.390 OA
ATOM     17  H28 <0> d          -0.197  -1.362   0.141  0.00  0.00     0.210 HD
ENDBRANCH  14  16
ENDBRANCH  11  14
ENDBRANCH   1   9
BRANCH   7  18
ATOM     18  C11 <0> d          -1.902  -5.487   6.616  0.00  0.00     0.037 C 
ATOM     19  C16 <0> d          -3.068  -5.230   7.573  0.00  0.00     0.019 C 
ATOM     20  C15 <0> d          -2.586  -5.382   9.017  0.00  0.00     0.001 C 
ATOM     21  C14 <0> d          -2.055  -6.801   9.231  0.00  0.00     0.000 C 
ATOM     22  C13 <0> d          -0.889  -7.058   8.274  0.00  0.00     0.001 C 
ATOM     23  C12 <0> d          -1.371  -6.906   6.830  0.00  0.00     0.019 C 
ATOM     24  C17 <0> d          -2.384  -5.335   5.172  0.00  0.00     0.025 C 
ENDBRANCH   7  18
TORSDOF 4
