REMARK  7 active torsions:
REMARK  status: ('A' for Active; 'I' for Inactive)
REMARK    1  A    between atoms: N1_2  and  C3_4 
REMARK    2  A    between atoms: C3_4  and  C4_5 
REMARK    3  A    between atoms: C3_4  and  C13_20 
REMARK    4  A    between atoms: C4_5  and  N2_6 
REMARK    5  A    between atoms: N2_6  and  S1_7 
REMARK    6  A    between atoms: S1_7  and  C5_10 
REMARK    7  A    between atoms: C16_23  and  O4_26 
ROOT
ATOM      1  N2  <0> d          -2.826  -2.075   0.872  0.00  0.00    -0.313 N 
ATOM      2  H10 <0> d          -3.482  -1.380   1.040  0.00  0.00     0.172 HD
ENDROOT
BRANCH   1   3
ATOM      3  C4  <0> d          -1.424  -1.719   0.641  0.00  0.00     0.170 C 
BRANCH   3   4
ATOM      4  C3  <0> d          -1.321  -0.222   0.342  0.00  0.00     0.238 C 
BRANCH   4   5
ATOM      5  N1  <0> d           0.094   0.157   0.223  0.00  0.00    -0.069 N 
ATOM      6  C1  <0> d           0.191   1.585  -0.112  0.00  0.00     0.270 C 
ATOM      7  C2  <0> d           0.777  -0.095   1.498  0.00  0.00     0.270 C 
ATOM      8  H24 <0> d           0.528  -0.389  -0.505  0.00  0.00     0.279 HD
ENDBRANCH   4   5
BRANCH   4   9
ATOM      9  C13 <0> d          -2.033   0.083  -0.950  0.00  0.00    -0.026 A 
ATOM     10  C18 <0> d          -3.311   0.612  -0.926  0.00  0.00     0.012 A 
ATOM     11  C17 <0> d          -3.964   0.897  -2.109  0.00  0.00     0.037 A 
ATOM     12  C16 <0> d          -3.341   0.643  -3.322  0.00  0.00     0.068 A 
ATOM     13  C15 <0> d          -2.062   0.108  -3.344  0.00  0.00     0.037 A 
ATOM     14  C14 <0> d          -1.411  -0.171  -2.158  0.00  0.00     0.012 A 
BRANCH  12  15
ATOM     15  O4  <0> d          -3.984   0.919  -4.488  0.00  0.00    -0.356 OA
ATOM     16  C19 <0> d          -5.299   1.469  -4.389  0.00  0.00     0.210 C 
ENDBRANCH  12  15
ENDBRANCH   4   9
ENDBRANCH   3   4
ENDBRANCH   1   3
BRANCH   1  17
ATOM     17  S1  <0> d          -3.291  -3.664   0.849  0.00  0.00     0.258 S 
ATOM     18  O1  <0> d          -4.684  -3.684   1.130  0.00  0.00    -0.201 OA
ATOM     19  O2  <0> d          -2.744  -4.230  -0.334  0.00  0.00    -0.201 OA
BRANCH  17  20
ATOM     20  C5  <0> d          -2.493  -4.461   2.203  0.00  0.00     0.080 A 
ATOM     21  C10 <0> d          -3.112  -4.512   3.440  0.00  0.00     0.035 A 
ATOM     22  C9  <0> d          -2.487  -5.139   4.495  0.00  0.00    -0.021 A 
ATOM     23  C8  <0> d          -1.234  -5.716   4.338  0.00  0.00     0.041 A 
ATOM     24  C11 <0> d          -2.883  -5.367   5.935  0.00  0.00     0.144 A 
ATOM     25  C7  <0> d          -0.615  -5.657   3.090  0.00  0.00     0.031 A 
ATOM     26  N3  <0> d          -0.809  -6.282   5.540  0.00  0.00    -0.326 N 
ATOM     27  C6  <0> d          -1.245  -5.032   2.034  0.00  0.00     0.027 A 
ATOM     28  C12 <0> d          -1.711  -6.124   6.524  0.00  0.00     0.226 A 
ATOM     29  H16 <0> d           0.040  -6.738   5.653  0.00  0.00     0.169 HD
ATOM     30  O3  <0> d          -1.606  -6.513   7.668  0.00  0.00    -0.273 OA
ENDBRANCH  17  20
ENDBRANCH   1  17
TORSDOF 7
