REMARK  7 active torsions:
REMARK  status: ('A' for Active; 'I' for Inactive)
REMARK    1  A    between atoms: C3_3  and  C7_8 
REMARK    2  A    between atoms: C7_8  and  C8_9 
REMARK    3  A    between atoms: C8_9  and  C18_23 
REMARK    4  A    between atoms: N1_13  and  C13_15 
REMARK    5  A    between atoms: C13_15  and  C14_16 
REMARK    6  A    between atoms: C16_19  and  N4_22 
REMARK    7  A    between atoms: C18_23  and  O1_24 
ROOT
ATOM      1  C8  <0> d          -0.756   1.594  -1.230  0.00  0.00     0.009 C 
ATOM      2  C9  <0> d          -0.013   1.086   0.008  0.00  0.00     0.015 C 
ATOM      3  C10 <0> d          -0.732   1.581   1.266  0.00  0.00     0.029 C 
ATOM      4  C11 <0> d          -2.185   1.096   1.239  0.00  0.00     0.235 C 
ATOM      5  N1  <0> d          -2.852   1.610   0.036  0.00  0.00    -0.066 N 
ATOM      6  C12 <0> d          -2.207   1.109  -1.184  0.00  0.00     0.247 C 
ATOM      7  H24 <0> d          -2.756   2.705   0.042  0.00  0.00     0.280 HD
ENDROOT
BRANCH   1   8
ATOM      8  C7  <0> d          -0.077   1.054  -2.491  0.00  0.00     0.052 C 
BRANCH   8   9
ATOM      9  C3  <0> d           1.353   1.529  -2.534  0.00  0.00    -0.056 A 
ATOM     10  C2  <0> d           1.667   2.720  -3.160  0.00  0.00     0.007 A 
ATOM     11  C1  <0> d           2.978   3.158  -3.196  0.00  0.00     0.002 A 
ATOM     12  C6  <0> d           3.977   2.400  -2.614  0.00  0.00     0.024 A 
ATOM     13  C5  <0> d           3.663   1.204  -1.991  0.00  0.00     0.034 A 
ATOM     14  C4  <0> d           2.350   0.769  -1.951  0.00  0.00     0.031 A 
ATOM     15 Cl1  <0> d           4.916   0.251  -1.260  0.00  0.00    -0.084 Cl
ENDBRANCH   8   9
ENDBRANCH   1   8
BRANCH   1  16
ATOM     16  C18 <0> d          -0.729   3.124  -1.250  0.00  0.00     0.175 C 
BRANCH  16  17
ATOM     17  O1  <0> d           0.626   3.576  -1.289  0.00  0.00    -0.400 OA
ATOM     18  H23 <0> d           0.846   4.654  -1.308  0.00  0.00     0.209 HD
ENDBRANCH  16  17
ENDBRANCH   1  16
BRANCH   5  19
ATOM     19  C13 <0> d          -4.284   1.280   0.048  0.00  0.00     0.276 C 
BRANCH  19  20
ATOM     20  C14 <0> d          -4.859   1.585   1.406  0.00  0.00     0.004 A 
ATOM     21  C17 <0> d          -5.387   2.836   1.687  0.00  0.00     0.146 A 
ATOM     22  N3  <0> d          -5.885   3.071   2.890  0.00  0.00    -0.075 NA
ATOM     23  C16 <0> d          -5.882   2.128   3.820  0.00  0.00     0.719 A 
ATOM     24  N2  <0> d          -5.385   0.922   3.584  0.00  0.00    -0.075 NA
ATOM     25  C15 <0> d          -4.877   0.620   2.401  0.00  0.00     0.146 A 
BRANCH  23  26
ATOM     26  N4  <0> d          -6.411   2.408   5.068  0.00  0.00    -0.231 N 
ATOM     27  H19 <0> d          -6.826   3.405   5.278  0.00  0.00     0.174 HD
ATOM     28  H20 <0> d          -6.415   1.635   5.850  0.00  0.00     0.174 HD
ENDBRANCH  23  26
ENDBRANCH  19  20
ENDBRANCH   5  19
TORSDOF 7
