REMARK  2 active torsions:
REMARK  status: ('A' for Active; 'I' for Inactive)
REMARK    1  A    between atoms: C3_3  and  C8_9 
REMARK    2  A    between atoms: C8_9  and  N2_10 
ROOT
ATOM      1  C1  <0> d           2.786   5.109  -6.204  0.00  0.00     0.002 A 
ATOM      2  C2  <0> d           2.919   5.401  -4.857  0.00  0.00     0.009 A 
ATOM      3  C3  <0> d           2.322   6.531  -4.326  0.00  0.00    -0.031 A 
ATOM      4  C4  <0> d           1.599   7.380  -5.138  0.00  0.00     0.031 A 
ATOM      5  C5  <0> d           1.465   7.094  -6.498  0.00  0.00     0.045 A 
ATOM      6  C6  <0> d           2.066   5.949  -7.027  0.00  0.00     0.022 A 
ATOM      7  C7  <0> d           0.717   7.971  -7.347  0.00  0.00     0.099 C 
ATOM      8  N1  <0> d           0.123   8.667  -8.021  0.00  0.00    -0.191 NA
ENDROOT
BRANCH   3   9
ATOM      9  C8  <0> d           2.468   6.838  -2.858  0.00  0.00     0.273 C 
BRANCH   9  10
ATOM     10  N2  <0> d           1.366   6.213  -2.115  0.00  0.00    -0.067 N 
ATOM     11  C13 <0> d           1.158   4.826  -2.550  0.00  0.00     0.239 C 
ATOM     12  C12 <0> d          -0.086   4.255  -1.864  0.00  0.00     0.084 C 
ATOM     13  C11 <0> d           0.103   4.314  -0.347  0.00  0.00     0.141 C 
ATOM     14  C10 <0> d           0.369   5.760   0.077  0.00  0.00     0.084 C 
ATOM     15  N5  <0> d          -1.126   3.835   0.313  0.00  0.00    -0.169 NA
ATOM     16  N3  <0> d           1.222   3.465   0.049  0.00  0.00    -0.360 N 
ATOM     17  C9  <0> d           1.599   6.287  -0.667  0.00  0.00     0.239 C 
ATOM     18  S1  <0> d          -1.549   2.249   0.011  0.00  0.00     0.284 S 
ATOM     19  C18 <0> d          -0.017   1.371   0.010  0.00  0.00     0.123 A 
ATOM     20  O1  <0> d          -2.058   2.200  -1.315  0.00  0.00    -0.199 OA
ATOM     21  O2  <0> d          -2.287   1.795   1.137  0.00  0.00    -0.199 OA
ATOM     22  C14 <0> d           1.180   2.082   0.002  0.00  0.00     0.056 A 
ATOM     23  C17 <0> d           0.002  -0.004   0.002  0.00  0.00     0.115 A 
ATOM     24  C15 <0> d           2.370   1.351  -0.035  0.00  0.00     0.048 A 
ATOM     25  C16 <0> d           2.309  -0.026  -0.049  0.00  0.00     0.090 A 
ATOM     26  N4  <0> d           1.150  -0.658  -0.027  0.00  0.00    -0.374 N 
ATOM     27  H20 <0> d           1.123  -1.758  -0.033  0.00  0.00     0.164 HD
ATOM     28  H15 <0> d           2.158   3.919   0.408  0.00  0.00     0.162 HD
ATOM     29  H19 <0> d           0.446   6.774  -2.335  0.00  0.00     0.280 HD
ENDBRANCH   9  10
ENDBRANCH   3   9
TORSDOF 2
