REMARK  6 active torsions:
REMARK  status: ('A' for Active; 'I' for Inactive)
REMARK    1  A    between atoms: C6_6  and  O1_8 
REMARK    2  A    between atoms: O1_8  and  C8_9 
REMARK    3  A    between atoms: C8_9  and  C9_10 
REMARK    4  A    between atoms: C9_10  and  C10_11 
REMARK       I    between atoms: C10_11  and  N1_13 
REMARK    5  A    between atoms: N1_13  and  C11_14 
REMARK    6  A    between atoms: C11_14  and  C12_15 
ROOT
ATOM      1  C10 <0> d           0.060  -2.134   6.039  0.00  0.00     0.220 C 
ATOM      2  O2  <0> d           0.043  -0.922   5.984  0.00  0.00    -0.274 OA
ATOM      3  N1  <0> d           0.074  -2.754   7.236  0.00  0.00    -0.354 N 
ATOM      4  H11 <0> d           0.087  -3.723   7.279  0.00  0.00     0.162 HD
ENDROOT
BRANCH   1   5
ATOM      5  C9  <0> d           0.065  -2.946   4.769  0.00  0.00     0.129 C 
BRANCH   5   6
ATOM      6  C8  <0> d           0.046  -2.005   3.563  0.00  0.00     0.185 C 
BRANCH   6   7
ATOM      7  O1  <0> d           0.051  -2.775   2.359  0.00  0.00    -0.351 OA
BRANCH   7   8
ATOM      8  C6  <0> d           0.036  -2.088   1.187  0.00  0.00     0.069 A 
ATOM      9  C5  <0> d           0.040  -2.772  -0.020  0.00  0.00     0.043 A 
ATOM     10  C4  <0> d           0.025  -2.071  -1.210  0.00  0.00    -0.059 A 
ATOM     11  C3  <0> d           0.006  -0.688  -1.200  0.00  0.00     0.013 A 
ATOM     12  C15 <0> d           0.029  -2.813  -2.522  0.00  0.00     0.048 C 
ATOM     13  C2  <0> d           0.002  -0.004   0.002  0.00  0.00    -0.059 A 
ATOM     14  C1  <0> d          -0.018   1.503   0.010  0.00  0.00     0.048 C 
ATOM     15  C7  <0> d           0.023  -0.701   1.195  0.00  0.00     0.043 A 
ENDBRANCH   7   8
ENDBRANCH   6   7
ENDBRANCH   5   6
ENDBRANCH   1   5
BRANCH   3  16
ATOM     16  C11 <0> d           0.069  -1.964   8.470  0.00  0.00     0.203 C 
BRANCH  16  17
ATOM     17  C12 <0> d           0.087  -2.891   9.658  0.00  0.00     0.146 A 
ATOM     18  N4  <0> d           0.088  -2.501  10.975  0.00  0.00    -0.312 N 
ATOM     19  C13 <0> d           0.102  -3.607  11.745  0.00  0.00     0.195 A 
ATOM     20  C14 <0> d           0.071  -1.119  11.460  0.00  0.00     0.160 C 
ATOM     21  N3  <0> d           0.120  -4.674  10.918  0.00  0.00    -0.251 N 
ATOM     22  S1  <0> d           0.105  -3.651  13.457  0.00  0.00    -0.039 SA
ATOM     23  N2  <0> d           0.110  -4.184   9.605  0.00  0.00    -0.157 NA
ATOM     24  H17 <0> d           0.137  -5.607  11.184  0.00  0.00     0.191 HD
ENDBRANCH  16  17
ENDBRANCH   3  16
TORSDOF 6
