REMARK  4 active torsions:
REMARK  status: ('A' for Active; 'I' for Inactive)
REMARK    1  A    between atoms: N1_3  and  C6_9 
REMARK    2  A    between atoms: C6_9  and  C7_10 
REMARK    3  A    between atoms: C7_10  and  C8_11 
REMARK    4  A    between atoms: C8_11  and  C9_12 
ROOT
ATOM      1  C9  <0> d           4.156   6.316   0.099  0.00  0.00     0.124 C 
ATOM      2  C10 <0> d           5.455   6.992  -0.056  0.00  0.00     0.059 C 
ATOM      3  N3  <0> d           6.457   7.514  -0.176  0.00  0.00    -0.197 NA
ENDROOT
BRANCH   1   4
ATOM      4  C8  <0> d           4.380   4.896   0.622  0.00  0.00     0.016 C 
BRANCH   4   5
ATOM      5  C7  <0> d           3.031   4.193   0.783  0.00  0.00     0.029 C 
BRANCH   5   6
ATOM      6  C6  <0> d           3.254   2.773   1.306  0.00  0.00     0.235 C 
BRANCH   6   7
ATOM      7  N1  <0> d           1.957   2.145   1.588  0.00  0.00    -0.069 N 
ATOM      8  C2  <0> d           1.242   1.985   0.332  0.00  0.00     0.244 C 
ATOM      9  C1  <0> d          -0.213   1.575   0.580  0.00  0.00     0.130 C 
ATOM     10  C5  <0> d          -0.262   0.070   0.744  0.00  0.00     0.219 C 
ATOM     11  N2  <0> d           0.264  -0.498   1.833  0.00  0.00    -0.359 N 
ATOM     12  O1  <0> d          -0.778  -0.619  -0.111  0.00  0.00    -0.274 OA
ATOM     13  C4  <0> d           0.886   0.340   2.873  0.00  0.00     0.150 C 
ATOM     14  H9  <0> d           0.238  -1.462   1.939  0.00  0.00     0.162 HD
ATOM     15  C3  <0> d           2.193   0.911   2.319  0.00  0.00     0.254 C 
ATOM     16  H18 <0> d           1.427   2.768   2.179  0.00  0.00     0.280 HD
ENDBRANCH   6   7
ENDBRANCH   5   6
ENDBRANCH   4   5
ENDBRANCH   1   4
TORSDOF 4
