REMARK  2 active torsions:
REMARK  status: ('A' for Active; 'I' for Inactive)
REMARK       I    between atoms: N2_12  and  C13_21 
REMARK    1  A    between atoms: C10_14  and  N4_16 
REMARK    2  A    between atoms: N4_16  and  N5_17 
REMARK       I    between atoms: N5_17  and  C11_18 
ROOT
ATOM      1  C1  <0> d          -8.830  -1.281   4.707  0.00  0.00     0.048 C 
ATOM      2  C2  <0> d          -8.815   0.186   4.364  0.00  0.00    -0.061 A 
ATOM      3  C3  <0> d          -9.905   0.981   4.669  0.00  0.00     0.009 A 
ATOM      4  C4  <0> d          -9.897   2.324   4.357  0.00  0.00     0.031 A 
ATOM      5  C5  <0> d          -8.790   2.892   3.732  0.00  0.00     0.045 A 
ATOM      6  C6  <0> d          -7.696   2.083   3.430  0.00  0.00     0.019 A 
ATOM      7  C7  <0> d          -7.710   0.742   3.744  0.00  0.00     0.020 A 
ATOM      8  C8  <0> d          -6.699   2.988   2.778  0.00  0.00     0.224 A 
ATOM      9  C9  <0> d          -7.333   4.343   2.748  0.00  0.00     0.268 A 
ATOM     10  O1  <0> d          -6.852   5.362   2.297  0.00  0.00    -0.269 OA
ATOM     11  N1  <0> d          -8.547   4.206   3.321  0.00  0.00    -0.323 N 
ATOM     12  N2  <0> d          -6.255   2.521   1.466  0.00  0.00    -0.201 N 
ATOM     13  N3  <0> d          -4.898   2.274   1.366  0.00  0.00    -0.140 NA
ATOM     14  C10 <0> d          -4.073   2.443   2.361  0.00  0.00     0.203 A 
ATOM     15  S1  <0> d          -5.121   3.004   3.696  0.00  0.00    -0.040 SA
ATOM     16  C13 <0> d          -7.101   2.346   0.434  0.00  0.00     0.238 C 
ATOM     17  O3  <0> d          -8.284   2.577   0.574  0.00  0.00    -0.272 OA
ATOM     18  C14 <0> d          -6.579   1.862  -0.894  0.00  0.00     0.119 C 
ATOM     19  H7  <0> d          -9.178   4.934   3.435  0.00  0.00     0.169 HD
ENDROOT
BRANCH  14  20
ATOM     20  N4  <0> d          -2.705   2.230   2.381  0.00  0.00    -0.274 N 
ATOM     21  H8  <0> d          -2.201   2.394   3.193  0.00  0.00     0.189 HD
BRANCH  20  22
ATOM     22  N5  <0> d          -2.050   1.778   1.228  0.00  0.00    -0.268 N 
ATOM     23  C11 <0> d          -0.718   1.572   1.248  0.00  0.00     0.232 C 
ATOM     24  O2  <0> d          -0.087   1.777   2.263  0.00  0.00    -0.272 OA
ATOM     25  C12 <0> d          -0.013   1.086   0.008  0.00  0.00     0.119 C 
ATOM     26  H9  <0> d          -2.554   1.615   0.416  0.00  0.00     0.190 HD
ENDBRANCH  20  22
ENDBRANCH  14  20
TORSDOF 2
