REMARK  5 active torsions:
REMARK  status: ('A' for Active; 'I' for Inactive)
REMARK    1  A    between atoms: O1_2  and  C2_3 
REMARK    2  A    between atoms: C2_3  and  C3_4 
REMARK    3  A    between atoms: C3_4  and  N1_5 
REMARK    4  A    between atoms: C6_9  and  C17_25 
REMARK    5  A    between atoms: C17_25  and  C18_26 
ROOT
ATOM      1  N1  <0> d           1.401  -2.532  -0.162  0.00  0.00    -0.286 N 
ATOM      2  C4  <0> d           0.862  -2.673  -1.410  0.00  0.00     0.233 C 
ATOM      3  O2  <0> d          -0.194  -2.228  -1.805  0.00  0.00    -0.272 OA
ATOM      4  C5  <0> d           1.851  -3.494  -2.191  0.00  0.00     0.128 C 
ATOM      5  C6  <0> d           2.178  -3.096  -3.636  0.00  0.00     0.240 C 
ATOM      6  N2  <0> d           3.631  -3.452  -3.755  0.00  0.00     0.114 N 
ATOM      7  C7  <0> d           4.225  -3.365  -2.385  0.00  0.00     0.279 A 
ATOM      8  C8  <0> d           3.141  -2.878  -1.515  0.00  0.00     0.147 C 
ATOM      9  C9  <0> d           2.742  -2.824  -0.127  0.00  0.00     0.235 C 
ATOM     10  O3  <0> d           3.437  -3.000   0.850  0.00  0.00    -0.272 OA
ATOM     11  C10 <0> d           4.752  -4.717  -1.980  0.00  0.00     0.019 A 
ATOM     12  C11 <0> d           4.152  -5.938  -1.766  0.00  0.00     0.013 A 
ATOM     13  C12 <0> d           4.915  -7.029  -1.389  0.00  0.00     0.002 A 
ATOM     14  C13 <0> d           6.281  -6.890  -1.228  0.00  0.00     0.026 A 
ATOM     15  C14 <0> d           6.887  -5.668  -1.443  0.00  0.00     0.061 A 
ATOM     16  C15 <0> d           6.125  -4.565  -1.823  0.00  0.00     0.066 A 
ATOM     17  N3  <0> d           6.499  -3.247  -2.094  0.00  0.00    -0.323 N 
ATOM     18  C16 <0> d           5.447  -2.479  -2.430  0.00  0.00     0.267 A 
ATOM     19  O4  <0> d           5.474  -1.301  -2.716  0.00  0.00    -0.270 OA
ATOM     20 Cl1  <0> d           8.604  -5.506  -1.239  0.00  0.00    -0.082 Cl
ATOM     21  H11 <0> d           3.746  -4.377  -4.141  0.00  0.00     0.318 HD
ATOM     22  H15 <0> d           7.411  -2.922  -2.044  0.00  0.00     0.169 HD
ENDROOT
BRANCH   5  23
ATOM     23  C17 <0> d           1.964  -1.596  -3.847  0.00  0.00     0.073 C 
BRANCH  23  24
ATOM     24  C18 <0> d           2.175  -1.258  -5.301  0.00  0.00    -0.048 A 
ATOM     25  C25 <0> d           3.491  -0.959  -5.983  0.00  0.00     0.155 A 
ATOM     26  N4  <0> d           3.164  -0.697  -7.389  0.00  0.00    -0.385 N 
ATOM     27  C24 <0> d           1.867  -0.807  -7.545  0.00  0.00     0.038 A 
ATOM     28  H24 <0> d           3.801  -0.475  -8.087  0.00  0.00     0.160 HD
ATOM     29  C19 <0> d           1.224  -1.157  -6.258  0.00  0.00    -0.006 A 
ATOM     30  C23 <0> d           1.034  -0.653  -8.687  0.00  0.00     0.030 A 
ATOM     31  C20 <0> d          -0.234  -1.324  -6.233  0.00  0.00     0.014 A 
ATOM     32  C21 <0> d          -0.933  -1.155  -7.378  0.00  0.00     0.001 A 
ATOM     33  C22 <0> d          -0.301  -0.824  -8.585  0.00  0.00     0.002 A 
ENDBRANCH  23  24
ENDBRANCH   5  23
BRANCH   1  34
ATOM     34  C3  <0> d           0.633  -2.108   1.011  0.00  0.00     0.161 C 
BRANCH  34  35
ATOM     35  C2  <0> d           0.673  -0.582   1.123  0.00  0.00     0.187 C 
BRANCH  35  36
ATOM     36  O1  <0> d           0.002  -0.004   0.002  0.00  0.00    -0.394 OA
ATOM     37  C1  <0> d          -0.017   1.425   0.010  0.00  0.00     0.201 C 
ENDBRANCH  35  36
ENDBRANCH  34  35
ENDBRANCH   1  34
TORSDOF 5
