REMARK  3 active torsions:
REMARK  status: ('A' for Active; 'I' for Inactive)
REMARK    1  A    between atoms: C12_15  and  C13_17 
REMARK    2  A    between atoms: C13_17  and  O2_19 
REMARK    3  A    between atoms: N3_22  and  C17_25 
ROOT
ATOM      1  C1  <0> d          -0.635   1.246   0.350  0.00  0.00     0.048 C 
ATOM      2  C2  <0> d          -0.480  -0.249   0.249  0.00  0.00    -0.060 A 
ATOM      3  C3  <0> d          -0.374  -0.853  -0.992  0.00  0.00     0.019 A 
ATOM      4  C4  <0> d          -0.232  -2.220  -1.084  0.00  0.00     0.020 A 
ATOM      5  C5  <0> d          -0.192  -3.007   0.063  0.00  0.00     0.066 A 
ATOM      6  C6  <0> d          -0.299  -2.392   1.309  0.00  0.00     0.061 A 
ATOM      7  C7  <0> d          -0.437  -1.021   1.396  0.00  0.00     0.033 A 
ATOM      8 Cl1  <0> d          -0.253  -3.351   2.755  0.00  0.00    -0.082 Cl
ATOM      9  N1  <0> d          -0.043  -4.353  -0.280  0.00  0.00    -0.323 N 
ATOM     10  C8  <0> d           0.022  -4.533  -1.613  0.00  0.00     0.267 A 
ATOM     11  O1  <0> d           0.149  -5.589  -2.197  0.00  0.00    -0.270 OA
ATOM     12  C9  <0> d          -0.095  -3.170  -2.239  0.00  0.00     0.279 A 
ATOM     13  C10 <0> d           1.132  -2.841  -3.098  0.00  0.00     0.147 A 
ATOM     14  C11 <0> d           0.692  -3.171  -4.551  0.00  0.00     0.130 A 
ATOM     15  C12 <0> d          -0.755  -3.692  -4.418  0.00  0.00     0.264 C 
ATOM     16  N2  <0> d          -1.255  -3.092  -3.146  0.00  0.00     0.116 N 
ATOM     17  C15 <0> d           0.691  -1.822  -5.232  0.00  0.00     0.234 A 
ATOM     18  O3  <0> d           0.395  -1.621  -6.390  0.00  0.00    -0.272 OA
ATOM     19  N3  <0> d           1.069  -0.883  -4.356  0.00  0.00    -0.283 N 
ATOM     20  C16 <0> d           1.353  -1.345  -3.117  0.00  0.00     0.235 A 
ATOM     21  O4  <0> d           1.721  -0.679  -2.173  0.00  0.00    -0.272 OA
ATOM     22  H10 <0> d           0.009  -5.074   0.367  0.00  0.00     0.169 HD
ATOM     23  H11 <0> d          -2.034  -3.621  -2.783  0.00  0.00     0.318 HD
ENDROOT
BRANCH  15  24
ATOM     24  C13 <0> d          -1.607  -3.204  -5.592  0.00  0.00     0.148 C 
ATOM     25  C14 <0> d          -1.109  -3.850  -6.886  0.00  0.00     0.041 C 
BRANCH  24  26
ATOM     26  O2  <0> d          -2.972  -3.566  -5.373  0.00  0.00    -0.394 OA
ATOM     27  H15 <0> d          -3.118  -4.518  -5.291  0.00  0.00     0.210 HD
ENDBRANCH  24  26
ENDBRANCH  15  24
BRANCH  19  28
ATOM     28  C17 <0> d           1.173   0.535  -4.711  0.00  0.00     0.096 C 
ATOM     29  C23 <0> d           2.146   0.681  -5.784  0.00  0.00     0.026 C 
ATOM     30  C22 <0> d           2.369   2.156  -6.177  0.00  0.00     0.002 C 
ATOM     31  C21 <0> d           1.242   2.587  -7.076  0.00  0.00     0.000 C 
ATOM     32  C20 <0> d           0.097   3.266  -6.301  0.00  0.00     0.000 C 
ATOM     33  C19 <0> d          -0.231   2.554  -4.974  0.00  0.00     0.002 C 
ATOM     34  C18 <0> d          -0.223   1.055  -5.109  0.00  0.00     0.026 C 
ENDBRANCH  19  28
TORSDOF 3
