REMARK  6 active torsions:
REMARK  status: ('A' for Active; 'I' for Inactive)
REMARK    1  A    between atoms: C4_4  and  C7_7 
REMARK    2  A    between atoms: C7_7  and  C8_8 
REMARK    3  A    between atoms: C8_8  and  C9_9 
REMARK    4  A    between atoms: C10_11  and  C16_20 
REMARK    5  A    between atoms: N2_12  and  C11_14 
REMARK    6  A    between atoms: C21_25  and  C22_26 
ROOT
ATOM      1  C9  <0> d           5.715  -1.670   1.516  0.00  0.00     0.279 C 
ATOM      2  N1  <0> d           6.215  -2.033   2.871  0.00  0.00    -0.031 N 
ATOM      3  C10 <0> d           6.869  -3.343   2.633  0.00  0.00     0.339 C 
ATOM      4  N2  <0> d           6.277  -3.876   1.395  0.00  0.00    -0.259 N 
ATOM      5  N3  <0> d           5.327  -2.986   0.950  0.00  0.00    -0.204 NA
ATOM      6  H13 <0> d           6.885  -1.353   3.199  0.00  0.00     0.282 HD
ATOM      7  H14 <0> d           5.302  -2.953  -0.058  0.00  0.00     0.149 HD
ATOM      8  H24 <0> d           5.450  -2.127   3.522  0.00  0.00     0.282 HD
ENDROOT
BRANCH   3   9
ATOM      9  C16 <0> d           6.593  -4.276   3.784  0.00  0.00     0.007 A 
ATOM     10  C21 <0> d           7.400  -4.241   4.919  0.00  0.00     0.024 A 
ATOM     11  C20 <0> d           7.136  -5.103   5.982  0.00  0.00     0.016 A 
ATOM     12  C19 <0> d           6.086  -5.994   5.901  0.00  0.00     0.001 A 
ATOM     13  C18 <0> d           5.291  -6.028   4.769  0.00  0.00     0.001 A 
ATOM     14  C17 <0> d           5.545  -5.171   3.713  0.00  0.00     0.012 A 
BRANCH  10  15
ATOM     15  C22 <0> d           8.532  -3.285   4.999  0.00  0.00     0.181 A 
ATOM     16  N5  <0> d           9.441  -3.230   5.982  0.00  0.00    -0.221 NA
ATOM     17  C23 <0> d          10.297  -2.273   5.740  0.00  0.00     0.228 A 
ATOM     18  N6  <0> d           9.955  -1.684   4.581  0.00  0.00    -0.270 N 
ATOM     19  H3  <0> d          10.410  -0.943   4.150  0.00  0.00     0.190 HD
ATOM     20  N7  <0> d           8.814  -2.355   4.113  0.00  0.00    -0.153 NA
ENDBRANCH  10  15
ENDBRANCH   3   9
BRANCH   4  21
ATOM     21  C11 <0> d           6.623  -5.072   0.777  0.00  0.00     0.141 A 
ATOM     22  N4  <0> d           7.494  -5.883   1.357  0.00  0.00    -0.242 NA
ATOM     23  C15 <0> d           7.844  -7.030   0.807  0.00  0.00     0.119 A 
ATOM     24  C14 <0> d           7.319  -7.422  -0.408  0.00  0.00     0.019 A 
ATOM     25  C13 <0> d           6.406  -6.598  -1.052  0.00  0.00     0.005 A 
ATOM     26  C12 <0> d           6.054  -5.404  -0.449  0.00  0.00     0.052 A 
ENDBRANCH   4  21
BRANCH   1  27
ATOM     27  C8  <0> d           4.502  -0.742   1.616  0.00  0.00     0.055 C 
BRANCH  27  28
ATOM     28  C7  <0> d           3.973  -0.442   0.212  0.00  0.00     0.042 C 
BRANCH  28  29
ATOM     29  C4  <0> d           2.779   0.472   0.310  0.00  0.00    -0.058 A 
ATOM     30  C3  <0> d           2.954   1.843   0.286  0.00  0.00     0.007 A 
ATOM     31  C2  <0> d           1.858   2.681   0.375  0.00  0.00     0.001 A 
ATOM     32  C1  <0> d           0.587   2.148   0.487  0.00  0.00     0.000 A 
ATOM     33  C6  <0> d           0.412   0.777   0.511  0.00  0.00     0.001 A 
ATOM     34  C5  <0> d           1.508  -0.061   0.424  0.00  0.00     0.007 A 
ENDBRANCH  28  29
ENDBRANCH  27  28
ENDBRANCH   1  27
TORSDOF 6
