REMARK  4 active torsions:
REMARK  status: ('A' for Active; 'I' for Inactive)
REMARK    1  A    between atoms: C4_4  and  N3_15 
REMARK    2  A    between atoms: C7_10  and  C8_11 
REMARK    3  A    between atoms: C8_11  and  O2_13 
REMARK    4  A    between atoms: N3_15  and  C10_16 
ROOT
ATOM      1  C1  <0> d          -3.592   4.725   3.545  0.00  0.00     0.051 C 
ATOM      2  C2  <0> d          -2.773   4.779   4.809  0.00  0.00    -0.022 A 
ATOM      3  C3  <0> d          -1.379   4.662   4.747  0.00  0.00     0.053 A 
ATOM      4  C4  <0> d          -0.536   4.486   3.609  0.00  0.00     0.139 A 
ATOM      5  N1  <0> d           0.771   4.392   3.783  0.00  0.00    -0.224 NA
ATOM      6  C5  <0> d           1.331   4.465   4.977  0.00  0.00     0.236 A 
ATOM      7  N2  <0> d           0.608   4.627   6.068  0.00  0.00    -0.234 NA
ATOM      8  C6  <0> d          -0.703   4.725   5.991  0.00  0.00     0.114 A 
ATOM      9  S1  <0> d          -2.020   4.942   7.160  0.00  0.00    -0.063 SA
ATOM     10  C7  <0> d          -3.387   4.943   6.014  0.00  0.00     0.089 A 
ENDROOT
BRANCH   4  11
ATOM     11  N3  <0> d          -1.080   4.410   2.343  0.00  0.00    -0.369 N 
ATOM     12  H8  <0> d          -2.172   4.372   2.214  0.00  0.00     0.161 HD
BRANCH  11  13
ATOM     13  C10 <0> d          -0.203   4.379   1.169  0.00  0.00     0.086 C 
ATOM     14  C14 <0> d          -0.961   4.910  -0.050  0.00  0.00     0.052 C 
ATOM     15  C13 <0> d          -0.061   4.819  -1.284  0.00  0.00     0.234 C 
ATOM     16  N4  <0> d           0.335   3.421  -1.501  0.00  0.00    -0.075 N 
ATOM     17  C12 <0> d           1.105   2.905  -0.363  0.00  0.00     0.234 C 
ATOM     18  H14 <0> d           0.947   3.367  -2.413  0.00  0.00     0.277 HD
ATOM     19  H19 <0> d          -0.574   2.816  -1.633  0.00  0.00     0.277 HD
ATOM     20  C11 <0> d           0.239   2.939   0.899  0.00  0.00     0.052 C 
ENDBRANCH  11  13
ENDBRANCH   4  11
BRANCH  10  21
ATOM     21  C8  <0> d          -4.818   5.086   6.298  0.00  0.00     0.300 C 
ATOM     22  O1  <0> d          -5.633   4.946   5.406  0.00  0.00    -0.259 OA
BRANCH  21  23
ATOM     23  O2  <0> d          -5.232   5.372   7.550  0.00  0.00    -0.322 OA
ATOM     24  C9  <0> d          -6.663   5.498   7.758  0.00  0.00     0.213 C 
ENDBRANCH  21  23
ENDBRANCH  10  21
TORSDOF 4
