REMARK  7 active torsions:
REMARK  status: ('A' for Active; 'I' for Inactive)
REMARK    1  A    between atoms: C2_2  and  C3_3 
REMARK    2  A    between atoms: C2_2  and  S1_17 
REMARK    3  A    between atoms: C4_5  and  N5_16 
REMARK    4  A    between atoms: C5_7  and  N4_9 
REMARK    5  A    between atoms: N4_9  and  C6_10 
REMARK    6  A    between atoms: S1_17  and  C12_18 
REMARK    7  A    between atoms: C12_18  and  C14_20 
REMARK       I    between atoms: C14_20  and  N6_22 
ROOT
ATOM      1  C3  <0> d          -1.205   0.170   0.410  0.00  0.00     0.177 A 
ATOM      2  N1  <0> d          -1.753   0.580  -0.721  0.00  0.00    -0.045 NA
ATOM      3  C4  <0> d          -3.029   0.308  -0.982  0.00  0.00     0.737 A 
ATOM      4  N2  <0> d          -3.753  -0.376  -0.102  0.00  0.00     0.130 NA
ATOM      5  C5  <0> d          -3.200  -0.786   1.033  0.00  0.00     0.744 A 
ATOM      6  N3  <0> d          -1.921  -0.515   1.284  0.00  0.00    -0.045 NA
ENDROOT
BRANCH   1   7
ATOM      7  C2  <0> d           0.241   0.480   0.700  0.00  0.00     0.116 C 
ATOM      8  C1  <0> d           0.378   1.952   1.093  0.00  0.00     0.029 C 
BRANCH   7   9
ATOM      9  S1  <0> d           1.238   0.153  -0.780  0.00  0.00    -0.143 SA
BRANCH   9  10
ATOM     10  C12 <0> d           1.084  -1.637  -1.026  0.00  0.00     0.135 C 
ATOM     11  C13 <0> d           1.725  -2.372   0.153  0.00  0.00     0.031 C 
BRANCH  10  12
ATOM     12  C14 <0> d           1.783  -2.031  -2.302  0.00  0.00     0.229 C 
ATOM     13  O1  <0> d           2.683  -1.344  -2.737  0.00  0.00    -0.272 OA
ATOM     14  N6  <0> d           1.408  -3.146  -2.959  0.00  0.00    -0.369 N 
ATOM     15  H17 <0> d           0.688  -3.695  -2.611  0.00  0.00     0.159 HD
ATOM     16  H18 <0> d           1.858  -3.399  -3.781  0.00  0.00     0.159 HD
ENDBRANCH  10  12
ENDBRANCH   9  10
ENDBRANCH   7   9
ENDBRANCH   1   7
BRANCH   5  17
ATOM     17  N4  <0> d          -3.948  -1.498   1.950  0.00  0.00    -0.188 N 
ATOM     18  H6  <0> d          -3.566  -1.733   2.810  0.00  0.00     0.184 HD
BRANCH  17  19
ATOM     19  C6  <0> d          -5.257  -1.878   1.639  0.00  0.00     0.049 A 
ATOM     20  C11 <0> d          -6.218  -1.950   2.640  0.00  0.00     0.030 A 
ATOM     21  C10 <0> d          -7.511  -2.321   2.329  0.00  0.00     0.002 A 
ATOM     22  C9  <0> d          -7.848  -2.632   1.024  0.00  0.00     0.000 A 
ATOM     23  C8  <0> d          -6.892  -2.567   0.026  0.00  0.00     0.002 A 
ATOM     24  C7  <0> d          -5.599  -2.191   0.330  0.00  0.00     0.030 A 
ENDBRANCH  17  19
ENDBRANCH   5  17
BRANCH   3  25
ATOM     25  N5  <0> d          -3.600   0.737  -2.162  0.00  0.00    -0.230 N 
ATOM     26  H12 <0> d          -3.071   1.237  -2.804  0.00  0.00     0.174 HD
ATOM     27  H13 <0> d          -4.531   0.538  -2.351  0.00  0.00     0.174 HD
ENDBRANCH   3  25
TORSDOF 7
