REMARK  4 active torsions:
REMARK  status: ('A' for Active; 'I' for Inactive)
REMARK    1  A    between atoms: C5_5  and  C8_8 
REMARK    2  A    between atoms: C8_8  and  C9_9 
REMARK    3  A    between atoms: N2_12  and  C12_15 
REMARK    4  A    between atoms: C11_13  and  O1_14 
ROOT
ATOM      1  C9  <0> d           1.487  -4.759  -0.032  0.00  0.00    -0.008 A 
ATOM      2  C10 <0> d           2.205  -5.110   1.015  0.00  0.00     0.023 A 
ATOM      3  N1  <0> d           3.477  -5.506   0.653  0.00  0.00    -0.317 N 
ATOM      4  N2  <0> d           3.650  -5.428  -0.699  0.00  0.00    -0.157 NA
ATOM      5  C11 <0> d           2.368  -4.942  -1.248  0.00  0.00     0.248 A 
ATOM      6  C19 <0> d           1.700  -5.082   2.435  0.00  0.00     0.069 C 
ATOM      7  H11 <0> d           4.159  -5.801   1.278  0.00  0.00     0.181 HD
ENDROOT
BRANCH   4   8
ATOM      8  C12 <0> d           4.752  -4.517  -1.037  0.00  0.00     0.285 A 
ATOM      9  N4  <0> d           4.465  -3.169  -0.530  0.00  0.00    -0.353 N 
ATOM     10  C18 <0> d           4.426  -2.367  -1.555  0.00  0.00     0.057 A 
ATOM     11  H22 <0> d           4.330  -2.922   0.398  0.00  0.00     0.163 HD
ATOM     12  C13 <0> d           4.686  -3.143  -2.799  0.00  0.00     0.057 A 
ATOM     13  C17 <0> d           4.187  -0.923  -1.684  0.00  0.00     0.031 A 
ATOM     14  N3  <0> d           4.875  -4.394  -2.495  0.00  0.00    -0.353 N 
ATOM     15  C14 <0> d           4.684  -2.413  -4.074  0.00  0.00     0.031 A 
ATOM     16  H21 <0> d           5.063  -5.114  -3.118  0.00  0.00     0.163 HD
ATOM     17  C15 <0> d           4.452  -1.085  -4.081  0.00  0.00     0.002 A 
ATOM     18  C16 <0> d           4.207  -0.353  -2.906  0.00  0.00     0.002 A 
ENDBRANCH   4   8
BRANCH   5  19
ATOM     19  O1  <0> d           2.557  -3.696  -1.921  0.00  0.00    -0.375 OA
ATOM     20  H12 <0> d           1.739  -3.300  -2.253  0.00  0.00     0.212 HD
ENDBRANCH   5  19
BRANCH   1  21
ATOM     21  C8  <0> d           0.059  -4.275  -0.021  0.00  0.00     0.078 C 
BRANCH  21  22
ATOM     22  C5  <0> d           0.040  -2.768  -0.013  0.00  0.00    -0.054 A 
ATOM     23  C4  <0> d           0.025  -2.071  -1.206  0.00  0.00     0.008 A 
ATOM     24  C3  <0> d           0.006  -0.689  -1.199  0.00  0.00     0.007 A 
ATOM     25  C2  <0> d           0.002  -0.004   0.002  0.00  0.00    -0.062 A 
ATOM     26  C1  <0> d          -0.018   1.503   0.010  0.00  0.00     0.048 C 
ATOM     27  C7  <0> d           0.023  -0.702   1.195  0.00  0.00     0.007 A 
ATOM     28  C6  <0> d           0.037  -2.084   1.188  0.00  0.00     0.008 A 
ENDBRANCH  21  22
ENDBRANCH   1  21
TORSDOF 4
