REMARK  8 active torsions:
REMARK  status: ('A' for Active; 'I' for Inactive)
REMARK    1  A    between atoms: C2_2  and  C3_3 
REMARK    2  A    between atoms: C3_3  and  C4_4 
REMARK    3  A    between atoms: C4_4  and  C5_5 
REMARK    4  A    between atoms: C5_5  and  C26_30 
REMARK    5  A    between atoms: C8_8  and  C9_10 
REMARK    6  A    between atoms: C10_11  and  C11_12 
REMARK    7  A    between atoms: N2_20  and  C19_23 
REMARK    8  A    between atoms: C19_23  and  C20_24 
ROOT
ATOM      1  C5  <0> d          -2.848  -2.593   0.015  0.00  0.00     0.226 C 
ATOM      2  C6  <0> d          -2.855  -4.123   0.215  0.00  0.00     0.141 A 
ATOM      3  C7  <0> d          -3.043  -4.324   1.742  0.00  0.00     0.129 A 
ATOM      4  C8  <0> d          -3.116  -2.897   2.324  0.00  0.00     0.224 C 
ATOM      5  N1  <0> d          -3.588  -2.057   1.186  0.00  0.00    -0.047 N 
ATOM      6  C17 <0> d          -4.398  -4.988   1.843  0.00  0.00     0.234 A 
ATOM      7  O1  <0> d          -4.939  -5.324   2.875  0.00  0.00    -0.272 OA
ATOM      8  N2  <0> d          -4.908  -5.146   0.616  0.00  0.00    -0.283 N 
ATOM      9  C18 <0> d          -4.117  -4.697  -0.387  0.00  0.00     0.234 A 
ATOM     10  O2  <0> d          -4.371  -4.742  -1.572  0.00  0.00    -0.272 OA
ATOM     11  H13 <0> d          -3.347  -1.090   1.343  0.00  0.00     0.279 HD
ATOM     12  H28 <0> d          -4.583  -2.156   1.050  0.00  0.00     0.279 HD
ENDROOT
BRANCH   4  13
ATOM     13  C9  <0> d          -4.114  -2.840   3.451  0.00  0.00     0.008 C 
ATOM     14  C10 <0> d          -3.744  -2.389   4.642  0.00  0.00     0.009 C 
BRANCH  14  15
ATOM     15  C11 <0> d          -4.723  -2.333   5.748  0.00  0.00    -0.036 A 
ATOM     16  C16 <0> d          -4.337  -1.859   7.002  0.00  0.00     0.011 A 
ATOM     17  C15 <0> d          -5.258  -1.803   8.029  0.00  0.00     0.001 A 
ATOM     18  C14 <0> d          -6.558  -2.227   7.820  0.00  0.00     0.000 A 
ATOM     19  C13 <0> d          -6.945  -2.704   6.580  0.00  0.00     0.001 A 
ATOM     20  C12 <0> d          -6.036  -2.759   5.544  0.00  0.00     0.011 A 
ENDBRANCH  14  15
ENDBRANCH   4  13
BRANCH   1  21
ATOM     21  C4  <0> d          -1.413  -2.063   0.004  0.00  0.00     0.051 C 
BRANCH  21  22
ATOM     22  C3  <0> d          -1.433  -0.534   0.013  0.00  0.00     0.003 C 
BRANCH  22  23
ATOM     23  C2  <0> d           0.002  -0.004   0.002  0.00  0.00    -0.004 C 
ATOM     24  C1  <0> d          -0.019   1.526   0.010  0.00  0.00     0.005 C 
ENDBRANCH  22  23
ENDBRANCH  21  22
ENDBRANCH   1  21
BRANCH   1  25
ATOM     25  C26 <0> d          -3.552  -2.225  -1.265  0.00  0.00     0.211 C 
ATOM     26  O3  <0> d          -3.122  -2.625  -2.334  0.00  0.00    -0.646 OA
ATOM     27  O4  <0> d          -4.551  -1.528  -1.233  0.00  0.00    -0.646 OA
ENDBRANCH   1  25
BRANCH   8  28
ATOM     28  C19 <0> d          -6.215  -5.762   0.373  0.00  0.00     0.173 C 
BRANCH  28  29
ATOM     29  C20 <0> d          -7.281  -4.697   0.382  0.00  0.00    -0.040 A 
ATOM     30  C25 <0> d          -7.625  -4.053  -0.792  0.00  0.00     0.009 A 
ATOM     31  C24 <0> d          -8.606  -3.080  -0.784  0.00  0.00     0.001 A 
ATOM     32  C23 <0> d          -9.237  -2.743   0.399  0.00  0.00     0.000 A 
ATOM     33  C22 <0> d          -8.890  -3.383   1.574  0.00  0.00     0.001 A 
ATOM     34  C21 <0> d          -7.912  -4.360   1.566  0.00  0.00     0.009 A 
ENDBRANCH  28  29
ENDBRANCH   8  28
TORSDOF 8
