REMARK  4 active torsions:
REMARK  status: ('A' for Active; 'I' for Inactive)
REMARK    1  A    between atoms: C3_4  and  C5_7 
REMARK    2  A    between atoms: C5_7  and  N2_8 
REMARK    3  A    between atoms: N2_8  and  C7_10 
REMARK    4  A    between atoms: C10_15  and  O1_19 
ROOT
ATOM      1  C7  <0> d          -1.900  -4.347   2.119  0.00  0.00     0.169 A 
ATOM      2  N3  <0> d          -0.975  -5.213   1.765  0.00  0.00    -0.228 NA
ATOM      3  C8  <0> d          -0.541  -6.158   2.596  0.00  0.00     0.053 A 
ATOM      4  C9  <0> d          -1.125  -6.153   3.821  0.00  0.00     0.039 A 
ATOM      5  S2  <0> d          -2.253  -4.792   3.706  0.00  0.00    -0.052 SA
ATOM      6  C10 <0> d          -0.857  -7.073   4.963  0.00  0.00     0.160 C 
ATOM      7  C11 <0> d           0.456  -7.821   4.679  0.00  0.00     0.037 C 
ATOM      8  C12 <0> d           0.421  -8.351   3.242  0.00  0.00     0.009 C 
ATOM      9  C13 <0> d           0.523  -7.190   2.251  0.00  0.00     0.060 C 
ENDROOT
BRANCH   1  10
ATOM     10  N2  <0> d          -2.447  -3.317   1.371  0.00  0.00    -0.359 N 
ATOM     11  C6  <0> d          -3.473  -2.450   1.958  0.00  0.00     0.152 C 
BRANCH  10  12
ATOM     12  C5  <0> d          -1.999  -3.093  -0.006  0.00  0.00     0.184 C 
BRANCH  12  13
ATOM     13  C3  <0> d          -0.834  -2.137  -0.006  0.00  0.00     0.059 A 
ATOM     14  N1  <0> d          -1.013  -0.832   0.002  0.00  0.00    -0.249 NA
ATOM     15  C2  <0> d           0.002  -0.004   0.002  0.00  0.00     0.071 A 
ATOM     16  C1  <0> d          -0.018   1.503   0.010  0.00  0.00     0.078 C 
ATOM     17  S1  <0> d           1.335  -1.032  -0.017  0.00  0.00    -0.085 SA
ATOM     18  C4  <0> d           0.449  -2.582  -0.014  0.00  0.00     0.080 A 
ENDBRANCH  12  13
ENDBRANCH  10  12
ENDBRANCH   1  10
BRANCH   6  19
ATOM     19  O1  <0> d          -0.732  -6.320   6.171  0.00  0.00    -0.390 OA
ATOM     20  H17 <0> d          -1.520  -5.808   6.399  0.00  0.00     0.210 HD
ENDBRANCH   6  19
TORSDOF 4
