REMARK  8 active torsions:
REMARK  status: ('A' for Active; 'I' for Inactive)
REMARK    1  A    between atoms: C5_5  and  O4_29 
REMARK    2  A    between atoms: C6_6  and  C8_8 
REMARK    3  A    between atoms: N3_16  and  C19_25 
REMARK    4  A    between atoms: C12_17  and  C13_18 
REMARK    5  A    between atoms: C17_22  and  O2_24 
REMARK    6  A    between atoms: C19_25  and  C20_26 
REMARK    7  A    between atoms: C20_26  and  C21_27 
REMARK    8  A    between atoms: C21_27  and  O3_28 
ROOT
ATOM      1  C8  <0> d          -0.031  -2.991   2.559  0.00  0.00     0.074 A 
ATOM      2  C9  <0> d           1.068  -3.638   3.028  0.00  0.00     0.034 A 
ATOM      3  C10 <0> d           0.694  -4.186   4.275  0.00  0.00     0.155 A 
ATOM      4  N1  <0> d          -0.564  -3.850   4.481  0.00  0.00    -0.168 NA
ATOM      5  N2  <0> d          -1.009  -3.149   3.499  0.00  0.00    -0.276 N 
ATOM      6  H1  <0> d          -1.907  -2.788   3.435  0.00  0.00     0.189 HD
ATOM      7  C11 <0> d           1.861  -4.900   4.824  0.00  0.00     0.275 A 
ATOM      8  O1  <0> d           1.877  -5.488   5.888  0.00  0.00    -0.266 OA
ATOM      9  N3  <0> d           2.904  -4.811   3.981  0.00  0.00    -0.334 N 
ATOM     10  C12 <0> d           2.504  -4.028   2.806  0.00  0.00     0.159 A 
ENDROOT
BRANCH   1  11
ATOM     11  C6  <0> d          -0.144  -2.253   1.282  0.00  0.00     0.027 A 
ATOM     12  C5  <0> d           0.603  -1.088   1.074  0.00  0.00     0.084 A 
ATOM     13  C4  <0> d           0.490  -0.404  -0.126  0.00  0.00    -0.027 A 
ATOM     14  C3  <0> d          -0.357  -0.872  -1.113  0.00  0.00     0.016 A 
ATOM     15  C22 <0> d           1.293   0.851  -0.355  0.00  0.00     0.051 C 
ATOM     16  C2  <0> d          -1.097  -2.024  -0.911  0.00  0.00    -0.060 A 
ATOM     17  C1  <0> d          -2.017  -2.524  -1.994  0.00  0.00     0.048 C 
ATOM     18  C7  <0> d          -1.000  -2.712   0.281  0.00  0.00     0.023 A 
BRANCH  12  19
ATOM     19  O4  <0> d           1.435  -0.630   2.045  0.00  0.00    -0.359 OA
ATOM     20  H20 <0> d           1.040   0.043   2.616  0.00  0.00     0.217 HD
ENDBRANCH  12  19
ENDBRANCH   1  11
BRANCH  10  21
ATOM     21  C13 <0> d           2.626  -4.865   1.559  0.00  0.00    -0.028 A 
ATOM     22  C18 <0> d           3.231  -4.342   0.433  0.00  0.00     0.046 A 
ATOM     23  C17 <0> d           3.349  -5.115  -0.713  0.00  0.00     0.066 A 
ATOM     24  C16 <0> d           2.848  -6.409  -0.728  0.00  0.00     0.036 A 
ATOM     25  C15 <0> d           2.238  -6.926   0.399  0.00  0.00     0.003 A 
ATOM     26  C14 <0> d           2.128  -6.155   1.542  0.00  0.00     0.010 A 
BRANCH  23  27
ATOM     27  O2  <0> d           3.949  -4.604  -1.820  0.00  0.00    -0.361 OA
ATOM     28  H12 <0> d           3.342  -4.152  -2.422  0.00  0.00     0.217 HD
ENDBRANCH  23  27
ENDBRANCH  10  21
BRANCH   9  29
ATOM     29  C19 <0> d           4.228  -5.401   4.200  0.00  0.00     0.129 C 
BRANCH  29  30
ATOM     30  C20 <0> d           4.259  -6.814   3.616  0.00  0.00     0.046 C 
BRANCH  30  31
ATOM     31  C21 <0> d           5.641  -7.430   3.845  0.00  0.00     0.165 C 
BRANCH  31  32
ATOM     32  O3  <0> d           5.671  -8.751   3.300  0.00  0.00    -0.401 OA
ATOM     33  H19 <0> d           6.519  -9.202   3.409  0.00  0.00     0.209 HD
ENDBRANCH  31  32
ENDBRANCH  30  31
ENDBRANCH  29  30
ENDBRANCH   9  29
TORSDOF 8
