REMARK  4 active torsions:
REMARK  status: ('A' for Active; 'I' for Inactive)
REMARK    1  A    between atoms: C2_2  and  C3_3 
REMARK    2  A    between atoms: C6_6  and  C7_8 
REMARK    3  A    between atoms: C7_8  and  C8_9 
REMARK    4  A    between atoms: C7_8  and  N1_16 
ROOT
ATOM      1  C7  <0> d           2.490   1.048  -0.016  0.00  0.00     0.256 C 
ENDROOT
BRANCH   1   2
ATOM      2  C6  <0> d           3.035   1.025  -1.421  0.00  0.00     0.018 A 
ATOM      3  C5  <0> d           2.995   0.026  -2.337  0.00  0.00     0.018 A 
ATOM      4  C4  <0> d           3.564   0.233  -3.579  0.00  0.00     0.015 A 
ATOM      5  C3  <0> d           4.155   1.424  -3.841  0.00  0.00    -0.017 A 
ATOM      6  S1  <0> d           3.909   2.304  -2.308  0.00  0.00    -0.097 SA
BRANCH   5   7
ATOM      7  C2  <0> d           4.842   1.885  -5.101  0.00  0.00     0.041 C 
ATOM      8  C1  <0> d           3.821   2.555  -6.023  0.00  0.00     0.010 C 
ENDBRANCH   5   7
ENDBRANCH   1   2
BRANCH   1   9
ATOM      9  C8  <0> d           1.175   1.783   0.000  0.00  0.00    -0.022 A 
ATOM     10  C13 <0> d          -0.013   1.076   0.008  0.00  0.00     0.027 A 
ATOM     11  C12 <0> d          -1.220   1.751   0.017  0.00  0.00     0.007 A 
ATOM     12  C11 <0> d          -1.238   3.134   0.030  0.00  0.00     0.018 A 
ATOM     13  I1  <0> d          -3.020   0.679   0.020  0.00  0.00    -0.045 I 
ATOM     14  C10 <0> d          -0.050   3.841   0.024  0.00  0.00     0.002 A 
ATOM     15  C9  <0> d           1.156   3.166   0.009  0.00  0.00     0.010 A 
ENDBRANCH   1   9
BRANCH   1  16
ATOM     16  N1  <0> d           3.444   1.730   0.869  0.00  0.00    -0.066 N 
ATOM     17  H13 <0> d           3.046   1.746   1.894  0.00  0.00     0.275 HD
ATOM     18  H14 <0> d           3.596   2.761   0.518  0.00  0.00     0.275 HD
ATOM     19  H15 <0> d           4.404   1.192   0.857  0.00  0.00     0.275 HD
ENDBRANCH   1  16
TORSDOF 4
