REMARK  5 active torsions:
REMARK  status: ('A' for Active; 'I' for Inactive)
REMARK    1  A    between atoms: C2_2  and  C3_3 
REMARK    2  A    between atoms: C2_2  and  S1_9 
REMARK       I    between atoms: C3_3  and  N1_5 
REMARK    3  A    between atoms: N1_5  and  C4_6 
REMARK    4  A    between atoms: S1_9  and  C7_10 
REMARK    5  A    between atoms: C8_13  and  C10_16 
ROOT
ATOM      1  C7  <0> d           2.533  -0.042   1.241  0.00  0.00     0.192 A 
ATOM      2  N2  <0> d           2.985   0.657   0.225  0.00  0.00    -0.123 NA
ATOM      3  N3  <0> d           4.239   0.893   0.382  0.00  0.00    -0.134 NA
ATOM      4  C8  <0> d           4.658   0.365   1.497  0.00  0.00     0.135 A 
ATOM      5  N4  <0> d           3.585  -0.245   2.087  0.00  0.00    -0.315 N 
ATOM      6  C9  <0> d           3.570  -0.969   3.360  0.00  0.00     0.160 C 
ENDROOT
BRANCH   1   7
ATOM      7  S1  <0> d           0.879  -0.605   1.472  0.00  0.00    -0.076 SA
BRANCH   7   8
ATOM      8  C2  <0> d           0.002  -0.004   0.002  0.00  0.00     0.143 C 
ATOM      9  C1  <0> d          -0.019   1.526   0.010  0.00  0.00     0.031 C 
BRANCH   8  10
ATOM     10  C3  <0> d          -1.412  -0.526   0.013  0.00  0.00     0.231 C 
ATOM     11  O1  <0> d          -1.939  -0.827   1.062  0.00  0.00    -0.272 OA
ATOM     12  N1  <0> d          -2.090  -0.657  -1.144  0.00  0.00    -0.356 N 
ATOM     13  H6  <0> d          -1.669  -0.416  -1.984  0.00  0.00     0.162 HD
BRANCH  12  14
ATOM     14  C4  <0> d          -3.465  -1.164  -1.134  0.00  0.00     0.076 C 
ATOM     15  C5  <0> d          -4.205  -0.657  -2.373  0.00  0.00     0.032 C 
ATOM     16  C6  <0> d          -3.444  -2.694  -1.142  0.00  0.00     0.032 C 
ENDBRANCH  12  14
ENDBRANCH   8  10
ENDBRANCH   7   8
ENDBRANCH   1   7
BRANCH   4  17
ATOM     17  C10 <0> d           6.063   0.421   2.039  0.00  0.00     0.072 C 
ATOM     18  C13 <0> d           6.464   1.897   2.276  0.00  0.00     0.152 C 
ATOM     19  S2  <0> d           8.274   1.881   1.958  0.00  0.00     0.145 S 
ATOM     20  C12 <0> d           8.480   0.119   1.457  0.00  0.00     0.141 C 
ATOM     21  O2  <0> d           8.962   2.097   3.183  0.00  0.00    -0.228 OA
ATOM     22  O3  <0> d           8.555   2.714   0.842  0.00  0.00    -0.228 OA
ATOM     23  C11 <0> d           7.026  -0.227   1.030  0.00  0.00     0.028 C 
ENDBRANCH   4  17
TORSDOF 5
