REMARK  5 active torsions:
REMARK  status: ('A' for Active; 'I' for Inactive)
REMARK    1  A    between atoms: C6_6  and  C9_9 
REMARK       I    between atoms: C9_9  and  N1_11 
REMARK    2  A    between atoms: N1_11  and  C11_13 
REMARK    3  A    between atoms: C12_14  and  N4_29 
REMARK    4  A    between atoms: N2_15  and  C15_22 
REMARK    5  A    between atoms: C15_22  and  C16_23 
ROOT
ATOM      1  C11 <0> d           0.138  -5.056   3.554  0.00  0.00     0.150 A 
ATOM      2  C12 <0> d           0.253  -6.429   3.469  0.00  0.00     0.138 A 
ATOM      3  N2  <0> d           0.337  -7.168   4.626  0.00  0.00    -0.279 N 
ATOM      4  C13 <0> d           0.307  -6.560   5.826  0.00  0.00     0.331 A 
ATOM      5  O2  <0> d           0.383  -7.232   6.837  0.00  0.00    -0.246 OA
ATOM      6  N3  <0> d           0.196  -5.224   5.928  0.00  0.00    -0.273 N 
ATOM      7  H1  <0> d           0.177  -4.810   6.805  0.00  0.00     0.173 HD
ATOM      8  C14 <0> d           0.116  -4.453   4.825  0.00  0.00     0.280 A 
ATOM      9  O3  <0> d           0.021  -3.242   4.929  0.00  0.00    -0.265 OA
ENDROOT
BRANCH   1  10
ATOM     10  N1  <0> d           0.051  -4.270   2.386  0.00  0.00    -0.310 N 
ATOM     11  C9  <0> d          -1.027  -4.374   1.583  0.00  0.00     0.258 C 
ATOM     12  O1  <0> d          -1.960  -5.084   1.906  0.00  0.00    -0.267 OA
ATOM     13  C10 <0> d           1.131  -3.341   2.046  0.00  0.00     0.160 C 
BRANCH  11  14
ATOM     14  C6  <0> d          -1.074  -3.626   0.309  0.00  0.00     0.038 A 
ATOM     15  C5  <0> d          -0.816  -2.255   0.291  0.00  0.00     0.017 A 
ATOM     16  C4  <0> d          -0.862  -1.562  -0.901  0.00  0.00     0.002 A 
ATOM     17  C3  <0> d          -1.163  -2.225  -2.078  0.00  0.00     0.007 A 
ATOM     18  C2  <0> d          -1.419  -3.584  -2.068  0.00  0.00    -0.055 A 
ATOM     19  C1  <0> d          -1.747  -4.298  -3.354  0.00  0.00     0.049 C 
ATOM     20  C7  <0> d          -1.382  -4.287  -0.881  0.00  0.00    -0.040 A 
ATOM     21  C8  <0> d          -1.668  -5.767  -0.871  0.00  0.00     0.050 C 
ENDBRANCH  11  14
ENDBRANCH   1  10
BRANCH   2  22
ATOM     22  N4  <0> d           0.282  -7.050   2.243  0.00  0.00    -0.383 N 
ATOM     23  H21 <0> d           0.312  -6.519   1.431  0.00  0.00     0.157 HD
ATOM     24  H22 <0> d           0.273  -8.018   2.190  0.00  0.00     0.157 HD
ENDBRANCH   2  22
BRANCH   3  25
ATOM     25  C15 <0> d           0.459  -8.626   4.551  0.00  0.00     0.174 C 
BRANCH  25  26
ATOM     26  C16 <0> d           1.916  -9.006   4.499  0.00  0.00    -0.040 A 
ATOM     27  C21 <0> d           2.612  -9.240   5.670  0.00  0.00     0.009 A 
ATOM     28  C20 <0> d           3.947  -9.593   5.623  0.00  0.00     0.001 A 
ATOM     29  C19 <0> d           4.590  -9.703   4.404  0.00  0.00     0.000 A 
ATOM     30  C18 <0> d           3.896  -9.465   3.232  0.00  0.00     0.001 A 
ATOM     31  C17 <0> d           2.559  -9.116   3.280  0.00  0.00     0.009 A 
ENDBRANCH  25  26
ENDBRANCH   3  25
TORSDOF 5
