REMARK  3 active torsions:
REMARK  status: ('A' for Active; 'I' for Inactive)
REMARK    1  A    between atoms: C6_6  and  N1_8 
REMARK       I    between atoms: N1_8  and  C8_9 
REMARK    2  A    between atoms: C8_9  and  C9_11 
REMARK    3  A    between atoms: N3_17  and  C13_20 
ROOT
ATOM      1  C9  <0> d           0.449   0.446  -0.021  0.00  0.00     0.116 A 
ATOM      2  C10 <0> d          -0.859   0.054  -0.229  0.00  0.00     0.115 A 
ATOM      3  N2  <0> d          -1.139  -1.264  -0.399  0.00  0.00    -0.317 N 
ATOM      4  H1  <0> d          -2.086  -1.546  -0.557  0.00  0.00     0.170 HD
ATOM      5  C11 <0> d          -0.175  -2.197  -0.359  0.00  0.00     0.334 A 
ATOM      6  O2  <0> d          -0.478  -3.364  -0.513  0.00  0.00    -0.246 OA
ATOM      7  N3  <0> d           1.116  -1.883  -0.155  0.00  0.00    -0.229 N 
ATOM      8  C12 <0> d           1.487  -0.597   0.019  0.00  0.00     0.273 A 
ATOM      9  O3  <0> d           2.654  -0.306   0.203  0.00  0.00    -0.266 OA
ENDROOT
BRANCH   1  10
ATOM     10  C8  <0> d           0.794   1.864   0.163  0.00  0.00     0.263 C 
ATOM     11  N1  <0> d           2.059   2.216   0.464  0.00  0.00    -0.323 N 
ATOM     12  H8  <0> d           2.757   1.543   0.490  0.00  0.00     0.169 HD
ATOM     13  O1  <0> d          -0.062   2.719   0.037  0.00  0.00    -0.267 OA
BRANCH  11  14
ATOM     14  C6  <0> d           2.366   3.552   0.741  0.00  0.00     0.036 A 
ATOM     15  C5  <0> d           1.444   4.356   1.398  0.00  0.00     0.036 A 
ATOM     16  C4  <0> d           1.751   5.675   1.670  0.00  0.00    -0.059 A 
ATOM     17  C3  <0> d           2.974   6.196   1.288  0.00  0.00     0.013 A 
ATOM     18  C19 <0> d           0.751   6.549   2.383  0.00  0.00     0.048 C 
ATOM     19  C2  <0> d           3.894   5.398   0.633  0.00  0.00    -0.059 A 
ATOM     20  C1  <0> d           5.225   5.969   0.217  0.00  0.00     0.048 C 
ATOM     21  C7  <0> d           3.596   4.076   0.363  0.00  0.00     0.036 A 
ENDBRANCH  11  14
ENDBRANCH   1  10
BRANCH   7  22
ATOM     22  C13 <0> d           2.083  -2.897  -0.122  0.00  0.00     0.047 A 
ATOM     23  C18 <0> d           3.105  -2.913  -1.062  0.00  0.00     0.033 A 
ATOM     24  C17 <0> d           4.057  -3.913  -1.028  0.00  0.00     0.044 A 
ATOM     25  C16 <0> d           3.993  -4.899  -0.058  0.00  0.00     0.116 A 
ATOM     26  C15 <0> d           2.974  -4.884   0.880  0.00  0.00     0.044 A 
ATOM     27  F1  <0> d           4.926  -5.876  -0.026  0.00  0.00    -0.206 F 
ATOM     28  C14 <0> d           2.023  -3.883   0.853  0.00  0.00     0.033 A 
ENDBRANCH   7  22
TORSDOF 3
