REMARK  6 active torsions:
REMARK  status: ('A' for Active; 'I' for Inactive)
REMARK    1  A    between atoms: C4_4  and  O1_5 
REMARK    2  A    between atoms: N1_6  and  C19_26 
REMARK    3  A    between atoms: N3_11  and  C8_12 
REMARK    4  A    between atoms: C8_12  and  C9_13 
REMARK    5  A    between atoms: C9_13  and  C10_14 
REMARK    6  A    between atoms: C13_17  and  O2_23 
ROOT
ATOM      1  C1  <0> d          -0.018   1.503   0.010  0.00  0.00     0.069 C 
ATOM      2  C2  <0> d           0.002  -0.004   0.002  0.00  0.00     0.027 A 
ATOM      3  C3  <0> d           0.006  -0.700  -1.217  0.00  0.00     0.070 A 
ATOM      4  C4  <0> d          -0.005  -0.350  -2.562  0.00  0.00     0.178 A 
ATOM      5  N1  <0> d           0.007  -1.486  -3.280  0.00  0.00    -0.210 N 
ATOM      6  N2  <0> d           0.026  -2.593  -2.423  0.00  0.00    -0.164 NA
ATOM      7  C5  <0> d           0.027  -2.175  -1.175  0.00  0.00     0.098 A 
ATOM      8  C6  <0> d           0.041  -2.790   0.097  0.00  0.00     0.093 A 
ATOM      9  C7  <0> d           0.036  -1.997   1.205  0.00  0.00     0.183 A 
ATOM     10  N3  <0> d           0.022  -0.667   1.134  0.00  0.00    -0.328 N 
ATOM     11  O3  <0> d           0.050  -2.585   2.429  0.00  0.00    -0.172 OA
ENDROOT
BRANCH  10  12
ATOM     12  C8  <0> d           0.023   0.095   2.385  0.00  0.00     0.135 C 
BRANCH  12  13
ATOM     13  C9  <0> d          -1.419   0.341   2.834  0.00  0.00     0.057 C 
BRANCH  13  14
ATOM     14  C10 <0> d          -1.418   1.125   4.121  0.00  0.00    -0.048 A 
ATOM     15  C17 <0> d          -1.293   0.571   5.522  0.00  0.00     0.155 A 
ATOM     16  N4  <0> d          -1.342   1.731   6.419  0.00  0.00    -0.385 N 
ATOM     17  C16 <0> d          -1.485   2.813   5.695  0.00  0.00     0.039 A 
ATOM     18  H21 <0> d          -1.284   1.702   7.387  0.00  0.00     0.160 HD
ATOM     19  C11 <0> d          -1.535   2.465   4.256  0.00  0.00    -0.003 A 
ATOM     20  C15 <0> d          -1.595   4.229   6.059  0.00  0.00     0.033 A 
ATOM     21  C12 <0> d          -1.692   3.554   3.285  0.00  0.00     0.050 A 
ATOM     22  C13 <0> d          -1.785   4.831   3.725  0.00  0.00     0.069 A 
ATOM     23  C14 <0> d          -1.737   5.160   5.091  0.00  0.00     0.039 A 
BRANCH  22  24
ATOM     24  O2  <0> d          -1.929   5.830   2.814  0.00  0.00    -0.356 OA
ATOM     25  C18 <0> d          -2.023   7.162   3.322  0.00  0.00     0.210 C 
ENDBRANCH  22  24
ENDBRANCH  13  14
ENDBRANCH  12  13
ENDBRANCH  10  12
BRANCH   4  26
ATOM     26  O1  <0> d          -0.025   0.910  -3.060  0.00  0.00    -0.344 OA
ATOM     27  H22 <0> d           0.852   1.288  -3.208  0.00  0.00     0.219 HD
ENDBRANCH   4  26
BRANCH   5  28
ATOM     28  C19 <0> d           0.000  -1.553  -4.680  0.00  0.00     0.061 A 
ATOM     29  C24 <0> d           0.701  -2.559  -5.331  0.00  0.00     0.034 A 
ATOM     30  C23 <0> d           0.688  -2.627  -6.710  0.00  0.00     0.044 A 
ATOM     31  C22 <0> d          -0.012  -1.684  -7.444  0.00  0.00     0.116 A 
ATOM     32  C21 <0> d          -0.707  -0.676  -6.797  0.00  0.00     0.044 A 
ATOM     33  F1  <0> d          -0.019  -1.748  -8.794  0.00  0.00    -0.206 F 
ATOM     34  C20 <0> d          -0.702  -0.609  -5.417  0.00  0.00     0.034 A 
ENDBRANCH   5  28
TORSDOF 6
