REMARK  6 active torsions:
REMARK  status: ('A' for Active; 'I' for Inactive)
REMARK    1  A    between atoms: C2_2  and  N1_3 
REMARK    2  A    between atoms: N2_6  and  C7_9 
REMARK    3  A    between atoms: C7_9  and  N3_10 
REMARK    4  A    between atoms: N4_13  and  C18_25 
REMARK    5  A    between atoms: C9_14  and  C10_16 
REMARK    6  A    between atoms: C18_25  and  C19_26 
ROOT
ATOM      1  N3  <0> d          -4.955  -3.683  -1.863  0.00  0.00    -0.258 N 
ATOM      2  C8  <0> d          -5.436  -4.194  -3.003  0.00  0.00     0.190 A 
ATOM      3  S1  <0> d          -6.230  -3.274  -4.209  0.00  0.00    -0.039 SA
ATOM      4  N4  <0> d          -5.220  -5.520  -3.085  0.00  0.00    -0.332 N 
ATOM      5  C9  <0> d          -4.516  -5.913  -1.854  0.00  0.00     0.215 A 
ATOM      6  N5  <0> d          -4.371  -4.653  -1.099  0.00  0.00    -0.206 NA
ATOM      7  H18 <0> d          -4.817  -4.721  -0.197  0.00  0.00     0.149 HD
ENDROOT
BRANCH   1   8
ATOM      8  C7  <0> d          -5.039  -2.270  -1.487  0.00  0.00     0.417 C 
BRANCH   8   9
ATOM      9  N2  <0> d          -3.724  -1.639  -1.659  0.00  0.00     0.110 N 
ATOM     10  C4  <0> d          -3.858  -0.192  -1.877  0.00  0.00     0.302 C 
ATOM     11  C3  <0> d          -2.474   0.417  -2.110  0.00  0.00     0.265 C 
ATOM     12  N1  <0> d          -1.622   0.158  -0.943  0.00  0.00    -0.068 N 
ATOM     13  C6  <0> d          -1.476  -1.291  -0.752  0.00  0.00     0.265 C 
ATOM     14  H33 <0> d          -2.044   0.564  -0.121  0.00  0.00     0.280 HD
ATOM     15  C5  <0> d          -2.853  -1.914  -0.507  0.00  0.00     0.302 C 
BRANCH  12  16
ATOM     16  C2  <0> d          -0.299   0.758  -1.160  0.00  0.00     0.230 C 
ATOM     17  C1  <0> d          -0.435   2.280  -1.234  0.00  0.00     0.034 C 
ENDBRANCH  12  16
ENDBRANCH   8   9
ENDBRANCH   1   8
BRANCH   5  18
ATOM     18  C10 <0> d          -3.162  -6.488  -2.182  0.00  0.00     0.008 A 
ATOM     19  C11 <0> d          -2.017  -6.595  -1.273  0.00  0.00     0.002 A 
ATOM     20  C12 <0> d          -1.801  -6.245   0.061  0.00  0.00     0.014 A 
ATOM     21  C16 <0> d          -0.984  -7.192  -2.019  0.00  0.00     0.043 A 
ATOM     22  C13 <0> d          -0.585  -6.484   0.636  0.00  0.00     0.001 A 
ATOM     23  C14 <0> d           0.438  -7.072  -0.095  0.00  0.00     0.002 A 
ATOM     24  C15 <0> d           0.246  -7.425  -1.413  0.00  0.00     0.030 A 
ATOM     25  N6  <0> d          -1.477  -7.424  -3.283  0.00  0.00    -0.365 N 
ATOM     26  H24 <0> d          -0.979  -7.829  -4.010  0.00  0.00     0.165 HD
ATOM     27  C17 <0> d          -2.777  -7.004  -3.360  0.00  0.00     0.099 A 
ENDBRANCH   5  18
BRANCH   4  28
ATOM     28  C18 <0> d          -5.609  -6.402  -4.188  0.00  0.00     0.159 C 
BRANCH  28  29
ATOM     29  C19 <0> d          -7.066  -6.833  -4.005  0.00  0.00     0.139 C 
ATOM     30  O1  <0> d          -7.921  -5.684  -4.037  0.00  0.00    -0.384 OA
ATOM     31  C22 <0> d          -8.829  -5.781  -5.148  0.00  0.00     0.168 C 
ATOM     32  C21 <0> d          -8.941  -7.297  -5.448  0.00  0.00     0.029 C 
ATOM     33  C20 <0> d          -7.486  -7.762  -5.164  0.00  0.00     0.035 C 
ENDBRANCH  28  29
ENDBRANCH   4  28
TORSDOF 6
