REMARK  9 active torsions:
REMARK  status: ('A' for Active; 'I' for Inactive)
REMARK    1  A    between atoms: C2_2  and  C3_3 
REMARK    2  A    between atoms: C2_2  and  N3_26 
REMARK    3  A    between atoms: C3_3  and  C4_4 
REMARK    4  A    between atoms: C4_4  and  N4_28 
REMARK    5  A    between atoms: C9_10  and  C10_11 
REMARK    6  A    between atoms: C9_10  and  N3_26 
REMARK    7  A    between atoms: C12_14  and  S1_22 
REMARK    8  A    between atoms: N2_15  and  C13_16 
REMARK    9  A    between atoms: C13_16  and  C14_17 
ROOT
ATOM      1  C10 <0> d          -0.736   1.710   0.996  0.00  0.00     0.057 A 
ATOM      2  C11 <0> d          -1.441   0.844   1.747  0.00  0.00     0.146 A 
ATOM      3  N1  <0> d          -1.796   1.469   2.879  0.00  0.00    -0.231 NA
ATOM      4  C12 <0> d          -1.345   2.693   2.854  0.00  0.00     0.227 A 
ATOM      5  N2  <0> d          -0.677   2.885   1.696  0.00  0.00    -0.320 N 
ENDROOT
BRANCH   1   6
ATOM      6  C9  <0> d          -0.132   1.441  -0.359  0.00  0.00     0.292 C 
BRANCH   6   7
ATOM      7  N3  <0> d          -1.069   1.912  -1.401  0.00  0.00    -0.070 N 
ATOM      8  C1  <0> d          -2.286   1.073  -1.402  0.00  0.00     0.270 C 
ATOM      9  H33 <0> d          -1.333   2.883  -1.197  0.00  0.00     0.279 HD
BRANCH   7  10
ATOM     10  C2  <0> d          -0.418   1.859  -2.727  0.00  0.00     0.236 C 
BRANCH  10  11
ATOM     11  C3  <0> d          -1.320   2.555  -3.747  0.00  0.00     0.055 C 
BRANCH  11  12
ATOM     12  C4  <0> d          -0.650   2.529  -5.122  0.00  0.00     0.236 C 
BRANCH  12  13
ATOM     13  N4  <0> d          -1.524   3.222  -6.094  0.00  0.00    -0.067 N 
ATOM     14  C5  <0> d          -2.758   2.439  -6.311  0.00  0.00     0.261 C 
ATOM     15  C6  <0> d          -3.655   3.199  -7.292  0.00  0.00     0.195 C 
ATOM     16  O1  <0> d          -2.942   3.417  -8.512  0.00  0.00    -0.388 OA
ATOM     17  C7  <0> d          -1.727   4.153  -8.345  0.00  0.00     0.195 C 
ATOM     18  C8  <0> d          -0.811   3.402  -7.376  0.00  0.00     0.261 C 
ATOM     19  H34 <0> d          -1.775   4.144  -5.718  0.00  0.00     0.280 HD
ENDBRANCH  12  13
ENDBRANCH  11  12
ENDBRANCH  10  11
ENDBRANCH   7  10
ENDBRANCH   6   7
ENDBRANCH   1   6
BRANCH   5  20
ATOM     20  C13 <0> d          -0.014   4.120   1.269  0.00  0.00     0.163 C 
BRANCH  20  21
ATOM     21  C14 <0> d          -0.954   4.915   0.360  0.00  0.00     0.140 C 
ATOM     22  O2  <0> d          -2.102   5.341   1.102  0.00  0.00    -0.384 OA
ATOM     23  C17 <0> d          -2.158   6.776   1.137  0.00  0.00     0.168 C 
ATOM     24  C16 <0> d          -1.367   7.243  -0.110  0.00  0.00     0.029 C 
ATOM     25  C15 <0> d          -0.235   6.180  -0.157  0.00  0.00     0.035 C 
ENDBRANCH  20  21
ENDBRANCH   5  20
BRANCH   4  26
ATOM     26  S1  <0> d          -1.570   3.897   4.121  0.00  0.00     0.205 S 
ATOM     27  O3  <0> d          -1.353   5.146   3.478  0.00  0.00    -0.220 OA
ATOM     28  O4  <0> d          -2.833   3.587   4.695  0.00  0.00    -0.220 OA
ATOM     29  C18 <0> d          -0.244   3.571   5.315  0.00  0.00     0.170 C 
ENDBRANCH   4  26
TORSDOF 9
