REMARK  4 active torsions:
REMARK  status: ('A' for Active; 'I' for Inactive)
REMARK    1  A    between atoms: C3_3  and  C6_9 
REMARK       I    between atoms: C6_9  and  N3_11 
REMARK    2  A    between atoms: N3_11  and  C7_12 
REMARK    3  A    between atoms: N3_11  and  C9_17 
REMARK    4  A    between atoms: C7_12  and  C8_13 
ROOT
ATOM      1  C6  <0> d          -0.097  -0.494  -2.782  0.00  0.00     0.258 C 
ATOM      2  O1  <0> d          -0.168  -0.831  -1.615  0.00  0.00    -0.267 OA
ATOM      3  N3  <0> d          -1.221  -0.222  -3.474  0.00  0.00    -0.335 N 
ENDROOT
BRANCH   3   4
ATOM      4  C7  <0> d          -2.515  -0.198  -2.789  0.00  0.00     0.243 C 
BRANCH   4   5
ATOM      5  C8  <0> d          -2.776   1.205  -2.238  0.00  0.00     0.403 C 
ATOM      6  F1  <0> d          -2.894   2.109  -3.300  0.00  0.00    -0.169 F 
ATOM      7  F2  <0> d          -3.960   1.202  -1.494  0.00  0.00    -0.169 F 
ATOM      8  F3  <0> d          -1.710   1.589  -1.417  0.00  0.00    -0.169 F 
ENDBRANCH   4   5
ENDBRANCH   3   4
BRANCH   3   9
ATOM      9  C9  <0> d          -1.147   0.051  -4.912  0.00  0.00     0.090 C 
ATOM     10  C13 <0> d          -0.280   1.290  -5.154  0.00  0.00     0.053 C 
ATOM     11  C12 <0> d          -0.142   1.522  -6.660  0.00  0.00     0.234 C 
ATOM     12  N4  <0> d           0.487   0.352  -7.284  0.00  0.00    -0.075 N 
ATOM     13  C11 <0> d          -0.374  -0.825  -7.118  0.00  0.00     0.234 C 
ATOM     14  H15 <0> d           1.380   0.179  -6.847  0.00  0.00     0.277 HD
ATOM     15  H20 <0> d           0.625   0.530  -8.268  0.00  0.00     0.277 HD
ATOM     16  C10 <0> d          -0.520  -1.147  -5.629  0.00  0.00     0.053 C 
ENDBRANCH   3   9
BRANCH   1  17
ATOM     17  C3  <0> d           1.218  -0.384  -3.438  0.00  0.00     0.081 A 
ATOM     18  C2  <0> d           1.897  -1.395  -4.089  0.00  0.00     0.042 A 
ATOM     19  C1  <0> d           1.429  -2.817  -4.258  0.00  0.00     0.071 C 
ATOM     20  N2  <0> d           3.052  -0.880  -4.538  0.00  0.00    -0.281 N 
ATOM     21  N1  <0> d           3.105   0.472  -4.177  0.00  0.00    -0.179 NA
ATOM     22  H1  <0> d           3.735  -1.362  -5.031  0.00  0.00     0.189 HD
ATOM     23  C4  <0> d           2.021   0.776  -3.520  0.00  0.00     0.068 A 
ATOM     24  C5  <0> d           1.682   2.129  -2.948  0.00  0.00     0.073 C 
ENDBRANCH   1  17
TORSDOF 4
