REMARK  4 active torsions:
REMARK  status: ('A' for Active; 'I' for Inactive)
REMARK    1  A    between atoms: C9_10  and  C11_13 
REMARK    2  A    between atoms: C10_11  and  O1_12 
REMARK    3  A    between atoms: C11_13  and  N2_24 
REMARK    4  A    between atoms: C13_15  and  N2_24 
ROOT
ATOM      1  C1  <0> d          -5.995   4.100   1.862  0.00  0.00     0.048 C 
ATOM      2  C2  <0> d          -4.640   3.444   1.786  0.00  0.00    -0.059 A 
ATOM      3  C3  <0> d          -4.196   2.928   0.571  0.00  0.00     0.014 A 
ATOM      4  C4  <0> d          -2.976   2.330   0.470  0.00  0.00    -0.046 A 
ATOM      5  C5  <0> d          -2.157   2.231   1.605  0.00  0.00     0.032 A 
ATOM      6  C6  <0> d          -2.606   2.754   2.841  0.00  0.00     0.071 A 
ATOM      7  C7  <0> d          -3.870   3.365   2.906  0.00  0.00     0.039 A 
ATOM      8  N1  <0> d          -1.831   2.658   3.928  0.00  0.00    -0.252 NA
ATOM      9  C8  <0> d          -0.647   2.096   3.880  0.00  0.00     0.042 A 
ATOM     10  C9  <0> d          -0.137   1.559   2.705  0.00  0.00     0.026 A 
ATOM     11  C10 <0> d          -0.885   1.618   1.543  0.00  0.00     0.088 A 
ATOM     12  C19 <0> d           0.181   2.024   5.138  0.00  0.00     0.071 C 
ATOM     13  C20 <0> d          -2.509   1.778  -0.852  0.00  0.00     0.049 C 
ENDROOT
BRANCH  10  14
ATOM     14  C11 <0> d           1.226   0.917   2.695  0.00  0.00     0.278 C 
BRANCH  14  15
ATOM     15  N2  <0> d           2.251   1.975   2.568  0.00  0.00    -0.067 N 
ATOM     16  C12 <0> d           2.205   2.560   1.211  0.00  0.00     0.270 C 
ATOM     17  H30 <0> d           2.056   2.712   3.256  0.00  0.00     0.280 HD
BRANCH  15  18
ATOM     18  C13 <0> d           3.592   1.414   2.831  0.00  0.00     0.191 C 
ATOM     19  C17 <0> d           4.637   2.521   2.669  0.00  0.00     0.061 C 
ATOM     20  C16 <0> d           6.019   1.968   3.024  0.00  0.00     0.236 C 
ATOM     21  N3  <0> d           6.003   1.500   4.426  0.00  0.00    -0.075 N 
ATOM     22  C15 <0> d           5.048   0.381   4.577  0.00  0.00     0.236 C 
ATOM     23  C18 <0> d           7.357   1.066   4.829  0.00  0.00     0.269 C 
ATOM     24  H31 <0> d           5.707   2.274   5.032  0.00  0.00     0.279 HD
ATOM     25  C14 <0> d           3.638   0.887   4.269  0.00  0.00     0.061 C 
ENDBRANCH  15  18
ENDBRANCH  14  15
ENDBRANCH  10  14
BRANCH  11  26
ATOM     26  O1  <0> d          -0.413   1.103   0.381  0.00  0.00    -0.359 OA
ATOM     27  H6  <0> d          -0.642   0.174   0.240  0.00  0.00     0.217 HD
ENDBRANCH  11  26
TORSDOF 4
