REMARK  3 active torsions:
REMARK  status: ('A' for Active; 'I' for Inactive)
REMARK    1  A    between atoms: C2_2  and  C3_3 
REMARK    2  A    between atoms: C2_2  and  N2_7 
REMARK    3  A    between atoms: C3_3  and  C4_4 
ROOT
ATOM      1  N2  <0> d          -1.372  -0.511   0.012  0.00  0.00    -0.283 N 
ATOM      2  C5  <0> d          -2.255  -0.233  -0.956  0.00  0.00     0.228 A 
ATOM      3  O1  <0> d          -2.035   0.451  -1.932  0.00  0.00    -0.273 OA
ATOM      4  C6  <0> d          -3.572  -0.910  -0.637  0.00  0.00     0.122 A 
ATOM      5  C7  <0> d          -3.290  -1.630   0.692  0.00  0.00     0.050 A 
ATOM      6  C8  <0> d          -1.849  -1.296   0.989  0.00  0.00     0.236 A 
ATOM      7  O2  <0> d          -1.224  -1.675   1.956  0.00  0.00    -0.272 OA
ATOM      8  C9  <0> d          -4.207  -1.097   1.787  0.00  0.00     0.020 C 
ATOM      9  C10 <0> d          -3.894  -1.807   3.107  0.00  0.00     0.001 C 
ATOM     10  C11 <0> d          -4.097  -3.313   2.935  0.00  0.00     0.000 C 
ATOM     11  C12 <0> d          -3.154  -3.837   1.850  0.00  0.00     0.001 C 
ATOM     12  C13 <0> d          -3.464  -3.135   0.525  0.00  0.00     0.020 C 
ENDROOT
BRANCH   1  13
ATOM     13  C2  <0> d           0.002  -0.004   0.002  0.00  0.00     0.098 C 
ATOM     14  C1  <0> d          -0.019   1.526   0.010  0.00  0.00     0.033 C 
BRANCH  13  15
ATOM     15  C3  <0> d           0.718  -0.497  -1.257  0.00  0.00     0.094 C 
BRANCH  15  16
ATOM     16  C4  <0> d           0.847  -1.998  -1.206  0.00  0.00     0.073 C 
ATOM     17  S1  <0> d           0.270  -2.808   0.046  0.00  0.00    -0.066 SA
ATOM     18  N1  <0> d           1.449  -2.657  -2.215  0.00  0.00    -0.393 N 
ATOM     19  H7  <0> d           1.799  -2.166  -2.975  0.00  0.00     0.156 HD
ATOM     20  H8  <0> d           1.532  -3.623  -2.183  0.00  0.00     0.156 HD
ENDBRANCH  15  16
ENDBRANCH  13  15
ENDBRANCH   1  13
TORSDOF 3
