REMARK  5 active torsions:
REMARK  status: ('A' for Active; 'I' for Inactive)
REMARK    1  A    between atoms: C4_4  and  S1_7 
REMARK    2  A    between atoms: S1_7  and  C7_10 
REMARK    3  A    between atoms: C7_10  and  C8_11 
REMARK    4  A    between atoms: C13_16  and  C14_17 
REMARK    5  A    between atoms: N1_19  and  C15_20 
ROOT
ATOM      1  C8  <0> d           5.672  -1.804   1.789  0.00  0.00    -0.029 A 
ATOM      2  C9  <0> d           5.687  -3.175   1.935  0.00  0.00     0.009 A 
ATOM      3  C10 <0> d           6.891  -3.849   2.051  0.00  0.00     0.001 A 
ATOM      4  C11 <0> d           8.087  -3.153   2.020  0.00  0.00     0.001 A 
ATOM      5  C12 <0> d           8.087  -1.782   1.874  0.00  0.00     0.016 A 
ATOM      6  C13 <0> d           6.875  -1.095   1.752  0.00  0.00     0.028 A 
ENDROOT
BRANCH   1   7
ATOM      7  C7  <0> d           4.360  -1.073   1.664  0.00  0.00     0.185 C 
BRANCH   7   8
ATOM      8  S1  <0> d           3.966  -0.835  -0.091  0.00  0.00     0.179 S 
ATOM      9  O1  <0> d           3.687  -2.086  -0.704  0.00  0.00    -0.222 OA
ATOM     10  O2  <0> d           4.888   0.071  -0.681  0.00  0.00    -0.222 OA
BRANCH   8  11
ATOM     11  C4  <0> d           2.426   0.022  -0.097  0.00  0.00     0.059 A 
ATOM     12  C3  <0> d           2.405   1.404  -0.088  0.00  0.00     0.023 A 
ATOM     13  C2  <0> d           1.197   2.077  -0.094  0.00  0.00     0.002 A 
ATOM     14  C1  <0> d           0.011   1.367  -0.109  0.00  0.00     0.000 A 
ATOM     15  C6  <0> d           0.032  -0.015  -0.118  0.00  0.00     0.002 A 
ATOM     16  C5  <0> d           1.240  -0.688  -0.111  0.00  0.00     0.023 A 
ENDBRANCH   8  11
ENDBRANCH   7   8
ENDBRANCH   1   7
BRANCH   6  17
ATOM     17  C14 <0> d           6.867   0.370   1.590  0.00  0.00     0.229 C 
ATOM     18  O3  <0> d           8.028   1.038   1.438  0.00  0.00    -0.169 OA
ATOM     19  N1  <0> d           5.723   1.028   1.593  0.00  0.00    -0.035 NA
BRANCH  19  20
ATOM     20  C15 <0> d           5.716   2.361   1.446  0.00  0.00     0.728 A 
ATOM     21  N2  <0> d           4.579   3.123   1.438  0.00  0.00    -0.213 N 
ATOM     22  C16 <0> d           5.029   4.515   1.254  0.00  0.00     0.243 A 
ATOM     23  H14 <0> d           3.666   2.811   1.532  0.00  0.00     0.178 HD
ATOM     24  C17 <0> d           6.537   4.387   1.169  0.00  0.00     0.278 A 
ATOM     25  O4  <0> d           7.338   5.288   1.016  0.00  0.00    -0.269 OA
ATOM     26  N3  <0> d           6.806   3.094   1.298  0.00  0.00    -0.025 NA
ENDBRANCH  19  20
ENDBRANCH   6  17
TORSDOF 5
