REMARK  1 active torsions:
REMARK  status: ('A' for Active; 'I' for Inactive)
REMARK    1  A    between atoms: N1_4  and  C8_10 
ROOT
ATOM      1  C1  <0> d          -0.019   1.540   0.011  0.00  0.00     0.048 C 
ATOM      2  C2  <0> d           0.002  -0.004   0.002  0.00  0.00     0.145 C 
ATOM      3  C3  <0> d           0.674  -0.452  -1.293  0.00  0.00     0.311 C 
ATOM      4  N1  <0> d           0.927  -1.898  -1.244  0.00  0.00     0.099 N 
ATOM      5  C4  <0> d           1.871  -2.188  -0.157  0.00  0.00     0.311 C 
ATOM      6  C5  <0> d           1.249  -1.804   1.183  0.00  0.00     0.145 C 
ATOM      7  N2  <0> d           0.711  -0.453   1.190  0.00  0.00    -0.055 N 
ATOM      8  C6  <0> d           2.357  -1.884   2.255  0.00  0.00     0.048 C 
ATOM      9  C7  <0> d           0.174  -2.829   1.558  0.00  0.00     0.048 C 
ATOM     10  C12 <0> d          -1.454  -0.483   0.013  0.00  0.00     0.048 C 
ATOM     11  H9  <0> d           1.479   0.200   1.373  0.00  0.00     0.279 HD
ATOM     12  H25 <0> d           0.085  -0.359   1.994  0.00  0.00     0.279 HD
ENDROOT
BRANCH   4  13
ATOM     13  C8  <0> d           1.438  -2.389  -2.531  0.00  0.00     0.238 C 
ATOM     14  C11 <0> d           1.430  -3.936  -2.531  0.00  0.00     0.176 C 
ATOM     15  S1  <0> d           2.869  -4.348  -3.599  0.00  0.00     0.146 S 
ATOM     16  C10 <0> d           3.494  -2.648  -3.938  0.00  0.00     0.142 C 
ATOM     17  O1  <0> d           3.832  -5.049  -2.825  0.00  0.00    -0.228 OA
ATOM     18  O2  <0> d           2.398  -4.918  -4.812  0.00  0.00    -0.228 OA
ATOM     19  C9  <0> d           2.870  -1.873  -2.742  0.00  0.00     0.051 C 
ENDBRANCH   4  13
TORSDOF 1
