REMARK  6 active torsions:
REMARK  status: ('A' for Active; 'I' for Inactive)
REMARK    1  A    between atoms: C2_2  and  N1_3 
REMARK    2  A    between atoms: N1_3  and  C3_4 
REMARK    3  A    between atoms: N1_3  and  C5_6 
REMARK    4  A    between atoms: C5_6  and  C6_7 
REMARK    5  A    between atoms: C6_7  and  C7_8 
REMARK    6  A    between atoms: C7_8  and  N2_9 
ROOT
ATOM      1  N2  <0> d          -2.829  -3.899  -1.943  0.00  0.00    -0.342 N 
ATOM      2  C8  <0> d          -3.572  -4.194  -0.732  0.00  0.00     0.228 C 
ATOM      3  C9  <0> d          -5.048  -4.280  -0.993  0.00  0.00     0.239 C 
ATOM      4  O1  <0> d          -5.729  -4.024  -0.022  0.00  0.00    -0.271 OA
ATOM      5  N3  <0> d          -5.587  -4.507  -2.188  0.00  0.00    -0.326 N 
ATOM      6  C10 <0> d          -4.827  -4.191  -3.410  0.00  0.00     0.184 C 
ATOM      7  C11 <0> d          -3.404  -3.835  -3.142  0.00  0.00     0.243 C 
ATOM      8  O2  <0> d          -2.725  -3.463  -4.077  0.00  0.00    -0.271 OA
ATOM      9  C12 <0> d          -5.528  -3.030  -4.144  0.00  0.00     0.072 C 
ATOM     10  C13 <0> d          -6.990  -3.397  -4.209  0.00  0.00    -0.040 A 
ATOM     11  C14 <0> d          -7.858  -3.417  -5.212  0.00  0.00    -0.005 A 
ATOM     12  C15 <0> d          -7.732  -3.025  -6.625  0.00  0.00     0.014 A 
ATOM     13  C16 <0> d          -8.840  -3.192  -7.394  0.00  0.00     0.001 A 
ATOM     14  C17 <0> d         -10.047  -3.702  -6.906  0.00  0.00     0.002 A 
ATOM     15  C18 <0> d         -10.253  -4.082  -5.620  0.00  0.00     0.030 A 
ATOM     16  C19 <0> d          -9.163  -3.948  -4.713  0.00  0.00     0.039 A 
ATOM     17  N4  <0> d          -9.089  -4.215  -3.440  0.00  0.00    -0.378 N 
ATOM     18  C20 <0> d          -7.761  -3.842  -2.969  0.00  0.00     0.139 A 
ATOM     19  C21 <0> d          -6.963  -5.011  -2.375  0.00  0.00     0.053 C 
ATOM     20  C22 <0> d          -7.626  -5.495  -1.090  0.00  0.00     0.041 C 
ATOM     21  C23 <0> d          -6.964  -6.178  -3.376  0.00  0.00     0.041 C 
ATOM     22  H33 <0> d          -9.806  -4.593  -2.906  0.00  0.00     0.160 HD
ENDROOT
BRANCH   1  23
ATOM     23  C7  <0> d          -1.392  -3.644  -1.840  0.00  0.00     0.128 C 
BRANCH  23  24
ATOM     24  C6  <0> d          -1.155  -2.151  -1.603  0.00  0.00     0.048 C 
BRANCH  24  25
ATOM     25  C5  <0> d           0.348  -1.884  -1.496  0.00  0.00     0.236 C 
BRANCH  25  26
ATOM     26  N1  <0> d           0.576  -0.451  -1.269  0.00  0.00    -0.072 N 
ATOM     27  H34 <0> d           0.124   0.081  -1.998  0.00  0.00     0.279 HD
BRANCH  26  28
ATOM     28  C2  <0> d           0.019  -0.067   0.035  0.00  0.00     0.230 C 
ATOM     29  C1  <0> d           0.128   1.449   0.210  0.00  0.00     0.034 C 
ENDBRANCH  26  28
BRANCH  26  30
ATOM     30  C3  <0> d           2.019  -0.176  -1.285  0.00  0.00     0.230 C 
ATOM     31  C4  <0> d           2.573  -0.440  -2.687  0.00  0.00     0.034 C 
ENDBRANCH  26  30
ENDBRANCH  25  26
ENDBRANCH  24  25
ENDBRANCH  23  24
ENDBRANCH   1  23
TORSDOF 6
