REMARK  6 active torsions:
REMARK  status: ('A' for Active; 'I' for Inactive)
REMARK    1  A    between atoms: C4_4  and  C7_7 
REMARK    2  A    between atoms: C15_17  and  S1_20 
REMARK    3  A    between atoms: S1_20  and  C16_21 
REMARK    4  A    between atoms: C16_21  and  C17_22 
REMARK       I    between atoms: C17_22  and  N5_24 
REMARK    5  A    between atoms: N5_24  and  C18_25 
REMARK    6  A    between atoms: C18_25  and  C19_26 
ROOT
ATOM      1  C7  <0> d           3.711  -0.707  -0.038  0.00  0.00     0.227 C 
ATOM      2  N1  <0> d           3.630  -1.880   0.845  0.00  0.00    -0.364 N 
ATOM      3  C8  <0> d           3.026  -3.062   0.419  0.00  0.00     0.044 A 
ATOM      4  C9  <0> d           2.401  -3.915   1.313  0.00  0.00     0.030 A 
ATOM      5  C10 <0> d           1.830  -5.090   0.861  0.00  0.00     0.002 A 
ATOM      6  C11 <0> d           1.875  -5.428  -0.481  0.00  0.00     0.001 A 
ATOM      7  C12 <0> d           2.488  -4.586  -1.391  0.00  0.00     0.017 A 
ATOM      8  C13 <0> d           3.055  -3.401  -0.948  0.00  0.00     0.038 A 
ATOM      9  C14 <0> d           3.683  -2.424  -1.855  0.00  0.00     0.168 A 
ATOM     10  N2  <0> d           4.005  -1.151  -1.399  0.00  0.00    -0.281 N 
ATOM     11  C15 <0> d           4.583  -0.519  -2.443  0.00  0.00     0.194 A 
ATOM     12  N3  <0> d           4.569  -1.359  -3.459  0.00  0.00    -0.122 NA
ATOM     13  N4  <0> d           4.022  -2.480  -3.105  0.00  0.00    -0.128 NA
ATOM     14  H7  <0> d           4.004  -1.831   1.739  0.00  0.00     0.162 HD
ENDROOT
BRANCH  11  15
ATOM     15  S1  <0> d           5.233   1.119  -2.447  0.00  0.00    -0.081 SA
BRANCH  15  16
ATOM     16  C16 <0> d           5.852   1.342  -4.138  0.00  0.00     0.185 C 
BRANCH  16  17
ATOM     17  C17 <0> d           6.442   2.721  -4.279  0.00  0.00     0.227 C 
ATOM     18  O1  <0> d           6.446   3.479  -3.332  0.00  0.00    -0.273 OA
ATOM     19  N5  <0> d           6.967   3.112  -5.457  0.00  0.00    -0.357 N 
ATOM     20  H14 <0> d           6.965   2.505  -6.214  0.00  0.00     0.162 HD
BRANCH  19  21
ATOM     21  C18 <0> d           7.541   4.452  -5.594  0.00  0.00     0.169 C 
BRANCH  21  22
ATOM     22  C19 <0> d           8.063   4.640  -7.020  0.00  0.00     0.199 A 
ATOM     23  N7  <0> d           9.098   3.640  -7.314  0.00  0.00    -0.365 N 
ATOM     24  C25 <0> d           8.676   2.926  -8.317  0.00  0.00     0.056 A 
ATOM     25  H23 <0> d           9.941   3.532  -6.846  0.00  0.00     0.162 HD
ATOM     26  C20 <0> d           7.337   3.415  -8.743  0.00  0.00     0.056 A 
ATOM     27  C24 <0> d           9.258   1.794  -9.051  0.00  0.00     0.031 A 
ATOM     28  N6  <0> d           6.981   4.413  -7.987  0.00  0.00    -0.365 N 
ATOM     29  C21 <0> d           6.684   2.734  -9.870  0.00  0.00     0.031 A 
ATOM     30  H22 <0> d           6.154   4.915  -8.050  0.00  0.00     0.162 HD
ATOM     31  C22 <0> d           7.308   1.704 -10.476  0.00  0.00     0.002 A 
ATOM     32  C23 <0> d           8.573   1.241 -10.073  0.00  0.00     0.002 A 
ENDBRANCH  21  22
ENDBRANCH  19  21
ENDBRANCH  16  17
ENDBRANCH  15  16
ENDBRANCH  11  15
BRANCH   1  33
ATOM     33  C4  <0> d           2.396   0.029  -0.020  0.00  0.00    -0.016 A 
ATOM     34  C3  <0> d           2.377   1.411  -0.013  0.00  0.00     0.011 A 
ATOM     35  C2  <0> d           1.171   2.086   0.002  0.00  0.00     0.001 A 
ATOM     36  C1  <0> d          -0.017   1.378   0.010  0.00  0.00     0.000 A 
ATOM     37  C6  <0> d           0.002  -0.004   0.002  0.00  0.00     0.001 A 
ATOM     38  C5  <0> d           1.208  -0.679  -0.012  0.00  0.00     0.011 A 
ENDBRANCH   1  33
TORSDOF 6
