REMARK  3 active torsions:
REMARK  status: ('A' for Active; 'I' for Inactive)
REMARK    1  A    between atoms: C7_7  and  N1_8 
REMARK    2  A    between atoms: N1_8  and  S1_9 
REMARK    3  A    between atoms: S1_9  and  C8_12 
ROOT
ATOM      1  S1  <0> d          -0.078  -0.895   3.826  0.00  0.00     0.257 S 
ATOM      2  O1  <0> d          -1.174  -1.798   3.769  0.00  0.00    -0.203 OA
ATOM      3  O2  <0> d           1.255  -1.379   3.917  0.00  0.00    -0.203 OA
ENDROOT
BRANCH   1   4
ATOM      4  N1  <0> d          -0.133  -0.072   2.390  0.00  0.00    -0.163 NA
BRANCH   4   5
ATOM      5  C7  <0> d           0.092  -0.749   1.189  0.00  0.00     0.081 A 
ATOM      6  C2  <0> d           1.243  -0.496   0.453  0.00  0.00    -0.031 A 
ATOM      7  C1  <0> d           2.250   0.509   0.949  0.00  0.00     0.050 C 
ATOM      8  C3  <0> d           1.466  -1.171  -0.731  0.00  0.00     0.028 A 
ATOM      9  C4  <0> d           0.541  -2.094  -1.188  0.00  0.00     0.012 A 
ATOM     10  C5  <0> d          -0.608  -2.344  -0.460  0.00  0.00     0.028 A 
ATOM     11 Br1  <0> d           0.850  -3.015  -2.810  0.00  0.00    -0.051 Br
ATOM     12  C6  <0> d          -0.837  -1.672   0.725  0.00  0.00    -0.031 A 
ATOM     13  C13 <0> d          -2.090  -1.944   1.517  0.00  0.00     0.050 C 
ENDBRANCH   4   5
ENDBRANCH   1   4
BRANCH   1  14
ATOM     14  C8  <0> d          -0.373   0.366   5.097  0.00  0.00     0.157 C 
ATOM     15  C12 <0> d          -0.220  -0.261   6.484  0.00  0.00     0.254 C 
ATOM     16  N2  <0> d          -0.454   0.758   7.514  0.00  0.00    -0.074 N 
ATOM     17  C11 <0> d           0.562   1.812   7.414  0.00  0.00     0.232 C 
ATOM     18  H13 <0> d          -0.404   0.330   8.427  0.00  0.00     0.277 HD
ATOM     19  H19 <0> d          -1.370   1.161   7.384  0.00  0.00     0.277 HD
ATOM     20  C10 <0> d           0.437   2.519   6.062  0.00  0.00     0.029 C 
ATOM     21  C9  <0> d           0.644   1.499   4.939  0.00  0.00     0.025 C 
ENDBRANCH   1  14
TORSDOF 3
