REMARK  7 active torsions:
REMARK  status: ('A' for Active; 'I' for Inactive)
REMARK    1  A    between atoms: C2_2  and  N1_4 
REMARK    2  A    between atoms: N1_4  and  C4_5 
REMARK    3  A    between atoms: N1_4  and  C6_10 
REMARK    4  A    between atoms: C4_5  and  C5_6 
REMARK    5  A    between atoms: C6_10  and  C7_11 
REMARK    6  A    between atoms: C6_10  and  C8_13 
REMARK    7  A    between atoms: C7_11  and  N2_12 
ROOT
ATOM      1  C6  <0> d          -2.187  -0.327   1.245  0.00  0.00     0.305 C 
ENDROOT
BRANCH   1   2
ATOM      2  N1  <0> d          -1.452  -0.882   0.101  0.00  0.00     0.113 N 
BRANCH   2   3
ATOM      3  C2  <0> d          -0.208  -0.138  -0.137  0.00  0.00     0.216 C 
ATOM      4  C1  <0> d           0.026  -0.002  -1.643  0.00  0.00     0.042 C 
ATOM      5  C3  <0> d          -0.318   1.254   0.490  0.00  0.00     0.042 C 
ENDBRANCH   2   3
BRANCH   2   6
ATOM      6  C4  <0> d          -1.181  -2.313   0.293  0.00  0.00     0.390 C 
BRANCH   6   7
ATOM      7  C5  <0> d          -0.567  -2.891  -0.983  0.00  0.00     0.413 C 
ATOM      8  F1  <0> d           0.733  -2.397  -1.141  0.00  0.00    -0.169 F 
ATOM      9  F2  <0> d          -0.526  -4.287  -0.890  0.00  0.00    -0.169 F 
ATOM     10  F3  <0> d          -1.344  -2.520  -2.085  0.00  0.00    -0.169 F 
ENDBRANCH   6   7
ENDBRANCH   2   6
ENDBRANCH   1   2
BRANCH   1  11
ATOM     11  C7  <0> d          -1.661  -0.948   2.540  0.00  0.00     0.272 C 
BRANCH  11  12
ATOM     12  N2  <0> d          -0.228  -0.652   2.678  0.00  0.00    -0.077 N 
ATOM     13  H13 <0> d          -0.105   0.332   2.866  0.00  0.00     0.274 HD
ATOM     14  H14 <0> d           0.154  -1.190   3.441  0.00  0.00     0.274 HD
ATOM     15  H17 <0> d           0.249  -0.893   1.823  0.00  0.00     0.274 HD
ENDBRANCH  11  12
ENDBRANCH   1  11
BRANCH   1  16
ATOM     16  C8  <0> d          -3.654  -0.638   1.098  0.00  0.00     0.089 A 
ATOM     17  O1  <0> d          -4.173  -1.826   0.744  0.00  0.00    -0.305 OA
ATOM     18  C11 <0> d          -5.513  -1.739   0.719  0.00  0.00     0.121 A 
ATOM     19  C10 <0> d          -5.864  -0.482   1.050  0.00  0.00     0.048 A 
ATOM     20 Br1  <0> d          -6.705  -3.142   0.284  0.00  0.00    -0.023 Br
ATOM     21  C9  <0> d          -4.665   0.227   1.294  0.00  0.00     0.038 A 
ENDBRANCH   1  16
TORSDOF 7
