REMARK  5 active torsions:
REMARK  status: ('A' for Active; 'I' for Inactive)
REMARK    1  A    between atoms: C5_5  and  C7_7 
REMARK    2  A    between atoms: C8_10  and  S1_12 
REMARK    3  A    between atoms: S1_12  and  C9_13 
REMARK    4  A    between atoms: C9_13  and  C10_14 
REMARK       I    between atoms: C10_14  and  N3_16 
REMARK       I    between atoms: N3_16  and  C11_17 
REMARK       I    between atoms: C11_17  and  N4_19 
REMARK    5  A    between atoms: N4_19  and  C12_20 
ROOT
ATOM      1  C10 <0> d           2.607  -4.677  -2.623  0.00  0.00     0.235 C 
ATOM      2  O2  <0> d           2.867  -4.150  -3.683  0.00  0.00    -0.272 OA
ATOM      3  N3  <0> d           2.092  -3.945  -1.615  0.00  0.00    -0.279 N 
ATOM      4  C11 <0> d           1.867  -2.627  -1.786  0.00  0.00     0.323 C 
ATOM      5  O3  <0> d           2.127  -2.099  -2.849  0.00  0.00    -0.247 OA
ATOM      6  N4  <0> d           1.352  -1.895  -0.779  0.00  0.00    -0.337 N 
ATOM      7  H8  <0> d           1.884  -4.366  -0.767  0.00  0.00     0.173 HD
ATOM      8  H9  <0> d           1.143  -2.317   0.070  0.00  0.00     0.164 HD
ENDROOT
BRANCH   1   9
ATOM      9  C9  <0> d           2.859  -6.150  -2.432  0.00  0.00     0.186 C 
BRANCH   9  10
ATOM     10  S1  <0> d           3.548  -6.847  -3.954  0.00  0.00    -0.073 SA
BRANCH  10  11
ATOM     11  C8  <0> d           3.739  -8.528  -3.462  0.00  0.00     0.231 A 
ATOM     12  N2  <0> d           3.440  -9.032  -2.287  0.00  0.00    -0.114 NA
ATOM     13  N1  <0> d           3.706 -10.291  -2.281  0.00  0.00    -0.120 NA
ATOM     14  C7  <0> d           4.193 -10.639  -3.447  0.00  0.00     0.204 A 
ATOM     15  O1  <0> d           4.224  -9.530  -4.219  0.00  0.00    -0.263 OA
BRANCH  14  16
ATOM     16  C5  <0> d           4.628 -11.994  -3.845  0.00  0.00     0.036 A 
ATOM     17  C4  <0> d           4.538 -13.053  -2.939  0.00  0.00     0.025 A 
ATOM     18  C3  <0> d           4.946 -14.317  -3.317  0.00  0.00     0.020 A 
ATOM     19 Br1  <0> d           3.860 -12.758  -1.198  0.00  0.00    -0.050 Br
ATOM     20  C2  <0> d           5.441 -14.534  -4.590  0.00  0.00     0.001 A 
ATOM     21  C1  <0> d           5.532 -13.489  -5.493  0.00  0.00     0.001 A 
ATOM     22  C6  <0> d           5.124 -12.222  -5.130  0.00  0.00     0.017 A 
ENDBRANCH  14  16
ENDBRANCH  10  11
ENDBRANCH   9  10
ENDBRANCH   1   9
BRANCH   6  23
ATOM     23  C12 <0> d           1.107  -0.463  -0.965  0.00  0.00     0.101 C 
ATOM     24  C15 <0> d           2.411   0.322  -0.686  0.00  0.00     0.165 C 
ATOM     25  S2  <0> d           1.788   1.913  -0.005  0.00  0.00     0.146 S 
ATOM     26  C14 <0> d          -0.019   1.551   0.011  0.00  0.00     0.142 C 
ATOM     27  O4  <0> d           2.044   2.949  -0.943  0.00  0.00    -0.228 OA
ATOM     28  O5  <0> d           2.243   2.053   1.334  0.00  0.00    -0.228 OA
ATOM     29  C13 <0> d           0.002  -0.004   0.002  0.00  0.00     0.041 C 
ENDBRANCH   6  23
TORSDOF 5
