REMARK  5 active torsions:
REMARK  status: ('A' for Active; 'I' for Inactive)
REMARK    1  A    between atoms: C7_7  and  N1_8 
REMARK    2  A    between atoms: N1_8  and  C8_9 
REMARK    3  A    between atoms: N2_11  and  N3_12 
REMARK       I    between atoms: N3_12  and  C9_13 
REMARK    4  A    between atoms: C9_13  and  C10_15 
REMARK    5  A    between atoms: N5_18  and  C13_20 
ROOT
ATOM      1  N3  <0> d          -1.257   0.843   4.663  0.00  0.00    -0.264 N 
ATOM      2  C9  <0> d          -1.888   1.278   5.772  0.00  0.00     0.273 C 
ATOM      3  O1  <0> d          -1.273   1.396   6.814  0.00  0.00    -0.266 OA
ATOM      4  H16 <0> d          -1.748   0.748   3.831  0.00  0.00     0.190 HD
ENDROOT
BRANCH   1   5
ATOM      5  N2  <0> d           0.107   0.528   4.711  0.00  0.00    -0.274 N 
ATOM      6  C8  <0> d           0.738   0.093   3.602  0.00  0.00     0.186 C 
ATOM      7  S1  <0> d           2.405  -0.292   3.661  0.00  0.00    -0.040 SA
ATOM      8  H15 <0> d           0.598   0.623   5.542  0.00  0.00     0.189 HD
BRANCH   6   9
ATOM      9  N1  <0> d           0.056  -0.038   2.447  0.00  0.00    -0.361 N 
ATOM     10  H14 <0> d          -0.888   0.180   2.413  0.00  0.00     0.162 HD
BRANCH   9  11
ATOM     11  C7  <0> d           0.742  -0.511   1.242  0.00  0.00     0.087 C 
ATOM     12  C2  <0> d           0.002  -0.004   0.002  0.00  0.00     0.004 C 
ATOM     13  C1  <0> d          -0.019   1.526   0.010  0.00  0.00     0.012 C 
ATOM     14  C3  <0> d          -1.433  -0.534   0.013  0.00  0.00     0.006 C 
ATOM     15  C4  <0> d          -1.413  -2.063   0.004  0.00  0.00     0.001 C 
ATOM     16  C5  <0> d          -0.673  -2.570   1.244  0.00  0.00     0.002 C 
ATOM     17  C6  <0> d           0.763  -2.041   1.233  0.00  0.00     0.025 C 
ENDBRANCH   9  11
ENDBRANCH   6   9
ENDBRANCH   1   5
BRANCH   2  18
ATOM     18  C10 <0> d          -3.324   1.609   5.721  0.00  0.00     0.070 A 
ATOM     19  C12 <0> d          -4.097   2.063   6.771  0.00  0.00     0.137 A 
ATOM     20  N5  <0> d          -5.345   2.244   6.301  0.00  0.00    -0.243 N 
ATOM     21  N4  <0> d          -5.363   1.895   4.946  0.00  0.00    -0.179 NA
ATOM     22  C11 <0> d          -4.167   1.516   4.590  0.00  0.00     0.157 A 
BRANCH  20  23
ATOM     23  C13 <0> d          -6.442   2.702   7.044  0.00  0.00     0.079 A 
ATOM     24  C18 <0> d          -7.684   2.841   6.438  0.00  0.00     0.062 A 
ATOM     25  C17 <0> d          -8.765   3.286   7.176  0.00  0.00     0.026 A 
ATOM     26 Cl1  <0> d          -7.880   2.449   4.758  0.00  0.00    -0.082 Cl
ATOM     27  C16 <0> d          -8.608   3.604   8.512  0.00  0.00     0.002 A 
ATOM     28  C15 <0> d          -7.371   3.472   9.116  0.00  0.00     0.002 A 
ATOM     29  C14 <0> d          -6.288   3.022   8.386  0.00  0.00     0.033 A 
ENDBRANCH  20  23
ENDBRANCH   2  18
TORSDOF 5
