REMARK  6 active torsions:
REMARK  status: ('A' for Active; 'I' for Inactive)
REMARK    1  A    between atoms: C6_7  and  C8_11 
REMARK    2  A    between atoms: C8_11  and  S1_12 
REMARK    3  A    between atoms: S1_12  and  C9_13 
REMARK    4  A    between atoms: C9_13  and  C10_14 
REMARK       I    between atoms: C10_14  and  N3_16 
REMARK    5  A    between atoms: N3_16  and  C11_17 
REMARK    6  A    between atoms: C14_20  and  O3_23 
ROOT
ATOM      1  S1  <0> d          -3.958  -4.295   4.720  0.00  0.00    -0.152 SA
ENDROOT
BRANCH   1   2
ATOM      2  C8  <0> d          -2.257  -3.665   4.672  0.00  0.00     0.155 C 
BRANCH   2   3
ATOM      3  C6  <0> d          -2.063  -2.837   3.428  0.00  0.00     0.140 A 
ATOM      4  N1  <0> d          -0.876  -2.290   3.218  0.00  0.00    -0.225 NA
ATOM      5  C5  <0> d          -0.639  -1.559   2.155  0.00  0.00     0.112 A 
ATOM      6  C4  <0> d          -1.701  -1.325   1.153  0.00  0.00     0.073 A 
ATOM      7  S2  <0> d           0.772  -0.679   1.531  0.00  0.00    -0.100 SA
ATOM      8  C3  <0> d          -1.397  -0.568   0.088  0.00  0.00    -0.051 A 
ATOM      9  C7  <0> d          -3.005  -1.986   1.480  0.00  0.00     0.281 A 
ATOM     10  C2  <0> d           0.007  -0.014  -0.003  0.00  0.00     0.079 A 
ATOM     11  C17 <0> d          -2.420  -0.278  -0.980  0.00  0.00     0.046 C 
ATOM     12  C1  <0> d          -0.006   1.516   0.009  0.00  0.00     0.026 C 
ATOM     13  N2  <0> d          -3.078  -2.698   2.609  0.00  0.00    -0.193 NA
ATOM     14  O1  <0> d          -3.969  -1.877   0.741  0.00  0.00    -0.265 OA
ENDBRANCH   2   3
ENDBRANCH   1   2
BRANCH   1  15
ATOM     15  C9  <0> d          -4.027  -5.256   6.257  0.00  0.00     0.177 C 
BRANCH  15  16
ATOM     16  C10 <0> d          -5.405  -5.843   6.420  0.00  0.00     0.231 C 
ATOM     17  O2  <0> d          -6.257  -5.633   5.583  0.00  0.00    -0.272 OA
ATOM     18  N3  <0> d          -5.692  -6.600   7.498  0.00  0.00    -0.327 N 
ATOM     19  H9  <0> d          -4.993  -6.824   8.133  0.00  0.00     0.169 HD
BRANCH  18  20
ATOM     20  C11 <0> d          -6.998  -7.066   7.700  0.00  0.00     0.034 A 
ATOM     21  C16 <0> d          -7.786  -7.416   6.612  0.00  0.00     0.032 A 
ATOM     22  C15 <0> d          -9.071  -7.880   6.813  0.00  0.00     0.039 A 
ATOM     23  C14 <0> d          -9.579  -7.984   8.100  0.00  0.00     0.065 A 
ATOM     24  C13 <0> d          -8.793  -7.629   9.186  0.00  0.00     0.039 A 
ATOM     25  C12 <0> d          -7.506  -7.171   8.988  0.00  0.00     0.032 A 
BRANCH  23  26
ATOM     26  O3  <0> d         -10.846  -8.436   8.296  0.00  0.00    -0.361 OA
ATOM     27  H14 <0> d         -11.516  -7.738   8.301  0.00  0.00     0.217 HD
ENDBRANCH  23  26
ENDBRANCH  18  20
ENDBRANCH  15  16
ENDBRANCH   1  15
TORSDOF 6
