REMARK  4 active torsions:
REMARK  status: ('A' for Active; 'I' for Inactive)
REMARK    1  A    between atoms: N1_2  and  S1_4 
REMARK    2  A    between atoms: S1_4  and  C3_7 
REMARK    3  A    between atoms: C5_9  and  C9_14 
REMARK       I    between atoms: C9_14  and  N2_16 
REMARK    4  A    between atoms: N2_16  and  C10_17 
ROOT
ATOM      1  C3  <0> d          -1.884  -1.109  -1.669  0.00  0.00     0.119 A 
ATOM      2  C4  <0> d          -1.930  -2.388  -2.182  0.00  0.00     0.045 A 
ATOM      3  C5  <0> d          -2.297  -2.591  -3.514  0.00  0.00     0.034 A 
ATOM      4  C6  <0> d          -2.617  -1.495  -4.319  0.00  0.00     0.020 A 
ATOM      5  C7  <0> d          -2.568  -0.221  -3.796  0.00  0.00     0.045 A 
ATOM      6  C8  <0> d          -2.208  -0.026  -2.471  0.00  0.00     0.139 A 
ATOM      7  F1  <0> d          -2.168   1.225  -1.962  0.00  0.00    -0.204 F 
ENDROOT
BRANCH   3   8
ATOM      8  C9  <0> d          -2.347  -3.958  -4.069  0.00  0.00     0.257 C 
ATOM      9  O3  <0> d          -2.068  -4.910  -3.366  0.00  0.00    -0.267 OA
ATOM     10  N2  <0> d          -2.703  -4.151  -5.355  0.00  0.00    -0.301 N 
ATOM     11  H10 <0> d          -2.925  -3.391  -5.916  0.00  0.00     0.171 HD
BRANCH  10  12
ATOM     12  C10 <0> d          -2.749  -5.437  -5.877  0.00  0.00     0.173 A 
ATOM     13  S2  <0> d          -3.160  -5.918  -7.437  0.00  0.00    -0.062 SA
ATOM     14  C12 <0> d          -2.953  -7.678  -7.215  0.00  0.00     0.072 A 
ATOM     15  C11 <0> d          -2.581  -7.726  -5.912  0.00  0.00     0.126 A 
ATOM     16  N3  <0> d          -2.489  -6.575  -5.271  0.00  0.00    -0.236 NA
ENDBRANCH  10  12
ENDBRANCH   3   8
BRANCH   1  17
ATOM     17  S1  <0> d          -1.421  -0.852   0.011  0.00  0.00     0.263 S 
ATOM     18  O1  <0> d          -1.127  -2.132   0.552  0.00  0.00    -0.200 OA
ATOM     19  O2  <0> d          -2.401   0.008   0.576  0.00  0.00    -0.200 OA
BRANCH  17  20
ATOM     20  N1  <0> d           0.002  -0.004   0.002  0.00  0.00    -0.315 N 
ATOM     21  C1  <0> d          -0.018   1.461   0.010  0.00  0.00     0.162 C 
ATOM     22  C2  <0> d           1.281  -0.719  -0.014  0.00  0.00     0.162 C 
ENDBRANCH  17  20
ENDBRANCH   1  17
TORSDOF 4
