REMARK  2 active torsions:
REMARK  status: ('A' for Active; 'I' for Inactive)
REMARK    1  A    between atoms: C4_6  and  N4_11 
REMARK    2  A    between atoms: C5_7  and  C6_8 
ROOT
ATOM      1  C1  <0> d          -0.021   1.473   0.370  0.00  0.00     0.051 C 
ATOM      2  C2  <0> d          -0.002  -0.021   0.173  0.00  0.00    -0.019 A 
ATOM      3  C3  <0> d          -0.125  -0.577  -1.090  0.00  0.00     0.060 A 
ATOM      4  N1  <0> d          -0.106  -1.886  -1.243  0.00  0.00    -0.153 NA
ATOM      5  N2  <0> d           0.025  -2.697  -0.257  0.00  0.00    -0.131 NA
ATOM      6  C4  <0> d           0.150  -2.275   0.993  0.00  0.00     0.162 A 
ATOM      7  C5  <0> d           0.148  -0.892   1.260  0.00  0.00     0.057 A 
ATOM      8  C12 <0> d          -0.282   0.318  -2.292  0.00  0.00     0.073 C 
ENDROOT
BRANCH   6   9
ATOM      9  N4  <0> d           0.288  -3.184   2.027  0.00  0.00    -0.363 N 
ATOM     10  C10 <0> d           0.429  -4.644   1.873  0.00  0.00     0.128 C 
ATOM     11  C9  <0> d          -0.065  -5.235   3.215  0.00  0.00     0.001 C 
ATOM     12  C8  <0> d           0.455  -4.185   4.231  0.00  0.00     0.026 C 
ATOM     13  C11 <0> d           0.559  -6.608   3.476  0.00  0.00     0.011 C 
ATOM     14  C7  <0> d           0.312  -2.857   3.460  0.00  0.00     0.125 C 
ENDBRANCH   6   9
BRANCH   7  15
ATOM     15  C6  <0> d           0.291  -0.379   2.635  0.00  0.00     0.109 C 
ATOM     16  S1  <0> d           1.836   0.062   3.228  0.00  0.00    -0.060 SA
ATOM     17  N3  <0> d          -0.793  -0.257   3.426  0.00  0.00    -0.389 N 
ATOM     18  H5  <0> d          -1.677  -0.437   3.069  0.00  0.00     0.157 HD
ATOM     19  H6  <0> d          -0.690   0.010   4.353  0.00  0.00     0.157 HD
ENDBRANCH   7  15
TORSDOF 2
