REMARK  5 active torsions:
REMARK  status: ('A' for Active; 'I' for Inactive)
REMARK    1  A    between atoms: C3_3  and  C8_12 
REMARK    2  A    between atoms: C4_4  and  N2_7 
REMARK    3  A    between atoms: C8_12  and  N5_13 
REMARK       I    between atoms: N5_13  and  C9_14 
REMARK    4  A    between atoms: C9_14  and  C10_16 
REMARK    5  A    between atoms: C10_16  and  C11_17 
ROOT
ATOM      1  N5  <0> d           4.225   2.086  -1.388  0.00  0.00    -0.356 N 
ATOM      2  C9  <0> d           5.412   2.674  -1.639  0.00  0.00     0.222 C 
ATOM      3  O1  <0> d           6.040   3.181  -0.735  0.00  0.00    -0.273 OA
ATOM      4  H8  <0> d           3.722   1.679  -2.111  0.00  0.00     0.162 HD
ENDROOT
BRANCH   2   5
ATOM      5  C10 <0> d           5.957   2.700  -3.044  0.00  0.00     0.144 C 
BRANCH   5   6
ATOM      6  C11 <0> d           7.286   3.410  -3.053  0.00  0.00    -0.014 A 
ATOM      7  C14 <0> d           8.601   2.823  -2.765  0.00  0.00     0.007 A 
ATOM      8  C13 <0> d           9.521   3.877  -2.903  0.00  0.00     0.086 A 
ATOM      9  C15 <0> d           9.046   1.550  -2.421  0.00  0.00     0.022 A 
ATOM     10  O2  <0> d           8.818   4.980  -3.233  0.00  0.00    -0.321 OA
ATOM     11  C18 <0> d          10.870   3.631  -2.693  0.00  0.00     0.045 A 
ATOM     12  C12 <0> d           7.505   4.704  -3.320  0.00  0.00     0.151 A 
ATOM     13  C17 <0> d          11.301   2.365  -2.345  0.00  0.00    -0.049 A 
ATOM     14  C16 <0> d          10.392   1.325  -2.212  0.00  0.00    -0.051 A 
ATOM     15  C19 <0> d          12.700   1.856  -2.064  0.00  0.00     0.039 C 
ATOM     16  C21 <0> d          11.122   0.054  -1.835  0.00  0.00     0.039 C 
ATOM     17  C20 <0> d          12.502   0.517  -1.324  0.00  0.00     0.009 C 
ENDBRANCH   5   6
ENDBRANCH   2   5
BRANCH   1  18
ATOM     18  C8  <0> d           3.695   2.060  -0.023  0.00  0.00     0.165 C 
BRANCH  18  19
ATOM     19  C3  <0> d           2.365   1.350  -0.013  0.00  0.00     0.007 A 
ATOM     20  C2  <0> d           1.184   2.072   0.002  0.00  0.00     0.014 A 
ATOM     21  C1  <0> d          -0.017   1.377   0.010  0.00  0.00     0.020 A 
ATOM     22  C5  <0> d           0.002  -0.004   0.002  0.00  0.00     0.119 A 
ATOM     23  N1  <0> d           1.143  -0.665  -0.012  0.00  0.00    -0.241 NA
ATOM     24  C4  <0> d           2.308  -0.038  -0.020  0.00  0.00     0.159 A 
BRANCH  24  25
ATOM     25  N2  <0> d           3.494  -0.779  -0.036  0.00  0.00    -0.207 N 
ATOM     26  N4  <0> d           4.744  -0.360  -0.522  0.00  0.00    -0.158 NA
ATOM     27  C7  <0> d           5.572  -1.355  -0.344  0.00  0.00     0.257 A 
ATOM     28  N3  <0> d           4.915  -2.372   0.215  0.00  0.00    -0.233 NA
ATOM     29  C6  <0> d           3.664  -2.041   0.406  0.00  0.00     0.238 A 
ENDBRANCH  24  25
ENDBRANCH  18  19
ENDBRANCH   1  18
TORSDOF 5
