REMARK  8 active torsions:
REMARK  status: ('A' for Active; 'I' for Inactive)
REMARK    1  A    between atoms: C6_7  and  C9_10 
REMARK    2  A    between atoms: C9_10  and  C10_11 
REMARK    3  A    between atoms: C10_11  and  O2_13 
REMARK    4  A    between atoms: O2_13  and  C11_14 
REMARK    5  A    between atoms: C11_14  and  C12_15 
REMARK       I    between atoms: C12_15  and  N2_17 
REMARK    6  A    between atoms: N2_17  and  C13_18 
REMARK    7  A    between atoms: C16_21  and  S1_25 
REMARK    8  A    between atoms: S1_25  and  N3_28 
ROOT
ATOM      1  C12 <0> d          -0.502  -6.855  -3.870  0.00  0.00     0.246 C 
ATOM      2  O3  <0> d          -0.069  -7.901  -3.434  0.00  0.00    -0.271 OA
ATOM      3  N2  <0> d          -1.769  -6.787  -4.323  0.00  0.00    -0.322 N 
ATOM      4  H11 <0> d          -2.139  -5.934  -4.603  0.00  0.00     0.169 HD
ENDROOT
BRANCH   1   5
ATOM      5  C11 <0> d           0.378  -5.633  -3.905  0.00  0.00     0.281 C 
BRANCH   5   6
ATOM      6  O2  <0> d           1.665  -5.957  -3.376  0.00  0.00    -0.312 OA
BRANCH   6   7
ATOM      7  C10 <0> d           2.574  -4.970  -3.336  0.00  0.00     0.263 C 
ATOM      8  O1  <0> d           2.287  -3.867  -3.738  0.00  0.00    -0.265 OA
BRANCH   7   9
ATOM      9  C9  <0> d           3.953  -5.237  -2.791  0.00  0.00     0.148 C 
BRANCH   9  10
ATOM     10  C6  <0> d           4.773  -3.974  -2.857  0.00  0.00    -0.041 A 
ATOM     11  C5  <0> d           5.563  -3.464  -4.042  0.00  0.00     0.155 A 
ATOM     12  N1  <0> d           6.179  -2.207  -3.605  0.00  0.00    -0.385 N 
ATOM     13  C4  <0> d           5.828  -1.980  -2.362  0.00  0.00     0.038 A 
ATOM     14  H16 <0> d           6.749  -1.637  -4.144  0.00  0.00     0.160 HD
ATOM     15  C3  <0> d           6.140  -0.918  -1.468  0.00  0.00     0.030 A 
ATOM     16  C7  <0> d           4.951  -3.067  -1.870  0.00  0.00    -0.005 A 
ATOM     17  C2  <0> d           5.643  -0.915  -0.213  0.00  0.00     0.002 A 
ATOM     18  C1  <0> d           4.812  -1.932   0.275  0.00  0.00     0.001 A 
ATOM     19  C8  <0> d           4.454  -2.987  -0.492  0.00  0.00     0.014 A 
ENDBRANCH   9  10
ENDBRANCH   7   9
ENDBRANCH   6   7
ENDBRANCH   5   6
ENDBRANCH   1   5
BRANCH   3  20
ATOM     20  C13 <0> d          -2.553  -7.945  -4.389  0.00  0.00     0.078 A 
ATOM     21  C18 <0> d          -2.540  -8.731  -5.534  0.00  0.00     0.064 A 
ATOM     22  C17 <0> d          -3.310  -9.877  -5.593  0.00  0.00     0.051 A 
ATOM     23 Cl1  <0> d          -1.551  -8.278  -6.887  0.00  0.00    -0.082 Cl
ATOM     24  C16 <0> d          -4.102 -10.236  -4.518  0.00  0.00     0.082 A 
ATOM     25  C15 <0> d          -4.123  -9.453  -3.379  0.00  0.00     0.051 A 
ATOM     26  C14 <0> d          -3.351  -8.308  -3.311  0.00  0.00     0.064 A 
ATOM     27 Cl2  <0> d          -3.376  -7.326  -1.879  0.00  0.00    -0.082 Cl
BRANCH  24  28
ATOM     28  S1  <0> d          -5.088 -11.694  -4.600  0.00  0.00     0.256 S 
ATOM     29  O4  <0> d          -4.476 -12.544  -5.561  0.00  0.00    -0.201 OA
ATOM     30  O5  <0> d          -5.321 -12.103  -3.260  0.00  0.00    -0.201 OA
BRANCH  28  31
ATOM     31  N3  <0> d          -6.558 -11.257  -5.224  0.00  0.00    -0.324 N 
ATOM     32  H14 <0> d          -6.728 -10.332  -5.463  0.00  0.00     0.169 HD
ATOM     33  H15 <0> d          -7.250 -11.925  -5.350  0.00  0.00     0.169 HD
ENDBRANCH  28  31
ENDBRANCH  24  28
ENDBRANCH   3  20
TORSDOF 8
