REMARK  5 active torsions:
REMARK  status: ('A' for Active; 'I' for Inactive)
REMARK    1  A    between atoms: C3_3  and  C5_6 
REMARK    2  A    between atoms: C5_6  and  C6_7 
REMARK    3  A    between atoms: N1_10  and  C9_14 
REMARK    4  A    between atoms: C9_14  and  C10_15 
REMARK       I    between atoms: C10_15  and  N2_17 
REMARK    5  A    between atoms: N2_17  and  C11_18 
ROOT
ATOM      1  C6  <0> d           4.163  -0.595  -0.041  0.00  0.00     0.078 A 
ATOM      2  C7  <0> d           5.607  -0.881  -0.051  0.00  0.00     0.266 A 
ATOM      3  O2  <0> d           6.435   0.012  -0.048  0.00  0.00    -0.266 OA
ATOM      4  N1  <0> d           5.962  -2.155  -0.063  0.00  0.00    -0.289 N 
ATOM      5  C8  <0> d           5.042  -3.142  -0.065  0.00  0.00     0.149 A 
ATOM      6  S1  <0> d           5.297  -4.834  -0.079  0.00  0.00    -0.052 SA
ATOM      7  S2  <0> d           3.493  -2.253  -0.043  0.00  0.00    -0.055 SA
ENDROOT
BRANCH   4   8
ATOM      8  C9  <0> d           7.385  -2.503  -0.073  0.00  0.00     0.236 C 
BRANCH   8   9
ATOM      9  C10 <0> d           7.881  -2.633   1.344  0.00  0.00     0.236 C 
ATOM     10  O3  <0> d           7.120  -2.453   2.272  0.00  0.00    -0.272 OA
ATOM     11  N2  <0> d           9.169  -2.949   1.581  0.00  0.00    -0.354 N 
ATOM     12  H8  <0> d           9.777  -3.093   0.839  0.00  0.00     0.162 HD
BRANCH  11  13
ATOM     13  C11 <0> d           9.651  -3.075   2.958  0.00  0.00     0.099 C 
ATOM     14  C14 <0> d          11.172  -2.791   2.999  0.00  0.00     0.165 C 
ATOM     15  S3  <0> d          11.750  -3.870   4.370  0.00  0.00     0.146 S 
ATOM     16  C13 <0> d          10.161  -4.702   4.793  0.00  0.00     0.142 C 
ATOM     17  O4  <0> d          12.653  -4.835   3.849  0.00  0.00    -0.228 OA
ATOM     18  O5  <0> d          12.150  -3.056   5.464  0.00  0.00    -0.228 OA
ATOM     19  C12 <0> d           9.372  -4.499   3.468  0.00  0.00     0.041 C 
ENDBRANCH  11  13
ENDBRANCH   8   9
ENDBRANCH   4   8
BRANCH   1  20
ATOM     20  C5  <0> d           3.514   0.604  -0.029  0.00  0.00     0.061 C 
BRANCH  20  21
ATOM     21  C3  <0> d           2.101   0.643  -0.015  0.00  0.00     0.076 A 
ATOM     22  C2  <0> d           1.319   1.781  -0.001  0.00  0.00     0.039 A 
ATOM     23  C1  <0> d          -0.016   1.347   0.009  0.00  0.00     0.027 A 
ATOM     24  C4  <0> d           0.002  -0.004   0.002  0.00  0.00     0.142 A 
ATOM     25  O1  <0> d           1.276  -0.424  -0.012  0.00  0.00    -0.323 OA
ENDBRANCH  20  21
ENDBRANCH   1  20
TORSDOF 5
