REMARK  4 active torsions:
REMARK  status: ('A' for Active; 'I' for Inactive)
REMARK    1  A    between atoms: N1_2  and  C2_3 
REMARK       I    between atoms: N1_2  and  C7_9 
REMARK    2  A    between atoms: C2_3  and  C3_4 
REMARK    3  A    between atoms: C7_9  and  C8_11 
REMARK    4  A    between atoms: C8_11  and  N2_12 
ROOT
ATOM      1  N2  <0> d          -0.020  -0.857  -3.588  0.00  0.00    -0.259 N 
ATOM      2  C9  <0> d           1.098  -1.336  -4.175  0.00  0.00     0.256 A 
ATOM      3  O2  <0> d           2.247  -1.077  -3.890  0.00  0.00    -0.270 OA
ATOM      4  C10 <0> d           0.611  -2.262  -5.261  0.00  0.00     0.116 A 
ATOM      5  C11 <0> d           1.125  -3.691  -5.038  0.00  0.00     0.041 C 
ATOM      6  C12 <0> d           1.368  -4.230  -6.471  0.00  0.00     0.003 C 
ATOM      7  C13 <0> d           1.912  -2.987  -7.220  0.00  0.00     0.003 C 
ATOM      8  C14 <0> d           1.099  -1.808  -6.638  0.00  0.00     0.041 C 
ATOM      9  N3  <0> d          -0.849  -2.204  -5.165  0.00  0.00    -0.324 N 
ATOM     10  C15 <0> d          -1.127  -1.359  -4.152  0.00  0.00     0.326 A 
ATOM     11  O3  <0> d          -2.254  -1.080  -3.794  0.00  0.00    -0.247 OA
ATOM     12  H19 <0> d          -1.488  -2.681  -5.718  0.00  0.00     0.165 HD
ENDROOT
BRANCH   1  13
ATOM     13  C8  <0> d          -0.023   0.089  -2.470  0.00  0.00     0.239 C 
BRANCH  13  14
ATOM     14  C7  <0> d           0.000  -0.672  -1.169  0.00  0.00     0.238 C 
ATOM     15  N1  <0> d           0.002  -0.004   0.002  0.00  0.00    -0.350 N 
ATOM     16  C1  <0> d          -0.018   1.461   0.010  0.00  0.00     0.153 C 
ATOM     17  O1  <0> d           0.017  -1.884  -1.175  0.00  0.00    -0.272 OA
BRANCH  15  18
ATOM     18  C2  <0> d           0.024  -0.743   1.267  0.00  0.00     0.171 C 
BRANCH  18  19
ATOM     19  C3  <0> d          -1.389  -1.016   1.714  0.00  0.00     0.000 A 
ATOM     20  S1  <0> d          -2.453  -0.023   2.748  0.00  0.00    -0.105 SA
ATOM     21  C6  <0> d          -3.883  -1.091   2.738  0.00  0.00     0.050 A 
ATOM     22  C5  <0> d          -3.458  -2.121   1.965  0.00  0.00     0.008 A 
ATOM     23  C4  <0> d          -2.180  -2.082   1.440  0.00  0.00     0.017 A 
ENDBRANCH  18  19
ENDBRANCH  15  18
ENDBRANCH  13  14
ENDBRANCH   1  13
TORSDOF 4
