REMARK  6 active torsions:
REMARK  status: ('A' for Active; 'I' for Inactive)
REMARK    1  A    between atoms: C5_5  and  N1_9 
REMARK    2  A    between atoms: C6_6  and  O1_8 
REMARK       I    between atoms: N1_9  and  C8_10 
REMARK    3  A    between atoms: C8_10  and  C9_12 
REMARK    4  A    between atoms: C9_12  and  N2_14 
REMARK    5  A    between atoms: N2_14  and  S1_15 
REMARK    6  A    between atoms: S1_15  and  C11_18 
ROOT
ATOM      1  C9  <0> d           3.335  -1.625  -0.022  0.00  0.00     0.181 C 
ATOM      2  C10 <0> d           4.065  -1.414  -1.350  0.00  0.00     0.043 C 
ENDROOT
BRANCH   1   3
ATOM      3  C8  <0> d           1.888  -1.234  -0.177  0.00  0.00     0.245 C 
ATOM      4  N1  <0> d           1.565   0.027  -0.529  0.00  0.00    -0.323 N 
ATOM      5  H9  <0> d           2.357   0.747  -0.784  0.00  0.00     0.169 HD
ATOM      6  O2  <0> d           1.014  -2.052   0.016  0.00  0.00    -0.271 OA
BRANCH   4   7
ATOM      7  C5  <0> d           0.221   0.420  -0.570  0.00  0.00     0.068 A 
ATOM      8  C4  <0> d          -0.726  -0.260   0.182  0.00  0.00     0.033 A 
ATOM      9  C3  <0> d          -2.052   0.127   0.137  0.00  0.00     0.009 A 
ATOM     10  C2  <0> d          -2.437   1.197  -0.650  0.00  0.00    -0.059 A 
ATOM     11  C1  <0> d          -3.884   1.617  -0.692  0.00  0.00     0.048 C 
ATOM     12  C7  <0> d          -1.499   1.879  -1.403  0.00  0.00     0.045 A 
ATOM     13  C6  <0> d          -0.169   1.495  -1.366  0.00  0.00     0.092 A 
BRANCH  13  14
ATOM     14  O1  <0> d           0.755   2.165  -2.106  0.00  0.00    -0.358 OA
ATOM     15  H8  <0> d           0.446   3.013  -2.734  0.00  0.00     0.217 HD
ENDBRANCH  13  14
ENDBRANCH   4   7
ENDBRANCH   1   3
BRANCH   1  16
ATOM     16  N2  <0> d           3.420  -3.036   0.363  0.00  0.00    -0.302 N 
ATOM     17  H13 <0> d           2.613  -3.731   0.089  0.00  0.00     0.173 HD
BRANCH  16  18
ATOM     18  S1  <0> d           4.597  -3.538   1.414  0.00  0.00     0.260 S 
ATOM     19  O3  <0> d           4.426  -4.939   1.577  0.00  0.00    -0.200 OA
ATOM     20  O4  <0> d           5.817  -2.967   0.961  0.00  0.00    -0.200 OA
BRANCH  18  21
ATOM     21  C11 <0> d           4.247  -2.803   2.977  0.00  0.00     0.092 A 
ATOM     22  C16 <0> d           3.288  -3.358   3.802  0.00  0.00    -0.032 A 
ATOM     23  C15 <0> d           3.014  -2.782   5.029  0.00  0.00    -0.054 A 
ATOM     24  C17 <0> d           2.541  -4.592   3.366  0.00  0.00     0.050 C 
ATOM     25  C14 <0> d           3.699  -1.650   5.429  0.00  0.00     0.014 A 
ATOM     26  C18 <0> d           1.967  -3.387   5.929  0.00  0.00     0.049 C 
ATOM     27  C13 <0> d           4.659  -1.095   4.604  0.00  0.00    -0.054 A 
ATOM     28  C12 <0> d           4.937  -1.675   3.380  0.00  0.00    -0.032 A 
ATOM     29  C19 <0> d           5.406   0.139   5.040  0.00  0.00     0.049 C 
ATOM     30  C20 <0> d           5.988  -1.073   2.483  0.00  0.00     0.050 C 
ENDBRANCH  18  21
ENDBRANCH  16  18
ENDBRANCH   1  16
TORSDOF 6
