REMARK  4 active torsions:
REMARK  status: ('A' for Active; 'I' for Inactive)
REMARK    1  A    between atoms: C2_2  and  C3_3 
REMARK    2  A    between atoms: C3_3  and  N1_4 
REMARK    3  A    between atoms: C5_6  and  C7_9 
REMARK    4  A    between atoms: C7_9  and  N3_15 
ROOT
ATOM      1  C7  <0> d           0.123  -5.266  -2.680  0.00  0.00     0.157 C 
ATOM      2  C8  <0> d          -1.300  -5.710  -2.328  0.00  0.00     0.070 C 
ATOM      3  C9  <0> d          -1.627  -6.999  -3.087  0.00  0.00     0.170 C 
ATOM      4  O1  <0> d          -0.666  -8.002  -2.755  0.00  0.00    -0.391 OA
ATOM      5  C10 <0> d           0.677  -7.662  -3.105  0.00  0.00     0.170 C 
ATOM      6  C11 <0> d           1.097  -6.400  -2.347  0.00  0.00     0.070 C 
ENDROOT
BRANCH   1   7
ATOM      7  C5  <0> d           0.482  -4.041  -1.879  0.00  0.00     0.014 A 
ATOM      8  C4  <0> d           0.283  -2.757  -2.256  0.00  0.00     0.123 A 
ATOM      9  N1  <0> d           0.738  -1.962  -1.265  0.00  0.00    -0.281 N 
ATOM     10  N2  <0> d           1.238  -2.785  -0.247  0.00  0.00    -0.185 NA
ATOM     11  C6  <0> d           1.079  -4.031  -0.614  0.00  0.00     0.150 A 
BRANCH   9  12
ATOM     12  C3  <0> d           0.718  -0.497  -1.257  0.00  0.00     0.150 C 
BRANCH  12  13
ATOM     13  C2  <0> d           0.002  -0.004   0.002  0.00  0.00     0.017 C 
ATOM     14  C1  <0> d          -0.019   1.526   0.010  0.00  0.00     0.007 C 
ENDBRANCH  12  13
ENDBRANCH   9  12
ENDBRANCH   1   7
BRANCH   1  15
ATOM     15  N3  <0> d           0.202  -4.956  -4.114  0.00  0.00    -0.066 N 
ATOM     16  H18 <0> d           1.141  -4.668  -4.344  0.00  0.00     0.275 HD
ATOM     17  H19 <0> d          -0.039  -5.777  -4.649  0.00  0.00     0.275 HD
ATOM     18  H20 <0> d          -0.442  -4.211  -4.333  0.00  0.00     0.275 HD
ENDBRANCH   1  15
TORSDOF 4
