REMARK  5 active torsions:
REMARK  status: ('A' for Active; 'I' for Inactive)
REMARK    1  A    between atoms: C2_2  and  N1_3 
REMARK    2  A    between atoms: C6_7  and  C8_9 
REMARK    3  A    between atoms: C6_7  and  O1_26 
REMARK    4  A    between atoms: C8_9  and  N2_10 
REMARK    5  A    between atoms: C11_13  and  C14_16 
ROOT
ATOM      1  N2  <0> d           1.811  -4.578   3.792  0.00  0.00    -0.065 N 
ATOM      2  C9  <0> d           1.833  -6.044   3.667  0.00  0.00     0.240 C 
ATOM      3  C10 <0> d           2.681  -6.619   4.804  0.00  0.00     0.067 C 
ATOM      4  C11 <0> d           2.233  -6.030   6.114  0.00  0.00    -0.046 C 
ATOM      5  C12 <0> d           1.483  -4.949   6.180  0.00  0.00     0.008 C 
ATOM      6  C13 <0> d           1.005  -4.211   4.963  0.00  0.00     0.263 C 
ATOM      7  H30 <0> d           2.752  -4.234   3.909  0.00  0.00     0.280 HD
ENDROOT
BRANCH   1   8
ATOM      8  C8  <0> d           1.219  -3.990   2.583  0.00  0.00     0.274 C 
BRANCH   8   9
ATOM      9  C6  <0> d           2.170  -4.188   1.401  0.00  0.00     0.106 C 
ATOM     10  C5  <0> d           1.643  -3.418   0.187  0.00  0.00     0.043 C 
ATOM     11  C4  <0> d           2.641  -3.559  -0.966  0.00  0.00     0.031 C 
ATOM     12  C3  <0> d           4.013  -3.057  -0.511  0.00  0.00     0.235 C 
ATOM     13  N1  <0> d           4.473  -3.849   0.636  0.00  0.00    -0.069 N 
ATOM     14  C7  <0> d           3.559  -3.663   1.769  0.00  0.00     0.274 C 
ATOM     15  H29 <0> d           4.495  -4.825   0.380  0.00  0.00     0.280 HD
BRANCH  13  16
ATOM     16  C2  <0> d           5.822  -3.415   1.020  0.00  0.00     0.230 C 
ATOM     17  C1  <0> d           6.800  -3.724  -0.115  0.00  0.00     0.034 C 
ENDBRANCH  13  16
BRANCH   9  18
ATOM     18  O1  <0> d           2.255  -5.579   1.084  0.00  0.00    -0.386 OA
ATOM     19  H28 <0> d           1.427  -5.960   0.759  0.00  0.00     0.210 HD
ENDBRANCH   9  18
ENDBRANCH   8   9
ENDBRANCH   1   8
BRANCH   4  20
ATOM     20  C14 <0> d           2.647  -6.687   7.369  0.00  0.00    -0.001 A 
ATOM     21  C17 <0> d           3.680  -6.221   8.307  0.00  0.00     0.022 A 
ATOM     22  C16 <0> d           3.718  -7.166   9.349  0.00  0.00     0.138 A 
ATOM     23  C18 <0> d           4.536  -5.122   8.344  0.00  0.00     0.017 A 
ATOM     24  N3  <0> d           2.785  -8.133   9.056  0.00  0.00    -0.349 N 
ATOM     25  N4  <0> d           4.566  -7.002  10.356  0.00  0.00    -0.242 NA
ATOM     26  C15 <0> d           2.153  -7.844   7.881  0.00  0.00     0.102 A 
ATOM     27  H1  <0> d           2.602  -8.911   9.607  0.00  0.00     0.167 HD
ATOM     28  C20 <0> d           5.389  -5.976  10.407  0.00  0.00     0.119 A 
ATOM     29  C19 <0> d           5.402  -5.006   9.417  0.00  0.00     0.020 A 
ENDBRANCH   4  20
TORSDOF 5
