REMARK  3 active torsions:
REMARK  status: ('A' for Active; 'I' for Inactive)
REMARK    1  A    between atoms: C6_6  and  C8_9 
REMARK       I    between atoms: C8_9  and  N1_11 
REMARK    2  A    between atoms: C10_13  and  C17_21 
REMARK       I    between atoms: C17_21  and  N3_23 
REMARK    3  A    between atoms: N3_23  and  C18_24 
ROOT
ATOM      1  C8  <0> d          -0.100  -2.593   2.266  0.00  0.00     0.260 C 
ATOM      2  O1  <0> d           1.008  -2.803   2.720  0.00  0.00    -0.267 OA
ATOM      3  N1  <0> d          -1.191  -3.041   2.917  0.00  0.00    -0.346 N 
ATOM      4  C9  <0> d          -2.611  -2.890   2.522  0.00  0.00     0.141 C 
ATOM      5  C10 <0> d          -3.264  -4.243   2.883  0.00  0.00     0.106 C 
ATOM      6  C11 <0> d          -2.362  -4.833   3.980  0.00  0.00    -0.007 C 
ATOM      7  C12 <0> d          -1.242  -3.803   4.188  0.00  0.00     0.136 C 
ATOM      8  C13 <0> d          -3.154  -5.022   5.271  0.00  0.00     0.039 C 
ATOM      9  C14 <0> d          -2.251  -5.663   6.329  0.00  0.00     0.233 C 
ATOM     10  N2  <0> d          -1.762  -6.957   5.838  0.00  0.00    -0.075 N 
ATOM     11  C15 <0> d          -0.924  -6.757   4.649  0.00  0.00     0.233 C 
ATOM     12  C16 <0> d          -1.770  -6.162   3.520  0.00  0.00     0.039 C 
ATOM     13  H16 <0> d          -1.217  -7.405   6.560  0.00  0.00     0.277 HD
ATOM     14  H26 <0> d          -2.547  -7.544   5.599  0.00  0.00     0.277 HD
ENDROOT
BRANCH   1  15
ATOM     15  C6  <0> d          -0.250  -1.846   1.002  0.00  0.00     0.109 A 
ATOM     16  C5  <0> d          -0.266  -2.527  -0.220  0.00  0.00     0.135 A 
ATOM     17  C4  <0> d          -0.407  -1.819  -1.399  0.00  0.00     0.044 A 
ATOM     18  F2  <0> d          -0.143  -3.872  -0.247  0.00  0.00    -0.205 F 
ATOM     19  C3  <0> d          -0.533  -0.443  -1.373  0.00  0.00     0.013 A 
ATOM     20  C2  <0> d          -0.519   0.239  -0.169  0.00  0.00    -0.022 A 
ATOM     21  C1  <0> d          -0.657   1.739  -0.153  0.00  0.00     0.051 C 
ATOM     22  C7  <0> d          -0.373  -0.452   1.019  0.00  0.00     0.141 A 
ATOM     23  F1  <0> d          -0.353   0.216   2.193  0.00  0.00    -0.204 F 
ENDBRANCH   1  15
BRANCH   5  24
ATOM     24  C17 <0> d          -3.292  -5.150   1.680  0.00  0.00     0.225 C 
ATOM     25  O2  <0> d          -2.422  -5.067   0.838  0.00  0.00    -0.273 OA
ATOM     26  N3  <0> d          -4.283  -6.052   1.539  0.00  0.00    -0.347 N 
ATOM     27  H21 <0> d          -4.978  -6.118   2.212  0.00  0.00     0.163 HD
BRANCH  26  28
ATOM     28  C18 <0> d          -4.310  -6.934   0.369  0.00  0.00     0.186 C 
ATOM     29  C21 <0> d          -3.512  -8.196   0.636  0.00  0.00     0.281 C 
ATOM     30  O3  <0> d          -4.354  -9.252   0.625  0.00  0.00    -0.320 OA
ATOM     31  O4  <0> d          -2.320  -8.246   0.825  0.00  0.00    -0.263 OA
ATOM     32  C20 <0> d          -5.469  -8.934  -0.234  0.00  0.00     0.181 C 
ATOM     33  C19 <0> d          -5.749  -7.445   0.107  0.00  0.00     0.062 C 
ENDBRANCH  26  28
ENDBRANCH   5  24
TORSDOF 3
