REMARK  3 active torsions:
REMARK  status: ('A' for Active; 'I' for Inactive)
REMARK    1  A    between atoms: C7_8  and  N2_12 
REMARK       I    between atoms: N2_12  and  C10_13 
REMARK    2  A    between atoms: C10_13  and  C11_15 
REMARK    3  A    between atoms: N3_20  and  S2_21 
ROOT
ATOM      1  C1  <0> d           2.760  11.066  -0.203  0.00  0.00     0.010 C 
ATOM      2  C2  <0> d           2.898   9.929   0.812  0.00  0.00    -0.014 C 
ATOM      3  C3  <0> d           4.357   9.467   0.870  0.00  0.00     0.009 C 
ATOM      4  C4  <0> d           4.554   8.511   2.048  0.00  0.00     0.042 C 
ATOM      5  C5  <0> d           3.511   7.404   1.960  0.00  0.00    -0.021 A 
ATOM      6  C6  <0> d           2.401   7.553   1.204  0.00  0.00    -0.007 A 
ATOM      7  S1  <0> d           1.508   6.037   1.410  0.00  0.00    -0.075 SA
ATOM      8  C7  <0> d           2.593   5.218   2.484  0.00  0.00     0.098 A 
ATOM      9  C8  <0> d           3.616   6.137   2.663  0.00  0.00     0.085 A 
ATOM     10  C9  <0> d           4.736   5.846   3.505  0.00  0.00     0.103 C 
ATOM     11  N1  <0> d           5.625   5.615   4.174  0.00  0.00    -0.191 NA
ATOM     12  C17 <0> d           2.022   8.744   0.381  0.00  0.00     0.051 C 
ENDROOT
BRANCH   8  13
ATOM     13  N2  <0> d           2.466   3.951   3.037  0.00  0.00    -0.318 N 
ATOM     14  C10 <0> d           1.387   3.196   2.749  0.00  0.00     0.246 C 
ATOM     15  O1  <0> d           0.528   3.623   2.008  0.00  0.00    -0.271 OA
ATOM     16  H10 <0> d           3.153   3.609   3.630  0.00  0.00     0.169 HD
BRANCH  14  17
ATOM     17  C11 <0> d           1.249   1.820   3.349  0.00  0.00     0.188 C 
ATOM     18  N3  <0> d           1.004   0.840   2.283  0.00  0.00    -0.297 N 
ATOM     19  C15 <0> d           0.686  -0.545   2.656  0.00  0.00     0.136 C 
ATOM     20  C14 <0> d          -0.487  -0.541   3.634  0.00  0.00     0.021 C 
ATOM     21  C13 <0> d          -0.157   0.370   4.819  0.00  0.00     0.004 C 
ATOM     22  C12 <0> d           0.064   1.800   4.320  0.00  0.00     0.036 C 
BRANCH  18  23
ATOM     23  S2  <0> d           1.078   1.289   0.691  0.00  0.00     0.225 S 
ATOM     24  O2  <0> d           1.338   0.083  -0.015  0.00  0.00    -0.206 OA
ATOM     25  O3  <0> d           2.009   2.362   0.659  0.00  0.00    -0.206 OA
ATOM     26  C16 <0> d          -0.587   1.895   0.300  0.00  0.00     0.186 C 
ENDBRANCH  18  23
ENDBRANCH  14  17
ENDBRANCH   8  13
TORSDOF 3
