REMARK  3 active torsions:
REMARK  status: ('A' for Active; 'I' for Inactive)
REMARK    1  A    between atoms: C2_2  and  C3_3 
REMARK    2  A    between atoms: C2_2  and  N1_8 
REMARK    3  A    between atoms: N1_8  and  C7_9 
ROOT
ATOM      1  C7  <0> d           2.100  -0.070  -1.159  0.00  0.00     0.230 C 
ATOM      2  C8  <0> d           2.796  -0.776   0.006  0.00  0.00     0.141 C 
ATOM      3  C9  <0> d           4.285  -0.591  -0.099  0.00  0.00     0.226 C 
ATOM      4  O2  <0> d           4.947  -0.471   0.911  0.00  0.00    -0.273 OA
ATOM      5  N2  <0> d           4.893  -0.557  -1.299  0.00  0.00    -0.322 N 
ATOM      6  C10 <0> d           4.145  -0.677  -2.475  0.00  0.00     0.045 A 
ATOM      7  C11 <0> d           2.776  -0.448  -2.452  0.00  0.00    -0.000 A 
ATOM      8  C12 <0> d           2.037  -0.567  -3.612  0.00  0.00     0.011 A 
ATOM      9  C13 <0> d           2.660  -0.914  -4.797  0.00  0.00     0.001 A 
ATOM     10  C14 <0> d           4.024  -1.143  -4.823  0.00  0.00     0.002 A 
ATOM     11  C15 <0> d           4.768  -1.024  -3.666  0.00  0.00     0.030 A 
ATOM     12  C16 <0> d           6.346  -0.394  -1.375  0.00  0.00     0.159 C 
ENDROOT
BRANCH   1  13
ATOM     13  N1  <0> d           0.690  -0.478  -1.207  0.00  0.00    -0.057 N 
ATOM     14  H9  <0> d           0.632  -1.484  -1.254  0.00  0.00     0.278 HD
ATOM     15  H19 <0> d           0.251  -0.077  -2.022  0.00  0.00     0.278 HD
BRANCH  13  16
ATOM     16  C2  <0> d           0.002  -0.004   0.002  0.00  0.00     0.239 C 
ATOM     17  C1  <0> d          -0.019   1.526   0.010  0.00  0.00     0.047 C 
BRANCH  16  18
ATOM     18  C3  <0> d          -1.412  -0.526   0.013  0.00  0.00     0.083 A 
ATOM     19  O1  <0> d          -2.224  -0.614  -1.053  0.00  0.00    -0.325 OA
ATOM     20  C6  <0> d          -3.406  -1.127  -0.673  0.00  0.00     0.142 A 
ATOM     21  C5  <0> d          -3.361  -1.364   0.650  0.00  0.00     0.027 A 
ATOM     22  C4  <0> d          -2.076  -0.977   1.092  0.00  0.00     0.037 A 
ENDBRANCH  16  18
ENDBRANCH  13  16
ENDBRANCH   1  13
TORSDOF 3
