REMARK  4 active torsions:
REMARK  status: ('A' for Active; 'I' for Inactive)
REMARK    1  A    between atoms: C4_4  and  S1_7 
REMARK    2  A    between atoms: S1_7  and  C7_10 
REMARK    3  A    between atoms: C9_12  and  O4_16 
REMARK    4  A    between atoms: C11_14  and  O3_15 
ROOT
ATOM      1  C7  <0> d           2.662   2.190   1.765  0.00  0.00     0.069 C 
ATOM      2  C8  <0> d           2.060   1.161   1.233  0.00  0.00     0.026 C 
ATOM      3  C9  <0> d           1.286   1.562  -0.002  0.00  0.00     0.145 C 
ATOM      4  C10 <0> d           1.170   3.101   0.089  0.00  0.00     0.073 C 
ATOM      5  C11 <0> d           2.390   3.448   0.973  0.00  0.00     0.165 C 
ENDROOT
BRANCH   1   6
ATOM      6  S1  <0> d           3.660   2.121   3.215  0.00  0.00     0.205 S 
ATOM      7  O1  <0> d           3.215   3.170   4.064  0.00  0.00    -0.217 OA
ATOM      8  O2  <0> d           3.679   0.762   3.630  0.00  0.00    -0.217 OA
BRANCH   6   9
ATOM      9  C4  <0> d           5.306   2.525   2.735  0.00  0.00     0.064 A 
ATOM     10  C3  <0> d           5.729   3.841   2.755  0.00  0.00     0.024 A 
ATOM     11  C2  <0> d           7.021   4.157   2.378  0.00  0.00     0.002 A 
ATOM     12  C1  <0> d           7.890   3.158   1.982  0.00  0.00     0.000 A 
ATOM     13  C6  <0> d           7.467   1.842   1.962  0.00  0.00     0.002 A 
ATOM     14  C5  <0> d           6.177   1.525   2.343  0.00  0.00     0.024 A 
ENDBRANCH   6   9
ENDBRANCH   1   6
BRANCH   5  15
ATOM     15  O3  <0> d           3.518   3.779   0.161  0.00  0.00    -0.390 OA
ATOM     16  H11 <0> d           3.400   4.578  -0.370  0.00  0.00     0.210 HD
ENDBRANCH   5  15
BRANCH   3  17
ATOM     17  O4  <0> d          -0.011   0.963   0.007  0.00  0.00    -0.392 OA
ATOM     18  H12 <0> d           0.002  -0.004   0.002  0.00  0.00     0.210 HD
ENDBRANCH   3  17
TORSDOF 4
