REMARK  6 active torsions:
REMARK  status: ('A' for Active; 'I' for Inactive)
REMARK    1  A    between atoms: C5_5  and  C7_7 
REMARK    2  A    between atoms: C7_7  and  C8_8 
REMARK    3  A    between atoms: N1_11  and  C11_15 
REMARK    4  A    between atoms: C11_15  and  C12_16 
REMARK       I    between atoms: C12_16  and  N2_18 
REMARK    5  A    between atoms: N2_18  and  C13_19 
REMARK    6  A    between atoms: C18_24  and  O3_25 
ROOT
ATOM      1  C8  <0> d           0.289   0.032   0.183  0.00  0.00     0.076 A 
ATOM      2  C9  <0> d           0.366   1.507   0.149  0.00  0.00     0.266 A 
ATOM      3  O1  <0> d          -0.634   2.199   0.104  0.00  0.00    -0.266 OA
ATOM      4  N1  <0> d           1.578   2.037   0.164  0.00  0.00    -0.289 N 
ATOM      5  C10 <0> d           2.683   1.267   0.208  0.00  0.00     0.149 A 
ATOM      6  S1  <0> d           4.322   1.761   0.235  0.00  0.00    -0.052 SA
ATOM      7  S2  <0> d           2.025  -0.393   0.233  0.00  0.00    -0.055 SA
ENDROOT
BRANCH   4   8
ATOM      8  C11 <0> d           1.721   3.495   0.131  0.00  0.00     0.236 C 
BRANCH   8   9
ATOM      9  C12 <0> d           1.738   4.030   1.540  0.00  0.00     0.240 C 
ATOM     10  O2  <0> d           1.639   3.268   2.479  0.00  0.00    -0.271 OA
ATOM     11  N2  <0> d           1.862   5.354   1.756  0.00  0.00    -0.323 N 
ATOM     12  H8  <0> d           1.857   5.971   1.007  0.00  0.00     0.169 HD
BRANCH  11  13
ATOM     13  C13 <0> d           1.999   5.841   3.063  0.00  0.00     0.068 A 
ATOM     14  C18 <0> d           1.626   7.149   3.364  0.00  0.00     0.092 A 
ATOM     15  C17 <0> d           1.759   7.623   4.659  0.00  0.00     0.039 A 
ATOM     16  C16 <0> d           2.270   6.802   5.647  0.00  0.00     0.003 A 
ATOM     17  C15 <0> d           2.645   5.505   5.348  0.00  0.00     0.002 A 
ATOM     18  C14 <0> d           2.511   5.023   4.060  0.00  0.00     0.032 A 
BRANCH  14  19
ATOM     19  O3  <0> d           1.129   7.957   2.390  0.00  0.00    -0.358 OA
ATOM     20  H13 <0> d           0.168   7.915   2.297  0.00  0.00     0.217 HD
ENDBRANCH  14  19
ENDBRANCH  11  13
ENDBRANCH   8   9
ENDBRANCH   4   8
BRANCH   1  21
ATOM     21  C7  <0> d          -0.799  -0.778   0.177  0.00  0.00     0.037 C 
BRANCH  21  22
ATOM     22  C5  <0> d          -0.629  -2.236   0.112  0.00  0.00    -0.013 A 
ATOM     23  C4  <0> d          -1.554  -3.022  -0.586  0.00  0.00     0.044 A 
ATOM     24  C3  <0> d          -1.387  -4.391  -0.642  0.00  0.00     0.024 A 
ATOM     25 Cl1  <0> d          -2.907  -2.278  -1.379  0.00  0.00    -0.083 Cl
ATOM     26  C2  <0> d          -0.309  -4.986  -0.011  0.00  0.00     0.002 A 
ATOM     27  C1  <0> d           0.610  -4.216   0.681  0.00  0.00     0.001 A 
ATOM     28  C6  <0> d           0.461  -2.847   0.743  0.00  0.00     0.013 A 
ENDBRANCH  21  22
ENDBRANCH   1  21
TORSDOF 6
