REMARK  7 active torsions:
REMARK  status: ('A' for Active; 'I' for Inactive)
REMARK    1  A    between atoms: C2_2  and  C3_3 
REMARK    2  A    between atoms: C4_4  and  O3_11 
REMARK    3  A    between atoms: C5_6  and  O2_10 
REMARK    4  A    between atoms: N3_12  and  C7_13 
REMARK    5  A    between atoms: C7_13  and  C8_14 
REMARK    6  A    between atoms: C8_14  and  C9_15 
REMARK    7  A    between atoms: C9_15  and  N4_23 
ROOT
ATOM      1  C1  <0> d           0.526   4.423  -0.124  0.00  0.00     0.066 C 
ATOM      2  C2  <0> d           1.583   3.357   0.005  0.00  0.00     0.024 C 
ATOM      3  N3  <0> d           1.227   2.083   0.241  0.00  0.00    -0.297 NA
ENDROOT
BRANCH   2   4
ATOM      4  C3  <0> d           2.927   3.692  -0.120  0.00  0.00     0.203 A 
ATOM      5  C6  <0> d           3.977   2.656  -0.153  0.00  0.00     0.264 A 
ATOM      6  N2  <0> d           5.249   3.058  -0.275  0.00  0.00    -0.170 NA
ATOM      7  O1  <0> d           3.696   1.471  -0.071  0.00  0.00    -0.270 OA
ATOM      8  C5  <0> d           5.549   4.340  -0.362  0.00  0.00     0.271 A 
ATOM      9  N1  <0> d           4.639   5.303  -0.337  0.00  0.00    -0.186 NA
ATOM     10  C4  <0> d           3.346   5.045  -0.227  0.00  0.00     0.161 A 
BRANCH   8  11
ATOM     11  O2  <0> d           6.850   4.688  -0.484  0.00  0.00    -0.329 OA
ATOM     12  H4  <0> d           7.459   3.937  -0.495  0.00  0.00     0.221 HD
ENDBRANCH   8  11
BRANCH  10  13
ATOM     13  O3  <0> d           2.442   6.049  -0.210  0.00  0.00    -0.347 OA
ATOM     14  H5  <0> d           2.832   6.930  -0.288  0.00  0.00     0.219 HD
ENDBRANCH  10  13
ENDBRANCH   2   4
BRANCH   3  15
ATOM     15  C7  <0> d          -0.188   1.730   0.372  0.00  0.00     0.150 C 
BRANCH  15  16
ATOM     16  C8  <0> d          -0.318   0.229   0.635  0.00  0.00     0.049 C 
BRANCH  16  17
ATOM     17  C9  <0> d          -1.796  -0.140   0.772  0.00  0.00     0.236 C 
BRANCH  17  18
ATOM     18  N4  <0> d          -1.902  -1.587   1.048  0.00  0.00    -0.071 N 
ATOM     19  C10 <0> d          -1.467  -2.360  -0.135  0.00  0.00     0.235 C 
ATOM     20  C11 <0> d          -1.473  -3.850   0.215  0.00  0.00     0.028 C 
ATOM     21  C12 <0> d          -2.890  -4.270   0.613  0.00  0.00     0.003 C 
ATOM     22  C13 <0> d          -3.357  -3.411   1.792  0.00  0.00     0.028 C 
ATOM     23  C14 <0> d          -3.296  -1.934   1.396  0.00  0.00     0.235 C 
ATOM     24  H23 <0> d          -1.293  -1.821   1.841  0.00  0.00     0.279 HD
ENDBRANCH  17  18
ENDBRANCH  16  17
ENDBRANCH  15  16
ENDBRANCH   3  15
TORSDOF 7
