REMARK  1 active torsions:
REMARK  status: ('A' for Active; 'I' for Inactive)
REMARK    1  A    between atoms: C5_8  and  C6_11 
ROOT
ATOM      1  C1  <0> d          -0.019   1.526   0.010  0.00  0.00     0.029 C 
ATOM      2  C2  <0> d           0.002  -0.004   0.002  0.00  0.00     0.087 C 
ATOM      3  C3  <0> d          -1.442  -0.529  -0.005  0.00  0.00     0.070 C 
ATOM      4  S1  <0> d          -1.356  -2.327  -0.314  0.00  0.00    -0.083 SA
ATOM      5  C4  <0> d           0.030  -2.764   0.693  0.00  0.00     0.206 A 
ATOM      6  N1  <0> d           0.464  -3.941   1.029  0.00  0.00    -0.121 NA
ATOM      7  N2  <0> d           1.515  -3.814   1.766  0.00  0.00    -0.132 NA
ATOM      8  C5  <0> d           1.796  -2.550   1.934  0.00  0.00     0.149 A 
ATOM      9  N3  <0> d           0.853  -1.829   1.263  0.00  0.00    -0.236 N 
ATOM     10  N4  <0> d           0.725  -0.481   1.180  0.00  0.00    -0.225 NA
ATOM     11  C9  <0> d          -2.241   0.156  -1.116  0.00  0.00     0.023 C 
ATOM     12  H6  <0> d           1.623  -0.028   1.261  0.00  0.00     0.147 HD
ENDROOT
BRANCH   8  13
ATOM     13  C6  <0> d           2.951  -1.991   2.724  0.00  0.00     0.059 A 
ATOM     14  C8  <0> d           3.023  -2.339   4.213  0.00  0.00     0.013 A 
ATOM     15  C7  <0> d           4.005  -2.978   3.229  0.00  0.00     0.013 A 
ENDBRANCH   8  13
TORSDOF 1
