REMARK  3 active torsions:
REMARK  status: ('A' for Active; 'I' for Inactive)
REMARK    1  A    between atoms: C9_10  and  N4_18 
REMARK    2  A    between atoms: C10_12  and  C11_14 
REMARK    3  A    between atoms: C11_14  and  N3_15 
ROOT
ATOM      1  C1  <0> d           0.030   1.511  -0.046  0.00  0.00     0.010 C 
ATOM      2  C2  <0> d           0.039  -0.019  -0.043  0.00  0.00    -0.014 C 
ATOM      3  C3  <0> d          -1.400  -0.542  -0.015  0.00  0.00     0.009 C 
ATOM      4  C4  <0> d          -1.409  -2.051  -0.260  0.00  0.00     0.041 C 
ATOM      5  C5  <0> d          -0.452  -2.717   0.725  0.00  0.00    -0.028 A 
ATOM      6  C6  <0> d           0.501  -1.993   1.353  0.00  0.00    -0.008 A 
ATOM      7  S1  <0> d           1.365  -3.152   2.385  0.00  0.00    -0.073 SA
ATOM      8  C7  <0> d           0.449  -4.603   1.976  0.00  0.00     0.114 A 
ATOM      9  C8  <0> d          -0.508  -4.135   1.040  0.00  0.00     0.053 A 
ATOM     10  C9  <0> d          -1.416  -5.098   0.513  0.00  0.00     0.141 A 
ATOM     11  N1  <0> d          -1.265  -6.343   0.961  0.00  0.00    -0.213 NA
ATOM     12  C10 <0> d          -0.348  -6.705   1.835  0.00  0.00     0.155 A 
ATOM     13  N2  <0> d           0.528  -5.859   2.364  0.00  0.00    -0.224 NA
ATOM     14  C18 <0> d           0.773  -0.527   1.206  0.00  0.00     0.051 C 
ENDROOT
BRANCH  10  15
ATOM     15  N4  <0> d          -2.393  -4.761  -0.406  0.00  0.00    -0.362 N 
ATOM     16  C17 <0> d          -3.765  -4.455   0.028  0.00  0.00     0.152 C 
ATOM     17  C16 <0> d          -4.740  -5.281  -0.810  0.00  0.00     0.252 C 
ATOM     18  N5  <0> d          -4.486  -5.042  -2.236  0.00  0.00    -0.072 N 
ATOM     19  C15 <0> d          -3.147  -5.525  -2.594  0.00  0.00     0.252 C 
ATOM     20  H21 <0> d          -4.548  -4.052  -2.426  0.00  0.00     0.277 HD
ATOM     21  H28 <0> d          -5.177  -5.530  -2.786  0.00  0.00     0.277 HD
ATOM     22  C14 <0> d          -2.092  -4.704  -1.844  0.00  0.00     0.152 C 
ENDBRANCH  10  15
BRANCH  12  23
ATOM     23  C11 <0> d          -0.290  -8.152   2.255  0.00  0.00     0.314 C 
BRANCH  23  24
ATOM     24  N3  <0> d           0.610  -8.887   1.356  0.00  0.00    -0.072 N 
ATOM     25  C12 <0> d           0.760 -10.267   1.836  0.00  0.00     0.269 C 
ATOM     26  C13 <0> d           0.046  -8.898  -0.000  0.00  0.00     0.269 C 
ATOM     27  H29 <0> d           1.513  -8.436   1.342  0.00  0.00     0.279 HD
ENDBRANCH  23  24
ENDBRANCH  12  23
TORSDOF 3
