REMARK  8 active torsions:
REMARK  status: ('A' for Active; 'I' for Inactive)
REMARK    1  A    between atoms: C2_2  and  C3_3 
REMARK    2  A    between atoms: C2_2  and  N1_10 
REMARK    3  A    between atoms: C3_3  and  C4_4 
REMARK    4  A    between atoms: C4_4  and  C5_5 
REMARK    5  A    between atoms: C5_5  and  C6_6 
REMARK    6  A    between atoms: C6_6  and  O1_9 
REMARK       I    between atoms: N1_10  and  C9_11 
REMARK    7  A    between atoms: C9_11  and  C10_13 
REMARK       I    between atoms: N2_15  and  C18_23 
REMARK    8  A    between atoms: C18_23  and  C19_25 
ROOT
ATOM      1  C10 <0> d           2.783  -1.099   2.395  0.00  0.00     0.106 C 
ATOM      2  C11 <0> d           2.678  -0.070   3.542  0.00  0.00     0.141 C 
ATOM      3  N2  <0> d           3.999  -0.120   4.212  0.00  0.00    -0.346 N 
ATOM      4  C12 <0> d           4.971  -0.257   3.101  0.00  0.00     0.136 C 
ATOM      5  C13 <0> d           4.289  -1.218   2.107  0.00  0.00    -0.007 C 
ATOM      6  C14 <0> d           4.761  -2.649   2.350  0.00  0.00     0.039 C 
ATOM      7  C15 <0> d           6.249  -2.756   2.003  0.00  0.00     0.233 C 
ATOM      8  N3  <0> d           6.454  -2.382   0.598  0.00  0.00    -0.075 N 
ATOM      9  C16 <0> d           6.084  -0.977   0.394  0.00  0.00     0.233 C 
ATOM     10  C17 <0> d           4.589  -0.795   0.673  0.00  0.00     0.039 C 
ATOM     11  C18 <0> d           4.258  -0.056   5.533  0.00  0.00     0.257 C 
ATOM     12  O3  <0> d           5.406  -0.110   5.931  0.00  0.00    -0.267 OA
ATOM     13  H28 <0> d           7.425  -2.512   0.356  0.00  0.00     0.277 HD
ATOM     14  H36 <0> d           5.881  -2.968   0.009  0.00  0.00     0.277 HD
ENDROOT
BRANCH   1  15
ATOM     15  C9  <0> d           2.054  -0.600   1.174  0.00  0.00     0.224 C 
ATOM     16  N1  <0> d           1.500  -1.477   0.314  0.00  0.00    -0.356 N 
ATOM     17  H19 <0> d           1.571  -2.430   0.480  0.00  0.00     0.162 HD
ATOM     18  O2  <0> d           1.965   0.592   0.965  0.00  0.00    -0.273 OA
BRANCH  16  19
ATOM     19  C2  <0> d           0.792  -0.992  -0.873  0.00  0.00     0.080 C 
ATOM     20  C1  <0> d          -0.657  -0.665  -0.504  0.00  0.00     0.032 C 
BRANCH  19  21
ATOM     21  C3  <0> d           0.810  -2.073  -1.956  0.00  0.00     0.025 C 
BRANCH  21  22
ATOM     22  C4  <0> d           2.250  -2.312  -2.414  0.00  0.00     0.005 C 
BRANCH  22  23
ATOM     23  C5  <0> d           2.269  -3.393  -3.496  0.00  0.00     0.037 C 
BRANCH  23  24
ATOM     24  C6  <0> d           3.709  -3.631  -3.954  0.00  0.00     0.051 C 
ATOM     25  C7  <0> d           4.554  -4.088  -2.763  0.00  0.00     0.045 C 
ATOM     26  C8  <0> d           3.728  -4.713  -5.037  0.00  0.00     0.045 C 
BRANCH  24  27
ATOM     27  O1  <0> d           4.248  -2.418  -4.483  0.00  0.00    -0.391 OA
ATOM     28  H18 <0> d           3.761  -2.070  -5.243  0.00  0.00     0.210 HD
ENDBRANCH  24  27
ENDBRANCH  23  24
ENDBRANCH  22  23
ENDBRANCH  21  22
ENDBRANCH  19  21
ENDBRANCH  16  19
ENDBRANCH   1  15
BRANCH  11  29
ATOM     29  C19 <0> d           3.148   0.081   6.498  0.00  0.00     0.075 A 
ATOM     30  C24 <0> d           2.704   1.349   6.881  0.00  0.00     0.051 A 
ATOM     31  C23 <0> d           1.661   1.469   7.779  0.00  0.00     0.025 A 
ATOM     32 Cl1  <0> d           3.455   2.770   6.225  0.00  0.00    -0.083 Cl
ATOM     33  C22 <0> d           1.066   0.338   8.308  0.00  0.00     0.003 A 
ATOM     34  C21 <0> d           1.504  -0.921   7.937  0.00  0.00     0.025 A 
ATOM     35  C20 <0> d           2.541  -1.057   7.035  0.00  0.00     0.051 A 
ATOM     36 Cl2  <0> d           3.089  -2.637   6.571  0.00  0.00    -0.083 Cl
ENDBRANCH  11  29
TORSDOF 8
