REMARK  5 active torsions:
REMARK  status: ('A' for Active; 'I' for Inactive)
REMARK    1  A    between atoms: O1_2  and  C2_3 
REMARK    2  A    between atoms: C9_12  and  C11_14 
REMARK    3  A    between atoms: C11_14  and  N3_26 
REMARK    4  A    between atoms: N1_15  and  N2_16 
REMARK       I    between atoms: N2_16  and  C12_17 
REMARK    5  A    between atoms: C12_17  and  C13_19 
ROOT
ATOM      1  C11 <0> d           1.170   3.366   0.009  0.00  0.00     0.130 C 
ATOM      2  N1  <0> d           1.187   2.061   0.002  0.00  0.00    -0.282 N 
ATOM      3  H15 <0> d           2.147   1.524  -0.010  0.00  0.00     0.188 HD
ENDROOT
BRANCH   1   4
ATOM      4  C9  <0> d           2.437   4.120   0.001  0.00  0.00     0.085 A 
ATOM      5  C8  <0> d           3.725   3.418  -0.015  0.00  0.00     0.302 A 
ATOM      6  O2  <0> d           4.879   4.101  -0.022  0.00  0.00    -0.271 OA
ATOM      7  O3  <0> d           3.746   2.201  -0.022  0.00  0.00    -0.259 OA
ATOM      8  C7  <0> d           4.911   5.450  -0.015  0.00  0.00     0.123 A 
ATOM      9  C2  <0> d           6.134   6.121  -0.022  0.00  0.00     0.102 A 
ATOM     10  C6  <0> d           3.721   6.197   0.000  0.00  0.00     0.002 A 
ATOM     11  C3  <0> d           6.162   7.504  -0.014  0.00  0.00     0.040 A 
ATOM     12  C4  <0> d           4.982   8.234   0.001  0.00  0.00     0.004 A 
ATOM     13  C5  <0> d           3.773   7.598   0.008  0.00  0.00     0.014 A 
ATOM     14  C10 <0> d           2.433   5.503   0.003  0.00  0.00     0.035 A 
BRANCH   9  15
ATOM     15  O1  <0> d           7.297   5.417  -0.037  0.00  0.00    -0.353 OA
ATOM     16  C1  <0> d           8.512   6.170  -0.044  0.00  0.00     0.210 C 
ENDBRANCH   9  15
ENDBRANCH   1   4
BRANCH   1  17
ATOM     17  N3  <0> d          -0.043   4.044   0.024  0.00  0.00    -0.384 N 
ATOM     18  H13 <0> d          -0.988   3.481   0.030  0.00  0.00     0.157 HD
ATOM     19  H14 <0> d          -0.058   5.144   0.030  0.00  0.00     0.157 HD
ENDBRANCH   1  17
BRANCH   2  20
ATOM     20  N2  <0> d          -0.016   1.344   0.009  0.00  0.00    -0.264 N 
ATOM     21  C12 <0> d           0.002  -0.004   0.002  0.00  0.00     0.270 C 
ATOM     22  O4  <0> d           1.064  -0.598  -0.011  0.00  0.00    -0.266 OA
ATOM     23  H8  <0> d          -0.976   1.881   0.021  0.00  0.00     0.190 HD
BRANCH  21  24
ATOM     24  C13 <0> d          -1.267  -0.760   0.010  0.00  0.00     0.033 A 
ATOM     25  C18 <0> d          -1.252  -2.156   0.002  0.00  0.00     0.018 A 
ATOM     26  C17 <0> d          -2.440  -2.856   0.011  0.00  0.00     0.020 A 
ATOM     27  C16 <0> d          -3.647  -2.178   0.026  0.00  0.00     0.011 A 
ATOM     28  C15 <0> d          -3.669  -0.793   0.033  0.00  0.00     0.020 A 
ATOM     29 Br1  <0> d          -5.271  -3.145   0.035  0.00  0.00    -0.051 Br
ATOM     30  C14 <0> d          -2.487  -0.082   0.031  0.00  0.00     0.018 A 
ENDBRANCH  21  24
ENDBRANCH   2  20
TORSDOF 5
