REMARK  7 active torsions:
REMARK  status: ('A' for Active; 'I' for Inactive)
REMARK    1  A    between atoms: C5_5  and  C7_8 
REMARK       I    between atoms: C7_8  and  N2_10 
REMARK    2  A    between atoms: N2_10  and  C8_11 
REMARK    3  A    between atoms: N2_10  and  C10_14 
REMARK    4  A    between atoms: C8_11  and  C9_12 
REMARK    5  A    between atoms: C9_12  and  O2_13 
REMARK    6  A    between atoms: C10_14  and  C11_15 
REMARK    7  A    between atoms: C11_15  and  O3_16 
ROOT
ATOM      1  C7  <0> d          -0.424  -4.189   0.214  0.00  0.00     0.255 C 
ATOM      2  O1  <0> d          -0.560  -2.981   0.223  0.00  0.00    -0.267 OA
ATOM      3  N2  <0> d          -0.036  -4.831   1.333  0.00  0.00    -0.344 N 
ENDROOT
BRANCH   1   4
ATOM      4  C5  <0> d          -0.684  -4.953  -1.025  0.00  0.00     0.049 A 
ATOM      5  C4  <0> d           0.212  -5.939  -1.454  0.00  0.00     0.020 A 
ATOM      6  C3  <0> d          -0.078  -6.626  -2.620  0.00  0.00     0.028 A 
ATOM      7  C2  <0> d          -1.233  -6.319  -3.317  0.00  0.00     0.030 A 
ATOM      8  C1  <0> d          -1.552  -7.065  -4.587  0.00  0.00     0.070 C 
ATOM      9  N1  <0> d          -2.057  -5.380  -2.891  0.00  0.00    -0.265 NA
ATOM     10  C6  <0> d          -1.827  -4.703  -1.785  0.00  0.00     0.134 A 
ENDBRANCH   1   4
BRANCH   3  11
ATOM     11  C8  <0> d           0.128  -4.088   2.585  0.00  0.00     0.152 C 
BRANCH  11  12
ATOM     12  C9  <0> d          -1.226  -3.965   3.287  0.00  0.00     0.184 C 
BRANCH  12  13
ATOM     13  O2  <0> d          -1.681  -5.263   3.674  0.00  0.00    -0.399 OA
ATOM     14  H11 <0> d          -2.536  -5.261   4.126  0.00  0.00     0.209 HD
ENDBRANCH  12  13
ENDBRANCH  11  12
ENDBRANCH   3  11
BRANCH   3  15
ATOM     15  C10 <0> d           0.221  -6.273   1.298  0.00  0.00     0.152 C 
BRANCH  15  16
ATOM     16  C11 <0> d           1.726  -6.520   1.183  0.00  0.00     0.184 C 
BRANCH  16  17
ATOM     17  O3  <0> d           2.372  -6.094   2.385  0.00  0.00    -0.399 OA
ATOM     18  H16 <0> d           3.330  -6.221   2.383  0.00  0.00     0.209 HD
ENDBRANCH  16  17
ENDBRANCH  15  16
ENDBRANCH   3  15
TORSDOF 7
