REMARK  9 active torsions:
REMARK  status: ('A' for Active; 'I' for Inactive)
REMARK    1  A    between atoms: O1_2  and  C2_3 
REMARK    2  A    between atoms: C4_5  and  O7_23 
REMARK    3  A    between atoms: C5_6  and  C8_11 
REMARK    4  A    between atoms: C6_7  and  O3_10 
REMARK    5  A    between atoms: C7_8  and  O2_9 
REMARK    6  A    between atoms: C8_11  and  C9_13 
REMARK    7  A    between atoms: C10_14  and  C11_15 
REMARK    8  A    between atoms: C14_18  and  O6_22 
REMARK    9  A    between atoms: C15_19  and  O5_21 
ROOT
ATOM      1  C2  <0> d           9.789   0.154   0.234  0.00  0.00     0.106 A 
ATOM      2  C3  <0> d           9.093   0.486   1.389  0.00  0.00     0.077 A 
ATOM      3  C4  <0> d           7.893   1.167   1.307  0.00  0.00     0.085 A 
ATOM      4  C5  <0> d           7.370   1.515   0.051  0.00  0.00     0.083 A 
ATOM      5  C6  <0> d           8.078   1.178  -1.114  0.00  0.00     0.118 A 
ATOM      6  C7  <0> d           9.282   0.499  -1.015  0.00  0.00     0.133 A 
ENDROOT
BRANCH   4   7
ATOM      7  C8  <0> d           6.091   2.236  -0.044  0.00  0.00     0.187 C 
ATOM      8  O4  <0> d           6.080   3.452  -0.124  0.00  0.00    -0.287 OA
BRANCH   7   9
ATOM      9  C9  <0> d           4.831   1.492  -0.043  0.00  0.00     0.056 C 
ATOM     10  C10 <0> d           3.655   2.156  -0.024  0.00  0.00     0.015 C 
BRANCH  10  11
ATOM     11  C11 <0> d           2.389   1.409  -0.022  0.00  0.00    -0.033 A 
ATOM     12  C16 <0> d           1.169   2.095  -0.002  0.00  0.00     0.050 A 
ATOM     13  C15 <0> d          -0.017   1.388  -0.001  0.00  0.00     0.099 A 
ATOM     14  C14 <0> d           0.003  -0.006  -0.019  0.00  0.00     0.098 A 
ATOM     15  C13 <0> d           1.213  -0.688  -0.039  0.00  0.00     0.040 A 
ATOM     16  C12 <0> d           2.400   0.010  -0.040  0.00  0.00     0.014 A 
BRANCH  13  17
ATOM     17  O5  <0> d          -1.204   2.051   0.012  0.00  0.00    -0.358 OA
ATOM     18  H12 <0> d          -1.219   3.151   0.027  0.00  0.00     0.217 HD
ENDBRANCH  13  17
BRANCH  14  19
ATOM     19  O6  <0> d          -1.165  -0.700  -0.018  0.00  0.00    -0.358 OA
ATOM     20  H13 <0> d          -2.124  -0.161  -0.003  0.00  0.00     0.217 HD
ENDBRANCH  14  19
ENDBRANCH  10  11
ENDBRANCH   7   9
ENDBRANCH   4   7
BRANCH   3  21
ATOM     21  O7  <0> d           7.218   1.495   2.438  0.00  0.00    -0.360 OA
ATOM     22  H14 <0> d           6.263   2.038   2.372  0.00  0.00     0.217 HD
ENDBRANCH   3  21
BRANCH   5  23
ATOM     23  O3  <0> d           7.583   1.514  -2.333  0.00  0.00    -0.357 OA
ATOM     24  H6  <0> d           8.139   1.249  -3.244  0.00  0.00     0.217 HD
ENDBRANCH   5  23
BRANCH   6  25
ATOM     25  O2  <0> d           9.972   0.171  -2.143  0.00  0.00    -0.356 OA
ATOM     26  H5  <0> d           9.572   0.443  -3.131  0.00  0.00     0.218 HD
ENDBRANCH   6  25
BRANCH   1  27
ATOM     27  O1  <0> d          10.969  -0.511   0.324  0.00  0.00    -0.353 OA
ATOM     28  C1  <0> d          11.433  -0.836   1.637  0.00  0.00     0.210 C 
ENDBRANCH   1  27
TORSDOF 9
