REMARK  4 active torsions:
REMARK  status: ('A' for Active; 'I' for Inactive)
REMARK    1  A    between atoms: C3_4  and  S1_7 
REMARK    2  A    between atoms: S1_7  and  N3_10 
REMARK    3  A    between atoms: N3_10  and  C5_11 
REMARK    4  A    between atoms: C9_15  and  C10_16 
ROOT
ATOM      1  N3  <0> d           0.874  -4.747  -0.846  0.00  0.00    -0.309 N 
ATOM      2  H8  <0> d           1.682  -5.146  -1.205  0.00  0.00     0.172 HD
ENDROOT
BRANCH   1   3
ATOM      3  S1  <0> d           0.132  -3.508  -1.656  0.00  0.00     0.278 S 
ATOM      4  O1  <0> d          -1.247  -3.845  -1.739  0.00  0.00    -0.199 OA
ATOM      5  O2  <0> d           0.922  -3.244  -2.807  0.00  0.00    -0.199 OA
BRANCH   3   6
ATOM      6  C3  <0> d           0.240  -2.078  -0.631  0.00  0.00     0.188 A 
ATOM      7  C2  <0> d           0.302  -0.802  -1.058  0.00  0.00     0.137 A 
ATOM      8  N1  <0> d           0.376  -0.015   0.060  0.00  0.00    -0.353 N 
ATOM      9  C1  <0> d           0.462   1.447   0.088  0.00  0.00     0.156 C 
ATOM     10  C4  <0> d           0.361  -0.838   1.130  0.00  0.00     0.210 A 
ATOM     11  N2  <0> d           0.275  -2.070   0.710  0.00  0.00    -0.229 NA
ENDBRANCH   3   6
ENDBRANCH   1   3
BRANCH   1  12
ATOM     12  C5  <0> d           0.310  -5.242   0.412  0.00  0.00     0.104 C 
ATOM     13  C9  <0> d           1.443  -5.678   1.364  0.00  0.00     0.070 C 
ATOM     14  C8  <0> d           1.565  -7.205   1.133  0.00  0.00     0.013 C 
ATOM     15  C7  <0> d           0.091  -7.643   0.951  0.00  0.00     0.003 C 
ATOM     16  C6  <0> d          -0.550  -6.491   0.150  0.00  0.00     0.026 C 
BRANCH  13  17
ATOM     17  C10 <0> d           2.731  -4.983   1.003  0.00  0.00     0.077 C 
ATOM     18  S2  <0> d           3.877  -5.780   0.224  0.00  0.00    -0.065 SA
ATOM     19  N4  <0> d           2.916  -3.691   1.337  0.00  0.00    -0.393 N 
ATOM     20  H15 <0> d           2.220  -3.208   1.810  0.00  0.00     0.156 HD
ATOM     21  H16 <0> d           3.745  -3.244   1.105  0.00  0.00     0.156 HD
ENDBRANCH  13  17
ENDBRANCH   1  12
TORSDOF 4
