REMARK  3 active torsions:
REMARK  status: ('A' for Active; 'I' for Inactive)
REMARK    1  A    between atoms: N3_6  and  N4_7 
REMARK    2  A    between atoms: C4_8  and  C5_9 
REMARK    3  A    between atoms: C9_13  and  O2_16 
ROOT
ATOM      1  N4  <0> d           0.026   0.170   1.942  0.00  0.00    -0.301 N 
ATOM      2  C4  <0> d          -0.417  -0.380   3.083  0.00  0.00     0.123 C 
ATOM      3  H4  <0> d           0.266   1.109   1.918  0.00  0.00     0.186 HD
ENDROOT
BRANCH   2   4
ATOM      4  C5  <0> d          -0.623   0.419   4.209  0.00  0.00     0.034 A 
ATOM      5  C10 <0> d          -0.493   1.878   4.127  0.00  0.00     0.216 A 
ATOM      6  C9  <0> d          -0.717   2.641   5.292  0.00  0.00     0.119 A 
ATOM      7  O1  <0> d          -0.202   2.421   3.070  0.00  0.00    -0.284 OA
ATOM      8  C8  <0> d          -1.035   2.017   6.463  0.00  0.00     0.041 A 
ATOM      9  C7  <0> d          -1.153   0.631   6.541  0.00  0.00     0.004 A 
ATOM     10  C6  <0> d          -0.956  -0.161   5.455  0.00  0.00     0.017 A 
BRANCH   6  11
ATOM     11  O2  <0> d          -0.610   3.996   5.250  0.00  0.00    -0.352 OA
ATOM     12  C11 <0> d          -0.845   4.704   6.469  0.00  0.00     0.210 C 
ENDBRANCH   6  11
ENDBRANCH   2   4
BRANCH   1  13
ATOM     13  N3  <0> d           0.142  -0.613   0.786  0.00  0.00    -0.225 N 
ATOM     14  C2  <0> d           1.251  -1.251   0.342  0.00  0.00     0.145 A 
ATOM     15  C1  <0> d           2.605  -1.255   1.003  0.00  0.00     0.095 C 
ATOM     16  N1  <0> d           0.928  -1.868  -0.763  0.00  0.00    -0.133 NA
ATOM     17  N2  <0> d          -0.309  -1.649  -1.035  0.00  0.00    -0.133 NA
ATOM     18  C3  <0> d          -0.832  -0.883  -0.117  0.00  0.00     0.145 A 
ATOM     19  C12 <0> d          -2.257  -0.393  -0.067  0.00  0.00     0.095 C 
ENDBRANCH   1  13
TORSDOF 3
