REMARK  10 active torsions:
REMARK  status: ('A' for Active; 'I' for Inactive)
REMARK    1  A    between atoms: C2_2  and  N1_3 
REMARK    2  A    between atoms: N1_3  and  C3_4 
REMARK    3  A    between atoms: N1_3  and  C17_23 
REMARK    4  A    between atoms: C3_4  and  C4_5 
REMARK    5  A    between atoms: C7_11  and  C10_16 
REMARK    6  A    between atoms: C17_23  and  C18_24 
REMARK    7  A    between atoms: C18_24  and  C19_25 
REMARK    8  A    between atoms: C18_24  and  O3_34 
REMARK    9  A    between atoms: C19_25  and  O2_26 
REMARK   10  A    between atoms: O2_26  and  C20_27 
ROOT
ATOM      1  C4  <0> d          -1.385  -2.196   1.630  0.00  0.00     0.134 A 
ATOM      2  N2  <0> d          -1.494  -3.485   2.043  0.00  0.00    -0.309 N 
ATOM      3  H1  <0> d          -1.792  -4.162   1.415  0.00  0.00     0.170 HD
ATOM      4  C5  <0> d          -1.197  -3.842   3.306  0.00  0.00     0.260 A 
ATOM      5  O1  <0> d          -1.299  -5.004   3.661  0.00  0.00    -0.267 OA
ATOM      6  C6  <0> d          -0.758  -2.837   4.226  0.00  0.00     0.079 A 
ATOM      7  C7  <0> d          -0.381  -2.971   5.628  0.00  0.00    -0.000 A 
ATOM      8  C8  <0> d           0.007  -1.865   6.307  0.00  0.00     0.065 A 
ATOM      9  S1  <0> d          -0.113  -0.569   5.088  0.00  0.00    -0.080 SA
ATOM     10  C9  <0> d          -0.676  -1.534   3.709  0.00  0.00     0.116 A 
ATOM     11  N3  <0> d          -0.983  -1.258   2.444  0.00  0.00    -0.225 NA
ENDROOT
BRANCH   1  12
ATOM     12  C3  <0> d          -1.729  -1.843   0.205  0.00  0.00     0.313 C 
BRANCH  12  13
ATOM     13  N1  <0> d          -1.528  -0.403  -0.004  0.00  0.00    -0.062 N 
ATOM     14  H27 <0> d          -2.062   0.114   0.678  0.00  0.00     0.280 HD
BRANCH  13  15
ATOM     15  C2  <0> d          -0.103  -0.081   0.143  0.00  0.00     0.231 C 
ATOM     16  C1  <0> d           0.695  -0.783  -0.957  0.00  0.00     0.034 C 
ENDBRANCH  13  15
BRANCH  13  17
ATOM     17  C17 <0> d          -1.976  -0.038  -1.355  0.00  0.00     0.269 C 
BRANCH  17  18
ATOM     18  C18 <0> d          -1.881   1.479  -1.530  0.00  0.00     0.168 C 
BRANCH  18  19
ATOM     19  C19 <0> d          -2.359   1.861  -2.933  0.00  0.00     0.209 C 
BRANCH  19  20
ATOM     20  O2  <0> d          -2.162   3.261  -3.139  0.00  0.00    -0.349 OA
BRANCH  20  21
ATOM     21  C20 <0> d          -2.537   3.766  -4.343  0.00  0.00     0.069 A 
ATOM     22  C25 <0> d          -2.374   5.118  -4.611  0.00  0.00     0.038 A 
ATOM     23  C24 <0> d          -2.749   5.628  -5.838  0.00  0.00     0.026 A 
ATOM     24  C23 <0> d          -3.300   4.795  -6.796  0.00  0.00     0.034 A 
ATOM     25  C22 <0> d          -3.469   3.448  -6.529  0.00  0.00     0.026 A 
ATOM     26 Cl1  <0> d          -3.778   5.441  -8.335  0.00  0.00    -0.084 Cl
ATOM     27  C21 <0> d          -3.088   2.932  -5.305  0.00  0.00     0.038 A 
ENDBRANCH  20  21
ENDBRANCH  19  20
ENDBRANCH  18  19
BRANCH  18  28
ATOM     28  O3  <0> d          -2.704   2.123  -0.556  0.00  0.00    -0.392 OA
ATOM     29  H26 <0> d          -3.640   1.887  -0.612  0.00  0.00     0.210 HD
ENDBRANCH  18  28
ENDBRANCH  17  18
ENDBRANCH  13  17
ENDBRANCH  12  13
ENDBRANCH   1  12
BRANCH   7  30
ATOM     30  C10 <0> d          -0.423  -4.293   6.298  0.00  0.00    -0.018 A 
ATOM     31  C15 <0> d           0.432  -5.313   5.886  0.00  0.00    -0.051 A 
ATOM     32  C14 <0> d           0.392  -6.540   6.517  0.00  0.00     0.007 A 
ATOM     33  C16 <0> d           1.402  -5.076   4.756  0.00  0.00     0.049 C 
ATOM     34  C13 <0> d          -0.501  -6.761   7.550  0.00  0.00     0.001 A 
ATOM     35  C12 <0> d          -1.355  -5.753   7.960  0.00  0.00     0.001 A 
ATOM     36  C11 <0> d          -1.321  -4.521   7.340  0.00  0.00     0.013 A 
ENDBRANCH   7  30
TORSDOF 10
