REMARK  5 active torsions:
REMARK  status: ('A' for Active; 'I' for Inactive)
REMARK    1  A    between atoms: C4_5  and  C5_6 
REMARK    2  A    between atoms: C5_6  and  N1_7 
REMARK    3  A    between atoms: N1_7  and  C6_8 
REMARK    4  A    between atoms: C6_8  and  C7_9 
REMARK    5  A    between atoms: C7_9  and  N2_15 
ROOT
ATOM      1  C7  <0> d          -3.101  -2.333  -2.841  0.00  0.00     0.151 C 
ATOM      2  C8  <0> d          -4.378  -3.156  -3.014  0.00  0.00     0.041 C 
ATOM      3  C9  <0> d          -5.555  -2.412  -2.378  0.00  0.00     0.002 C 
ATOM      4  C10 <0> d          -5.727  -1.053  -3.060  0.00  0.00     0.000 C 
ATOM      5  C11 <0> d          -4.449  -0.230  -2.887  0.00  0.00     0.002 C 
ATOM      6  C12 <0> d          -3.273  -0.974  -3.522  0.00  0.00     0.041 C 
ENDROOT
BRANCH   1   7
ATOM      7  C6  <0> d          -2.826  -2.124  -1.350  0.00  0.00     0.271 C 
BRANCH   7   8
ATOM      8  N1  <0> d          -2.536  -3.419  -0.720  0.00  0.00    -0.067 N 
ATOM      9  H5  <0> d          -1.766  -3.861  -1.198  0.00  0.00     0.277 HD
ATOM     10  H28 <0> d          -3.351  -4.011  -0.777  0.00  0.00     0.277 HD
BRANCH   8  11
ATOM     11  C5  <0> d          -2.182  -3.209   0.690  0.00  0.00     0.297 C 
BRANCH  11  12
ATOM     12  C4  <0> d          -1.884  -4.537   1.337  0.00  0.00     0.080 A 
ATOM     13  C1  <0> d          -0.679  -5.131   1.395  0.00  0.00     0.037 A 
ATOM     14  C2  <0> d          -0.856  -6.351   2.087  0.00  0.00     0.046 A 
ATOM     15  C3  <0> d          -2.160  -6.431   2.410  0.00  0.00     0.117 A 
ATOM     16  O1  <0> d          -2.778  -5.329   1.953  0.00  0.00    -0.307 OA
ATOM     17  I1  <0> d          -3.072  -8.005   3.448  0.00  0.00    -0.016 I 
ENDBRANCH  11  12
ENDBRANCH   8  11
ENDBRANCH   7   8
ENDBRANCH   1   7
BRANCH   1  18
ATOM     18  N2  <0> d          -1.971  -3.047  -3.451  0.00  0.00    -0.060 N 
ATOM     19  C17 <0> d          -0.738  -2.281  -3.240  0.00  0.00     0.236 C 
ATOM     20  C16 <0> d           0.454  -3.059  -3.802  0.00  0.00     0.028 C 
ATOM     21  C15 <0> d           0.244  -3.289  -5.302  0.00  0.00     0.003 C 
ATOM     22  C14 <0> d          -1.082  -4.024  -5.515  0.00  0.00     0.028 C 
ATOM     23  C13 <0> d          -2.217  -3.210  -4.889  0.00  0.00     0.236 C 
ATOM     24  H29 <0> d          -1.879  -3.956  -3.023  0.00  0.00     0.280 HD
ENDBRANCH   1  18
TORSDOF 5
