REMARK  5 active torsions:
REMARK  status: ('A' for Active; 'I' for Inactive)
REMARK    1  A    between atoms: C3_3  and  S2_18 
REMARK    2  A    between atoms: C6_6  and  N1_7 
REMARK       I    between atoms: N1_7  and  C7_8 
REMARK       I    between atoms: C7_8  and  N2_10 
REMARK    3  A    between atoms: N2_10  and  C8_11 
REMARK    4  A    between atoms: C8_11  and  C9_12 
REMARK    5  A    between atoms: S2_18  and  C13_21 
ROOT
ATOM      1  N1  <0> d          -1.199  -0.722   0.010  0.00  0.00    -0.309 N 
ATOM      2  C7  <0> d          -1.183  -2.065  -0.099  0.00  0.00     0.321 C 
ATOM      3  O1  <0> d          -0.123  -2.661  -0.113  0.00  0.00    -0.247 OA
ATOM      4  N2  <0> d          -2.341  -2.748  -0.193  0.00  0.00    -0.338 N 
ATOM      5  H5  <0> d          -2.044  -0.253   0.099  0.00  0.00     0.170 HD
ATOM      6  H6  <0> d          -3.186  -2.272  -0.182  0.00  0.00     0.164 HD
ENDROOT
BRANCH   1   7
ATOM      7  C6  <0> d           0.002  -0.004  -0.005  0.00  0.00     0.036 A 
ATOM      8  C1  <0> d           1.072  -0.453  -0.767  0.00  0.00     0.031 A 
ATOM      9  C2  <0> d           2.256   0.259  -0.780  0.00  0.00     0.026 A 
ATOM     10  C3  <0> d           2.376   1.417  -0.034  0.00  0.00     0.065 A 
ATOM     11  C4  <0> d           1.312   1.867   0.727  0.00  0.00     0.026 A 
ATOM     12  C5  <0> d           0.126   1.160   0.744  0.00  0.00     0.031 A 
BRANCH  10  13
ATOM     13  S2  <0> d           3.888   2.321  -0.053  0.00  0.00     0.236 S 
ATOM     14  O2  <0> d           3.912   3.013   1.188  0.00  0.00    -0.217 OA
ATOM     15  O3  <0> d           4.884   1.357  -0.364  0.00  0.00    -0.217 OA
BRANCH  13  16
ATOM     16  C13 <0> d           3.710   3.498  -1.422  0.00  0.00     0.478 C 
ATOM     17  F1  <0> d           3.511   2.798  -2.617  0.00  0.00    -0.197 F 
ATOM     18  F2  <0> d           2.612   4.331  -1.181  0.00  0.00    -0.197 F 
ENDBRANCH  13  16
ENDBRANCH  10  13
ENDBRANCH   1   7
BRANCH   4  19
ATOM     19  C8  <0> d          -2.323  -4.208  -0.311  0.00  0.00     0.170 C 
BRANCH  19  20
ATOM     20  C9  <0> d          -3.737  -4.722  -0.400  0.00  0.00     0.002 A 
ATOM     21  S1  <0> d          -4.836  -5.219   0.916  0.00  0.00    -0.081 SA
ATOM     22  C12 <0> d          -6.244  -5.665  -0.087  0.00  0.00     0.075 A 
ATOM     23  C11 <0> d          -5.786  -5.416  -1.339  0.00  0.00     0.032 A 
ATOM     24 Cl1  <0> d          -7.795  -6.266   0.411  0.00  0.00    -0.076 Cl
ATOM     25  C10 <0> d          -4.501  -4.933  -1.499  0.00  0.00     0.018 A 
ENDBRANCH  19  20
ENDBRANCH   4  19
TORSDOF 5
