REMARK  6 active torsions:
REMARK  status: ('A' for Active; 'I' for Inactive)
REMARK    1  A    between atoms: C2_2  and  C3_3 
REMARK    2  A    between atoms: C5_9  and  C15_23 
REMARK    3  A    between atoms: C6_10  and  C7_12 
REMARK       I    between atoms: C7_12  and  N5_14 
REMARK    4  A    between atoms: N5_14  and  C8_15 
REMARK    5  A    between atoms: C18_26  and  O2_29 
REMARK    6  A    between atoms: O2_29  and  C21_30 
ROOT
ATOM      1  C3  <0> d           2.075   0.627  -0.016  0.00  0.00     0.145 A 
ATOM      2  N1  <0> d           1.264  -0.396  -0.006  0.00  0.00    -0.133 NA
ATOM      3  N2  <0> d           0.041   0.008   0.018  0.00  0.00    -0.121 NA
ATOM      4  C4  <0> d           0.014   1.312   0.021  0.00  0.00     0.207 A 
ATOM      5  N3  <0> d           1.306   1.755   0.007  0.00  0.00    -0.236 N 
ATOM      6  N4  <0> d           1.728   3.046   0.024  0.00  0.00    -0.219 NA
ATOM      7  C5  <0> d           0.724   3.999  -0.450  0.00  0.00     0.133 C 
ATOM      8  C6  <0> d          -0.537   3.927   0.421  0.00  0.00     0.171 C 
ATOM      9  S1  <0> d          -1.397   2.373   0.030  0.00  0.00    -0.072 SA
ATOM     10  H8  <0> d           2.067   3.303   0.939  0.00  0.00     0.148 HD
ENDROOT
BRANCH   8  11
ATOM     11  C7  <0> d          -1.436   5.098   0.115  0.00  0.00     0.238 C 
ATOM     12  O1  <0> d          -1.507   5.528  -1.017  0.00  0.00    -0.272 OA
ATOM     13  N5  <0> d          -2.161   5.666   1.099  0.00  0.00    -0.326 N 
ATOM     14  H9  <0> d          -2.167   5.273   1.986  0.00  0.00     0.169 HD
BRANCH  13  15
ATOM     15  C8  <0> d          -2.905   6.822   0.840  0.00  0.00     0.042 A 
ATOM     16  C13 <0> d          -4.011   7.127   1.623  0.00  0.00    -0.013 A 
ATOM     17  C12 <0> d          -4.744   8.270   1.365  0.00  0.00     0.042 A 
ATOM     18  C14 <0> d          -4.412   6.212   2.751  0.00  0.00     0.052 C 
ATOM     19  C11 <0> d          -4.376   9.110   0.329  0.00  0.00     0.024 A 
ATOM     20 Cl1  <0> d          -6.127   8.652   2.343  0.00  0.00    -0.084 Cl
ATOM     21  C10 <0> d          -3.275   8.809  -0.451  0.00  0.00     0.004 A 
ATOM     22  C9  <0> d          -2.536   7.671  -0.195  0.00  0.00     0.030 A 
ENDBRANCH  13  15
ENDBRANCH   8  11
BRANCH   7  23
ATOM     23  C15 <0> d           1.291   5.394  -0.385  0.00  0.00    -0.037 A 
ATOM     24  C20 <0> d           1.030   6.293  -1.402  0.00  0.00     0.011 A 
ATOM     25  C19 <0> d           1.549   7.573  -1.344  0.00  0.00     0.037 A 
ATOM     26  C18 <0> d           2.332   7.954  -0.264  0.00  0.00     0.068 A 
ATOM     27  C17 <0> d           2.592   7.050   0.755  0.00  0.00     0.037 A 
ATOM     28  C16 <0> d           2.066   5.773   0.695  0.00  0.00     0.011 A 
BRANCH  26  29
ATOM     29  O2  <0> d           2.842   9.212  -0.204  0.00  0.00    -0.352 OA
BRANCH  29  30
ATOM     30  C21 <0> d           3.640   9.535   0.937  0.00  0.00     0.171 C 
ATOM     31  C22 <0> d           4.122  10.983   0.828  0.00  0.00     0.034 C 
ENDBRANCH  29  30
ENDBRANCH  26  29
ENDBRANCH   7  23
BRANCH   1  32
ATOM     32  C2  <0> d           3.580   0.573  -0.049  0.00  0.00     0.077 C 
ATOM     33  C1  <0> d           4.059   0.564  -1.502  0.00  0.00     0.013 C 
ENDBRANCH   1  32
TORSDOF 6
