REMARK  4 active torsions:
REMARK  status: ('A' for Active; 'I' for Inactive)
REMARK    1  A    between atoms: C3_4  and  S1_8 
REMARK    2  A    between atoms: S1_8  and  N3_11 
REMARK    3  A    between atoms: N3_11  and  C7_13 
REMARK    4  A    between atoms: C10_16  and  C13_19 
ROOT
ATOM      1  N3  <0> d          -0.760  -2.992  -3.153  0.00  0.00    -0.275 N 
ATOM      2  C6  <0> d          -0.035  -2.333  -4.241  0.00  0.00     0.170 C 
ENDROOT
BRANCH   1   3
ATOM      3  S1  <0> d           0.030  -3.390  -1.753  0.00  0.00     0.283 S 
ATOM      4  O1  <0> d           1.387  -3.620  -2.104  0.00  0.00    -0.198 OA
ATOM      5  O2  <0> d          -0.765  -4.372  -1.103  0.00  0.00    -0.198 OA
BRANCH   3   6
ATOM      6  C3  <0> d           0.012  -1.963  -0.720  0.00  0.00     0.189 A 
ATOM      7  N1  <0> d          -0.001  -0.688  -1.137  0.00  0.00    -0.221 NA
ATOM      8  C2  <0> d          -0.012   0.104  -0.100  0.00  0.00     0.103 A 
ATOM      9  C1  <0> d          -0.027   1.610  -0.146  0.00  0.00     0.091 C 
ATOM     10  N2  <0> d          -0.002  -0.650   1.020  0.00  0.00    -0.347 N 
ATOM     11  C4  <0> d           0.007  -1.961   0.627  0.00  0.00     0.137 A 
ATOM     12  C5  <0> d          -0.004  -0.156   2.400  0.00  0.00     0.157 C 
ENDBRANCH   3   6
ENDBRANCH   1   3
BRANCH   1  13
ATOM     13  C7  <0> d          -2.113  -3.284  -3.295  0.00  0.00     0.044 A 
ATOM     14  C12 <0> d          -3.033  -2.772  -2.384  0.00  0.00     0.031 A 
ATOM     15  C11 <0> d          -4.373  -3.055  -2.524  0.00  0.00     0.017 A 
ATOM     16  C10 <0> d          -4.808  -3.865  -3.577  0.00  0.00     0.002 A 
ATOM     17  C9  <0> d          -3.881  -4.381  -4.488  0.00  0.00     0.017 A 
ATOM     18  C8  <0> d          -2.543  -4.090  -4.344  0.00  0.00     0.031 A 
BRANCH  16  19
ATOM     19  C13 <0> d          -6.241  -4.173  -3.728  0.00  0.00     0.104 C 
ATOM     20  S2  <0> d          -6.730  -5.706  -4.312  0.00  0.00    -0.060 SA
ATOM     21  N4  <0> d          -7.167  -3.248  -3.406  0.00  0.00    -0.390 N 
ATOM     22  H15 <0> d          -6.890  -2.379  -3.075  0.00  0.00     0.157 HD
ATOM     23  H16 <0> d          -8.111  -3.451  -3.506  0.00  0.00     0.157 HD
ENDBRANCH  16  19
ENDBRANCH   1  13
TORSDOF 4
