REMARK  4 active torsions:
REMARK  status: ('A' for Active; 'I' for Inactive)
REMARK    1  A    between atoms: C5_5  and  S1_8 
REMARK    2  A    between atoms: S1_8  and  N1_11 
REMARK    3  A    between atoms: N1_11  and  C8_12 
REMARK    4  A    between atoms: C8_12  and  C9_13 
ROOT
ATOM      1  N1  <0> d           4.240  -3.532  -1.433  0.00  0.00    -0.310 N 
ATOM      2  H8  <0> d           3.752  -3.133  -2.170  0.00  0.00     0.172 HD
ENDROOT
BRANCH   1   3
ATOM      3  S1  <0> d           5.495  -4.570  -1.736  0.00  0.00     0.259 S 
ATOM      4  O1  <0> d           5.590  -4.691  -3.148  0.00  0.00    -0.201 OA
ATOM      5  O2  <0> d           6.584  -4.135  -0.933  0.00  0.00    -0.201 OA
BRANCH   3   6
ATOM      6  C5  <0> d           5.020  -6.153  -1.125  0.00  0.00     0.079 A 
ATOM      7  C4  <0> d           4.356  -7.041  -1.951  0.00  0.00     0.026 A 
ATOM      8  C3  <0> d           3.984  -8.284  -1.472  0.00  0.00     0.008 A 
ATOM      9  C2  <0> d           4.277  -8.638  -0.168  0.00  0.00    -0.062 A 
ATOM     10  C1  <0> d           3.871  -9.992   0.354  0.00  0.00     0.048 C 
ATOM     11  C7  <0> d           4.941  -7.750   0.657  0.00  0.00     0.008 A 
ATOM     12  C6  <0> d           5.317  -6.509   0.177  0.00  0.00     0.026 A 
ENDBRANCH   3   6
ENDBRANCH   1   3
BRANCH   1  13
ATOM     13  C8  <0> d           3.867  -3.217  -0.052  0.00  0.00     0.193 C 
BRANCH  13  14
ATOM     14  C9  <0> d           2.974  -2.003  -0.037  0.00  0.00     0.071 A 
ATOM     15  N3  <0> d           3.386  -0.726  -0.034  0.00  0.00    -0.225 NA
ATOM     16  C13 <0> d           2.343   0.054  -0.020  0.00  0.00     0.177 A 
ATOM     17  N2  <0> d           1.195  -0.694  -0.013  0.00  0.00    -0.309 N 
ATOM     18  S2  <0> d           1.726   1.720  -0.005  0.00  0.00    -0.062 SA
ATOM     19  C10 <0> d           1.631  -2.016  -0.024  0.00  0.00     0.127 A 
ATOM     20  C11 <0> d           0.002  -0.004   0.002  0.00  0.00     0.106 A 
ATOM     21  C12 <0> d          -0.016   1.328   0.009  0.00  0.00     0.071 A 
ENDBRANCH  13  14
ENDBRANCH   1  13
TORSDOF 4
