REMARK  3 active torsions:
REMARK  status: ('A' for Active; 'I' for Inactive)
REMARK    1  A    between atoms: C3_3  and  N4_15 
REMARK    2  A    between atoms: C4_5  and  C5_6 
REMARK    3  A    between atoms: N1_7  and  N2_8 
ROOT
ATOM      1  C1  <0> d           0.002  -0.004   0.002  0.00  0.00     0.023 A 
ATOM      2  C2  <0> d           1.219  -0.643  -0.013  0.00  0.00     0.033 A 
ATOM      3  C3  <0> d           2.363   0.107  -0.020  0.00  0.00     0.052 A 
ATOM      4  S1  <0> d           1.725   1.774  -0.005  0.00  0.00    -0.077 SA
ATOM      5  C4  <0> d          -0.017   1.380   0.010  0.00  0.00     0.025 A 
ENDROOT
BRANCH   5   6
ATOM      6  C5  <0> d          -1.167   2.286   0.020  0.00  0.00     0.158 C 
ATOM      7  N1  <0> d          -0.980   3.575   0.026  0.00  0.00    -0.179 NA
BRANCH   7   8
ATOM      8  N2  <0> d          -2.080   4.442   0.037  0.00  0.00    -0.211 N 
ATOM      9  C8  <0> d          -3.379   4.092   0.042  0.00  0.00     0.345 A 
ATOM     10  N3  <0> d          -4.194   5.153   0.052  0.00  0.00    -0.276 N 
ATOM     11  O2  <0> d          -3.769   2.941   0.037  0.00  0.00    -0.245 OA
ATOM     12  C7  <0> d          -3.503   6.310   0.055  0.00  0.00     0.245 A 
ATOM     13  H6  <0> d          -5.162   5.097   0.057  0.00  0.00     0.173 HD
ATOM     14  C6  <0> d          -2.040   5.914   0.050  0.00  0.00     0.259 A 
ATOM     15  O1  <0> d          -3.958   7.434   0.065  0.00  0.00    -0.271 OA
ENDBRANCH   7   8
ENDBRANCH   5   6
BRANCH   3  16
ATOM     16  N4  <0> d           3.686  -0.321  -0.036  0.00  0.00    -0.278 NA
ATOM     17  C13 <0> d           4.609   0.822  -0.038  0.00  0.00     0.096 C 
ATOM     18  C12 <0> d           6.045   0.319  -0.202  0.00  0.00     0.015 C 
ATOM     19  C11 <0> d           6.383  -0.631   0.950  0.00  0.00     0.002 C 
ATOM     20  C10 <0> d           5.378  -1.787   0.960  0.00  0.00     0.015 C 
ATOM     21  C9  <0> d           3.961  -1.223   1.090  0.00  0.00     0.096 C 
ENDBRANCH   3  16
TORSDOF 3
