REMARK  8 active torsions:
REMARK  status: ('A' for Active; 'I' for Inactive)
REMARK    1  A    between atoms: C5_5  and  C7_7 
REMARK       I    between atoms: C7_7  and  N1_9 
REMARK    2  A    between atoms: N1_9  and  C8_10 
REMARK    3  A    between atoms: C8_10  and  C15_18 
REMARK    4  A    between atoms: C9_11  and  C10_12 
REMARK       I    between atoms: C15_18  and  N3_20 
REMARK    5  A    between atoms: N3_20  and  C16_21 
REMARK    6  A    between atoms: C16_21  and  C17_22 
REMARK    7  A    between atoms: C17_22  and  C18_23 
REMARK    8  A    between atoms: C18_23  and  N4_24 
ROOT
ATOM      1  C8  <0> d           0.093  -4.132  -0.018  0.00  0.00     0.104 C 
ATOM      2  C9  <0> d           1.248  -4.829  -0.124  0.00  0.00     0.048 C 
ENDROOT
BRANCH   1   3
ATOM      3  N1  <0> d           0.127  -2.744   0.150  0.00  0.00    -0.318 N 
ATOM      4  C7  <0> d          -1.017  -2.062   0.355  0.00  0.00     0.257 C 
ATOM      5  O1  <0> d          -2.086  -2.639   0.305  0.00  0.00    -0.267 OA
ATOM      6  H5  <0> d           0.974  -2.273   0.119  0.00  0.00     0.169 HD
BRANCH   4   7
ATOM      7  C5  <0> d          -0.972  -0.613   0.640  0.00  0.00     0.049 A 
ATOM      8  C4  <0> d          -2.156   0.097   0.854  0.00  0.00     0.026 A 
ATOM      9  C3  <0> d          -2.106   1.451   1.120  0.00  0.00     0.020 A 
ATOM     10 Br1  <0> d          -3.822  -0.793   0.777  0.00  0.00    -0.050 Br
ATOM     11  C2  <0> d          -0.887   2.103   1.177  0.00  0.00     0.001 A 
ATOM     12  C1  <0> d           0.289   1.405   0.968  0.00  0.00     0.001 A 
ATOM     13  C6  <0> d           0.254   0.052   0.700  0.00  0.00     0.018 A 
ENDBRANCH   4   7
ENDBRANCH   1   3
BRANCH   1  14
ATOM     14  C15 <0> d          -1.197  -4.833  -0.081  0.00  0.00     0.268 C 
ATOM     15  O2  <0> d          -1.929  -4.677  -1.040  0.00  0.00    -0.266 OA
ATOM     16  N3  <0> d          -1.570  -5.649   0.925  0.00  0.00    -0.356 N 
ATOM     17  H11 <0> d          -1.022  -5.718   1.722  0.00  0.00     0.162 HD
BRANCH  16  18
ATOM     18  C16 <0> d          -2.803  -6.432   0.814  0.00  0.00     0.124 C 
BRANCH  18  19
ATOM     19  C17 <0> d          -3.057  -7.174   2.128  0.00  0.00     0.040 C 
BRANCH  19  20
ATOM     20  C18 <0> d          -4.345  -7.992   2.012  0.00  0.00     0.130 C 
BRANCH  20  21
ATOM     21  N4  <0> d          -4.587  -8.701   3.271  0.00  0.00    -0.352 N 
ATOM     22  C21 <0> d          -5.292  -8.241   4.327  0.00  0.00     0.182 A 
ATOM     23  N5  <0> d          -5.291  -9.154   5.260  0.00  0.00    -0.361 N 
ATOM     24  C20 <0> d          -4.586 -10.215   4.840  0.00  0.00     0.106 A 
ATOM     25  H21 <0> d          -5.728  -9.076   6.122  0.00  0.00     0.166 HD
ATOM     26  C19 <0> d          -4.137  -9.952   3.598  0.00  0.00     0.108 A 
ENDBRANCH  20  21
ENDBRANCH  19  20
ENDBRANCH  18  19
ENDBRANCH  16  18
ENDBRANCH   1  14
BRANCH   2  27
ATOM     27  C10 <0> d           1.214  -6.263  -0.448  0.00  0.00    -0.016 A 
ATOM     28  C14 <0> d           2.212  -7.123   0.022  0.00  0.00     0.127 A 
ATOM     29  N2  <0> d           2.177  -8.408  -0.264  0.00  0.00    -0.272 NA
ATOM     30  C13 <0> d           1.220  -8.931  -1.005  0.00  0.00     0.116 A 
ATOM     31  C12 <0> d           0.198  -8.148  -1.513  0.00  0.00     0.020 A 
ATOM     32  C11 <0> d           0.183  -6.793  -1.238  0.00  0.00     0.014 A 
ENDBRANCH   2  27
TORSDOF 8
