REMARK  8 active torsions:
REMARK  status: ('A' for Active; 'I' for Inactive)
REMARK    1  A    between atoms: O1_2  and  C2_3 
REMARK    2  A    between atoms: C2_3  and  C3_4 
REMARK    3  A    between atoms: C3_4  and  N1_5 
REMARK       I    between atoms: N1_5  and  C4_6 
REMARK    4  A    between atoms: C4_6  and  C5_8 
REMARK    5  A    between atoms: C11_14  and  C12_15 
REMARK    6  A    between atoms: C12_15  and  N2_16 
REMARK    7  A    between atoms: C14_18  and  C15_21 
REMARK    8  A    between atoms: C15_21  and  O3_26 
ROOT
ATOM      1  C5  <0> d          -0.746   1.610  -1.233  0.00  0.00     0.107 C 
ATOM      2  C6  <0> d          -0.742   3.141  -1.200  0.00  0.00     0.249 C 
ATOM      3  C7  <0> d          -0.725   3.144   1.222  0.00  0.00     0.236 C 
ATOM      4  C8  <0> d          -0.722   1.597   1.268  0.00  0.00     0.033 C 
ATOM      5  C9  <0> d          -0.013   1.086   0.008  0.00  0.00     0.004 C 
ATOM      6  C10 <0> d           1.420   1.633  -0.003  0.00  0.00     0.040 C 
ATOM      7  C11 <0> d           1.365   3.163  -0.004  0.00  0.00     0.208 C 
ATOM      8  N5  <0> d          -0.038   3.629   0.005  0.00  0.00    -0.064 N 
ATOM      9  H32 <0> d          -0.048   4.656   0.004  0.00  0.00     0.280 HD
ENDROOT
BRANCH   7  10
ATOM     10  C12 <0> d           2.075   3.701   1.240  0.00  0.00     0.185 C 
BRANCH  10  11
ATOM     11  N2  <0> d           2.127   5.163   1.179  0.00  0.00    -0.259 N 
ATOM     12  N4  <0> d           2.615   5.861   0.214  0.00  0.00    -0.066 NA
ATOM     13  N3  <0> d           2.504   7.116   0.473  0.00  0.00    -0.132 NA
ATOM     14  C14 <0> d           1.916   7.262   1.666  0.00  0.00     0.109 A 
ATOM     15  C13 <0> d           1.665   6.013   2.125  0.00  0.00     0.146 A 
BRANCH  14  16
ATOM     16  C15 <0> d           1.591   8.560   2.359  0.00  0.00     0.105 C 
ATOM     17  C19 <0> d           2.880   9.365   2.601  0.00  0.00     0.044 C 
ATOM     18  C18 <0> d           2.718  10.696   1.838  0.00  0.00     0.004 C 
ATOM     19  C17 <0> d           1.185  10.876   1.709  0.00  0.00     0.004 C 
ATOM     20  C16 <0> d           0.691   9.430   1.456  0.00  0.00     0.044 C 
BRANCH  16  21
ATOM     21  O3  <0> d           0.935   8.300   3.601  0.00  0.00    -0.383 OA
ATOM     22  H31 <0> d           0.109   7.804   3.514  0.00  0.00     0.211 HD
ENDBRANCH  16  21
ENDBRANCH  14  16
ENDBRANCH  10  11
ENDBRANCH   7  10
BRANCH   1  23
ATOM     23  C4  <0> d          -2.167   1.109  -1.229  0.00  0.00     0.223 C 
ATOM     24  N1  <0> d          -3.003   1.446  -2.231  0.00  0.00    -0.359 N 
ATOM     25  H11 <0> d          -2.690   2.012  -2.954  0.00  0.00     0.162 HD
ATOM     26  O2  <0> d          -2.558   0.402  -0.325  0.00  0.00    -0.273 OA
BRANCH  24  27
ATOM     27  C3  <0> d          -4.385   0.959  -2.228  0.00  0.00     0.148 C 
BRANCH  27  28
ATOM     28  C2  <0> d          -5.114   1.484  -3.466  0.00  0.00     0.186 C 
BRANCH  28  29
ATOM     29  O1  <0> d          -4.519   0.926  -4.640  0.00  0.00    -0.394 OA
ATOM     30  C1  <0> d          -5.129   1.354  -5.860  0.00  0.00     0.201 C 
ENDBRANCH  28  29
ENDBRANCH  27  28
ENDBRANCH  24  27
ENDBRANCH   1  23
TORSDOF 8
