REMARK  5 active torsions:
REMARK  status: ('A' for Active; 'I' for Inactive)
REMARK    1  A    between atoms: C7_7  and  C8_8 
REMARK    2  A    between atoms: C8_8  and  N1_9 
REMARK    3  A    between atoms: C11_12  and  N2_15 
REMARK       I    between atoms: N2_15  and  C14_16 
REMARK       I    between atoms: C14_16  and  N3_18 
REMARK    4  A    between atoms: N3_18  and  C15_19 
REMARK    5  A    between atoms: C23_27  and  O2_28 
ROOT
ATOM      1  N2  <0> d          -5.040   1.128   4.739  0.00  0.00    -0.338 N 
ATOM      2  C14 <0> d          -5.448   1.492   5.970  0.00  0.00     0.317 C 
ATOM      3  O1  <0> d          -4.683   1.413   6.912  0.00  0.00    -0.247 OA
ATOM      4  N3  <0> d          -6.705   1.942   6.158  0.00  0.00    -0.332 N 
ATOM      5  H21 <0> d          -5.650   1.190   3.987  0.00  0.00     0.164 HD
ATOM      6  H22 <0> d          -7.315   2.004   5.407  0.00  0.00     0.165 HD
ENDROOT
BRANCH   1   7
ATOM      7  C11 <0> d          -3.674   0.639   4.535  0.00  0.00     0.089 C 
ATOM      8  C10 <0> d          -3.631  -0.258   3.294  0.00  0.00     0.053 C 
ATOM      9  C9  <0> d          -2.189  -0.701   3.041  0.00  0.00     0.237 C 
ATOM     10  N1  <0> d          -1.342   0.478   2.824  0.00  0.00    -0.067 N 
ATOM     11  C13 <0> d          -1.321   1.306   4.035  0.00  0.00     0.237 C 
ATOM     12  H30 <0> d          -1.711   1.018   2.055  0.00  0.00     0.280 HD
ATOM     13  C12 <0> d          -2.730   1.826   4.327  0.00  0.00     0.053 C 
BRANCH  10  14
ATOM     14  C8  <0> d           0.025   0.045   2.504  0.00  0.00     0.273 C 
BRANCH  14  15
ATOM     15  C7  <0> d           0.023  -0.702   1.195  0.00  0.00    -0.027 A 
ATOM     16  C2  <0> d           0.002  -0.004   0.002  0.00  0.00    -0.054 A 
ATOM     17  C1  <0> d          -0.018   1.503   0.010  0.00  0.00     0.049 C 
ATOM     18  C3  <0> d           0.006  -0.689  -1.199  0.00  0.00     0.007 A 
ATOM     19  C4  <0> d           0.025  -2.071  -1.207  0.00  0.00     0.001 A 
ATOM     20  C5  <0> d           0.040  -2.768  -0.013  0.00  0.00     0.001 A 
ATOM     21  C6  <0> d           0.037  -2.084   1.188  0.00  0.00     0.009 A 
ENDBRANCH  14  15
ENDBRANCH  10  14
ENDBRANCH   1   7
BRANCH   4  22
ATOM     22  C15 <0> d          -7.149   2.337   7.497  0.00  0.00     0.149 C 
ATOM     23  C23 <0> d          -8.327   3.329   7.399  0.00  0.00     0.149 C 
ATOM     24  C22 <0> d          -9.553   2.390   7.465  0.00  0.00     0.073 C 
ATOM     25  C21 <0> d          -9.079   1.170   8.225  0.00  0.00    -0.047 A 
ATOM     26  C16 <0> d          -7.697   1.140   8.243  0.00  0.00    -0.026 A 
ATOM     27  C20 <0> d          -9.799   0.166   8.850  0.00  0.00     0.008 A 
ATOM     28  C17 <0> d          -7.039   0.105   8.887  0.00  0.00     0.010 A 
ATOM     29  C18 <0> d          -7.758  -0.896   9.509  0.00  0.00     0.001 A 
ATOM     30  C19 <0> d          -9.140  -0.865   9.491  0.00  0.00     0.001 A 
BRANCH  23  31
ATOM     31  O2  <0> d          -8.293   4.038   6.159  0.00  0.00    -0.393 OA
ATOM     32  H29 <0> d          -9.013   4.674   6.049  0.00  0.00     0.210 HD
ENDBRANCH  23  31
ENDBRANCH   4  22
TORSDOF 5
