REMARK  7 active torsions:
REMARK  status: ('A' for Active; 'I' for Inactive)
REMARK    1  A    between atoms: C5_5  and  S1_8 
REMARK    2  A    between atoms: S1_8  and  N1_11 
REMARK    3  A    between atoms: N1_11  and  C8_12 
REMARK    4  A    between atoms: C8_12  and  C9_13 
REMARK    5  A    between atoms: C8_12  and  C15_19 
REMARK    6  A    between atoms: C15_19  and  C16_20 
REMARK    7  A    between atoms: C15_19  and  N2_29 
ROOT
ATOM      1  C8  <0> d           1.381   4.113  -1.410  0.00  0.00     0.161 C 
ENDROOT
BRANCH   1   2
ATOM      2  N1  <0> d           1.480   5.574  -1.385  0.00  0.00    -0.304 N 
ATOM      3  H12 <0> d           0.943   6.086  -0.759  0.00  0.00     0.173 HD
BRANCH   2   4
ATOM      4  S1  <0> d           2.509   6.353  -2.423  0.00  0.00     0.259 S 
ATOM      5  O1  <0> d           2.359   7.744  -2.176  0.00  0.00    -0.201 OA
ATOM      6  O2  <0> d           3.762   5.692  -2.324  0.00  0.00    -0.201 OA
BRANCH   4   7
ATOM      7  C5  <0> d           1.915   6.065  -4.057  0.00  0.00     0.079 A 
ATOM      8  C4  <0> d           1.008   6.939  -4.627  0.00  0.00     0.026 A 
ATOM      9  C3  <0> d           0.542   6.713  -5.908  0.00  0.00     0.008 A 
ATOM     10  C2  <0> d           0.984   5.615  -6.621  0.00  0.00    -0.062 A 
ATOM     11  C1  <0> d           0.477   5.369  -8.019  0.00  0.00     0.048 C 
ATOM     12  C7  <0> d           1.892   4.741  -6.052  0.00  0.00     0.008 A 
ATOM     13  C6  <0> d           2.361   4.969  -4.771  0.00  0.00     0.026 A 
ENDBRANCH   4   7
ENDBRANCH   2   4
ENDBRANCH   1   2
BRANCH   1  14
ATOM     14  C9  <0> d           0.227   3.703  -2.289  0.00  0.00    -0.033 A 
ATOM     15  C14 <0> d           0.351   2.612  -3.128  0.00  0.00     0.009 A 
ATOM     16  C13 <0> d          -0.708   2.236  -3.934  0.00  0.00     0.001 A 
ATOM     17  C12 <0> d          -1.890   2.951  -3.900  0.00  0.00     0.000 A 
ATOM     18  C11 <0> d          -2.014   4.042  -3.060  0.00  0.00     0.001 A 
ATOM     19  C10 <0> d          -0.957   4.415  -2.251  0.00  0.00     0.009 A 
ENDBRANCH   1  14
BRANCH   1  20
ATOM     20  C15 <0> d           1.151   3.592   0.010  0.00  0.00     0.244 C 
BRANCH  20  21
ATOM     21  C16 <0> d           1.171   2.086   0.002  0.00  0.00    -0.026 A 
ATOM     22  C21 <0> d           2.377   1.411  -0.014  0.00  0.00     0.009 A 
ATOM     23  C20 <0> d           2.396   0.029  -0.021  0.00  0.00     0.001 A 
ATOM     24  C19 <0> d           1.208  -0.679  -0.014  0.00  0.00     0.000 A 
ATOM     25  C18 <0> d           0.002  -0.004   0.002  0.00  0.00     0.001 A 
ATOM     26  C17 <0> d          -0.017   1.378   0.010  0.00  0.00     0.009 A 
ENDBRANCH  20  21
BRANCH  20  27
ATOM     27  N2  <0> d           2.206   4.081   0.914  0.00  0.00    -0.069 N 
ATOM     28  H3  <0> d           3.120   3.782   0.578  0.00  0.00     0.275 HD
ATOM     29  H4  <0> d           2.179   5.098   0.966  0.00  0.00     0.275 HD
ATOM     30  H23 <0> d           2.052   3.694   1.853  0.00  0.00     0.275 HD
ENDBRANCH  20  27
ENDBRANCH   1  20
TORSDOF 7
