REMARK  5 active torsions:
REMARK  status: ('A' for Active; 'I' for Inactive)
REMARK    1  A    between atoms: C4_4  and  N1_9 
REMARK    2  A    between atoms: C8_10  and  C16_22 
REMARK    3  A    between atoms: C9_11  and  C10_14 
REMARK    4  A    between atoms: C10_14  and  N4_15 
REMARK    5  A    between atoms: C13_18  and  O1_21 
ROOT
ATOM      1  N1  <0> d           0.109  -3.018  -2.155  0.00  0.00    -0.213 N 
ATOM      2  C8  <0> d           0.802  -4.132  -2.549  0.00  0.00     0.099 A 
ATOM      3  C9  <0> d           0.535  -4.282  -3.881  0.00  0.00     0.114 A 
ATOM      4  N2  <0> d          -0.282  -3.281  -4.217  0.00  0.00    -0.132 NA
ATOM      5  N3  <0> d          -0.519  -2.558  -3.180  0.00  0.00    -0.060 NA
ENDROOT
BRANCH   3   6
ATOM      6  C10 <0> d           1.060  -5.362  -4.792  0.00  0.00     0.298 C 
BRANCH   6   7
ATOM      7  N4  <0> d           2.387  -4.978  -5.293  0.00  0.00    -0.066 N 
ATOM      8  C15 <0> d           2.956  -6.089  -6.065  0.00  0.00     0.237 C 
ATOM      9  C14 <0> d           4.371  -5.726  -6.521  0.00  0.00     0.059 C 
ATOM     10  C13 <0> d           4.312  -4.471  -7.397  0.00  0.00     0.121 C 
ATOM     11  C12 <0> d           3.648  -3.339  -6.607  0.00  0.00     0.059 C 
ATOM     12  C11 <0> d           2.260  -3.791  -6.147  0.00  0.00     0.237 C 
ATOM     13  H23 <0> d           2.991  -4.767  -4.514  0.00  0.00     0.280 HD
BRANCH  10  14
ATOM     14  O1  <0> d           5.637  -4.083  -7.766  0.00  0.00    -0.395 OA
ATOM     15  H18 <0> d           6.117  -4.753  -8.270  0.00  0.00     0.210 HD
ENDBRANCH  10  14
ENDBRANCH   6   7
ENDBRANCH   3   6
BRANCH   2  16
ATOM     16  C16 <0> d           1.662  -4.993  -1.708  0.00  0.00    -0.002 A 
ATOM     17  C20 <0> d           2.719  -4.451  -0.968  0.00  0.00     0.033 A 
ATOM     18  C19 <0> d           3.492  -5.290  -0.192  0.00  0.00     0.117 A 
ATOM     19  N5  <0> d           3.252  -6.587  -0.151  0.00  0.00    -0.273 NA
ATOM     20  C18 <0> d           2.269  -7.139  -0.837  0.00  0.00     0.117 A 
ATOM     21  C17 <0> d           1.444  -6.374  -1.634  0.00  0.00     0.033 A 
ENDBRANCH   2  16
BRANCH   1  22
ATOM     22  C4  <0> d           0.083  -2.478  -0.862  0.00  0.00     0.061 A 
ATOM     23  C3  <0> d           0.006  -1.103  -0.684  0.00  0.00     0.039 A 
ATOM     24  C2  <0> d          -0.020  -0.574   0.591  0.00  0.00    -0.042 A 
ATOM     25  C1  <0> d          -0.102   0.918   0.785  0.00  0.00     0.049 C 
ATOM     26  C7  <0> d           0.036  -1.411   1.691  0.00  0.00     0.017 A 
ATOM     27  C6  <0> d           0.107  -2.782   1.516  0.00  0.00     0.022 A 
ATOM     28 Br1  <0> d           0.008  -0.682   3.435  0.00  0.00    -0.051 Br
ATOM     29  C5  <0> d           0.134  -3.317   0.243  0.00  0.00     0.033 A 
ENDBRANCH   1  22
TORSDOF 5
