REMARK  5 active torsions:
REMARK  status: ('A' for Active; 'I' for Inactive)
REMARK    1  A    between atoms: C2_2  and  S1_8 
REMARK    2  A    between atoms: S1_8  and  N2_11 
REMARK    3  A    between atoms: N2_11  and  C6_12 
REMARK    4  A    between atoms: C6_12  and  C7_13 
REMARK    5  A    between atoms: C7_13  and  N3_20 
ROOT
ATOM      1  N2  <0> d           1.323   2.994   2.476  0.00  0.00    -0.313 N 
ATOM      2  H4  <0> d           0.859   2.814   3.309  0.00  0.00     0.172 HD
ENDROOT
BRANCH   1   3
ATOM      3  S1  <0> d           0.889   2.189   1.096  0.00  0.00     0.260 S 
ATOM      4  O1  <0> d           0.736   3.174   0.083  0.00  0.00    -0.200 OA
ATOM      5  O2  <0> d          -0.158   1.298   1.457  0.00  0.00    -0.200 OA
BRANCH   3   6
ATOM      6  C2  <0> d           2.261   1.189   0.623  0.00  0.00     0.098 A 
ATOM      7  C1  <0> d           2.378  -0.110   1.095  0.00  0.00     0.047 A 
ATOM      8  C5  <0> d           3.474  -0.860   0.696  0.00  0.00     0.030 A 
ATOM      9  C4  <0> d           4.407  -0.292  -0.153  0.00  0.00     0.135 A 
ATOM     10 Br1  <0> d           3.691  -2.637   1.305  0.00  0.00    -0.050 Br
ATOM     11  N1  <0> d           4.262   0.947  -0.581  0.00  0.00    -0.270 NA
ATOM     12  C3  <0> d           3.233   1.689  -0.222  0.00  0.00     0.141 A 
ENDBRANCH   3   6
ENDBRANCH   1   3
BRANCH   1  13
ATOM     13  C6  <0> d           2.408   3.978   2.440  0.00  0.00     0.170 C 
BRANCH  13  14
ATOM     14  C7  <0> d           2.365   4.831   3.710  0.00  0.00     0.140 C 
ATOM     15  C13 <0> d           3.503   4.405   4.659  0.00  0.00     0.040 C 
ATOM     16  C12 <0> d           4.738   4.112   3.948  0.00  0.00     0.002 C 
ATOM     17  C11 <0> d           5.289   5.340   3.196  0.00  0.00     0.000 C 
ATOM     18  C10 <0> d           4.528   5.492   1.907  0.00  0.00     0.000 C 
ATOM     19  C9  <0> d           3.338   6.463   2.036  0.00  0.00     0.002 C 
ATOM     20  C8  <0> d           2.558   6.280   3.352  0.00  0.00     0.040 C 
BRANCH  14  21
ATOM     21  N3  <0> d           1.070   4.653   4.380  0.00  0.00    -0.069 N 
ATOM     22  H19 <0> d           0.949   3.682   4.625  0.00  0.00     0.275 HD
ATOM     23  H20 <0> d           1.044   5.217   5.217  0.00  0.00     0.275 HD
ATOM     24  H21 <0> d           0.328   4.939   3.759  0.00  0.00     0.275 HD
ENDBRANCH  14  21
ENDBRANCH  13  14
ENDBRANCH   1  13
TORSDOF 5
