REMARK  4 active torsions:
REMARK  status: ('A' for Active; 'I' for Inactive)
REMARK    1  A    between atoms: C5_5  and  N1_8 
REMARK       I    between atoms: N1_8  and  C8_9 
REMARK    2  A    between atoms: C8_9  and  C9_11 
REMARK    3  A    between atoms: C12_17  and  C13_18 
REMARK    4  A    between atoms: C18_23  and  O3_24 
ROOT
ATOM      1  C9  <0> d           4.198   2.676  -1.734  0.00  0.00     0.059 A 
ATOM      2  C10 <0> d           4.282   3.919  -2.250  0.00  0.00     0.024 A 
ATOM      3  N2  <0> d           4.064   5.022  -1.474  0.00  0.00    -0.312 N 
ATOM      4  C11 <0> d           3.758   4.964  -0.171  0.00  0.00     0.321 A 
ATOM      5  O2  <0> d           3.581   6.001   0.438  0.00  0.00    -0.247 OA
ATOM      6  N3  <0> d           3.639   3.794   0.485  0.00  0.00    -0.330 N 
ATOM      7  C12 <0> d           3.855   2.544  -0.264  0.00  0.00     0.163 A 
ATOM      8  C19 <0> d           4.621   4.095  -3.708  0.00  0.00     0.069 C 
ATOM      9  H10 <0> d           4.134   5.896  -1.889  0.00  0.00     0.170 HD
ATOM     10  H11 <0> d           3.416   3.775   1.429  0.00  0.00     0.165 HD
ENDROOT
BRANCH   1  11
ATOM     11  C8  <0> d           4.423   1.532  -2.538  0.00  0.00     0.256 C 
ATOM     12  N1  <0> d           3.433   1.048  -3.314  0.00  0.00    -0.323 N 
ATOM     13  H9  <0> d           2.535   1.408  -3.235  0.00  0.00     0.169 HD
ATOM     14  O1  <0> d           5.511   0.985  -2.529  0.00  0.00    -0.267 OA
BRANCH  12  15
ATOM     15  C5  <0> d           3.699   0.028  -4.233  0.00  0.00     0.035 A 
ATOM     16  C4  <0> d           2.891  -0.130  -5.351  0.00  0.00     0.030 A 
ATOM     17  C3  <0> d           3.157  -1.139  -6.256  0.00  0.00     0.009 A 
ATOM     18  C2  <0> d           4.227  -1.990  -6.051  0.00  0.00    -0.062 A 
ATOM     19  C1  <0> d           4.514  -3.089  -7.041  0.00  0.00     0.048 C 
ATOM     20  C7  <0> d           5.034  -1.835  -4.939  0.00  0.00     0.009 A 
ATOM     21  C6  <0> d           4.776  -0.826  -4.032  0.00  0.00     0.030 A 
ENDBRANCH  12  15
ENDBRANCH   1  11
BRANCH   7  22
ATOM     22  C13 <0> d           2.603   1.713  -0.152  0.00  0.00     0.004 A 
ATOM     23  C18 <0> d           2.671   0.334  -0.279  0.00  0.00     0.074 A 
ATOM     24  C17 <0> d           1.517  -0.429  -0.175  0.00  0.00     0.038 A 
ATOM     25  C16 <0> d           0.302   0.187   0.055  0.00  0.00     0.022 A 
ATOM     26  C15 <0> d           0.236   1.563   0.182  0.00  0.00     0.011 A 
ATOM     27  C14 <0> d           1.385   2.325   0.079  0.00  0.00     0.031 A 
ATOM     28 Br1  <0> d          -1.430   2.403   0.490  0.00  0.00    -0.051 Br
BRANCH  23  29
ATOM     29  O3  <0> d           3.868  -0.270  -0.505  0.00  0.00    -0.360 OA
ATOM     30  H15 <0> d           4.046  -0.452  -1.438  0.00  0.00     0.217 HD
ENDBRANCH  23  29
ENDBRANCH   7  22
TORSDOF 4
