REMARK  3 active torsions:
REMARK  status: ('A' for Active; 'I' for Inactive)
REMARK    1  A    between atoms: C2_2  and  C9_12 
REMARK    2  A    between atoms: C9_12  and  C10_13 
REMARK    3  A    between atoms: C9_12  and  N3_19 
ROOT
ATOM      1  C1  <0> d          -0.017   1.382   0.010  0.00  0.00     0.050 A 
ATOM      2  C2  <0> d           1.170   2.091   0.002  0.00  0.00    -0.003 A 
ATOM      3  C3  <0> d           2.379   1.420  -0.014  0.00  0.00     0.022 A 
ATOM      4  C4  <0> d           2.404   0.037  -0.024  0.00  0.00     0.059 A 
ATOM      5  C5  <0> d           1.217  -0.679  -0.017  0.00  0.00     0.103 A 
ATOM      6  C6  <0> d           0.002  -0.004   0.002  0.00  0.00     0.102 A 
ATOM      7  O1  <0> d          -1.175  -0.688   0.016  0.00  0.00    -0.346 OA
ATOM      8  C7  <0> d          -1.122  -2.066  -0.368  0.00  0.00     0.202 C 
ATOM      9  C8  <0> d           0.060  -2.723   0.357  0.00  0.00     0.202 C 
ATOM     10  O2  <0> d           1.258  -2.040  -0.031  0.00  0.00    -0.346 OA
ATOM     11 Br1  <0> d           4.000   2.394  -0.023  0.00  0.00    -0.050 Br
ENDROOT
BRANCH   2  12
ATOM     12  C9  <0> d           1.146   3.598   0.011  0.00  0.00     0.253 C 
BRANCH  12  13
ATOM     13  C10 <0> d           1.398   4.096   1.410  0.00  0.00     0.013 A 
ATOM     14  C12 <0> d           0.456   4.165   2.442  0.00  0.00     0.149 A 
ATOM     15  N2  <0> d           1.048   4.646   3.505  0.00  0.00    -0.187 NA
ATOM     16  N1  <0> d           2.385   4.907   3.180  0.00  0.00    -0.289 N 
ATOM     17  C11 <0> d           2.575   4.562   1.890  0.00  0.00     0.120 A 
ATOM     18  H2  <0> d           3.057   5.273   3.778  0.00  0.00     0.188 HD
ENDBRANCH  12  13
BRANCH  12  19
ATOM     19  N3  <0> d          -0.168   4.070  -0.448  0.00  0.00    -0.067 N 
ATOM     20  H11 <0> d          -0.885   3.719   0.169  0.00  0.00     0.275 HD
ATOM     21  H12 <0> d          -0.183   5.079  -0.442  0.00  0.00     0.275 HD
ATOM     22  H13 <0> d          -0.336   3.736  -1.385  0.00  0.00     0.275 HD
ENDBRANCH  12  19
ENDBRANCH   2  12
TORSDOF 3
