REMARK  6 active torsions:
REMARK  status: ('A' for Active; 'I' for Inactive)
REMARK    1  A    between atoms: C5_6  and  S1_10 
REMARK    2  A    between atoms: S1_10  and  C8_11 
REMARK    3  A    between atoms: C8_11  and  C9_12 
REMARK       I    between atoms: C9_12  and  N3_14 
REMARK    4  A    between atoms: N3_14  and  N4_15 
REMARK    5  A    between atoms: C10_16  and  C11_17 
REMARK    6  A    between atoms: C16_22  and  O2_23 
ROOT
ATOM      1  C9  <0> d           3.313  -2.560  -4.211  0.00  0.00     0.247 C 
ATOM      2  O1  <0> d           4.002  -3.558  -4.234  0.00  0.00    -0.271 OA
ATOM      3  N3  <0> d           2.897  -2.000  -5.364  0.00  0.00    -0.247 N 
ATOM      4  H8  <0> d           2.346  -1.202  -5.346  0.00  0.00     0.192 HD
ENDROOT
BRANCH   1   5
ATOM      5  C8  <0> d           2.921  -1.946  -2.892  0.00  0.00     0.182 C 
BRANCH   5   6
ATOM      6  S1  <0> d           3.629  -2.921  -1.536  0.00  0.00    -0.114 SA
BRANCH   6   7
ATOM      7  C5  <0> d           3.071  -2.062  -0.039  0.00  0.00     0.247 A 
ATOM      8  N1  <0> d           3.569  -0.680  -0.036  0.00  0.00    -0.359 N 
ATOM      9  C4  <0> d           2.533   0.108  -0.022  0.00  0.00     0.057 A 
ATOM     10  H14 <0> d           4.499  -0.405  -0.045  0.00  0.00     0.162 HD
ATOM     11  C3  <0> d           2.389   1.570  -0.013  0.00  0.00     0.031 A 
ATOM     12  C6  <0> d           1.290  -0.712  -0.014  0.00  0.00     0.057 A 
ATOM     13  C2  <0> d           1.158   2.118   0.002  0.00  0.00     0.002 A 
ATOM     14  C1  <0> d          -0.016   1.344   0.009  0.00  0.00     0.002 A 
ATOM     15  C7  <0> d           0.002  -0.004   0.002  0.00  0.00     0.031 A 
ATOM     16  N2  <0> d           1.606  -1.974  -0.024  0.00  0.00    -0.359 N 
ATOM     17  H15 <0> d           0.987  -2.721  -0.022  0.00  0.00     0.162 HD
ENDBRANCH   6   7
ENDBRANCH   5   6
ENDBRANCH   1   5
BRANCH   3  18
ATOM     18  N4  <0> d           3.262  -2.571  -6.591  0.00  0.00    -0.184 NA
ATOM     19  C10 <0> d           2.862  -2.033  -7.702  0.00  0.00     0.153 C 
BRANCH  19  20
ATOM     20  C11 <0> d           3.245  -2.633  -8.992  0.00  0.00     0.017 A 
ATOM     21  C16 <0> d           4.041  -3.786  -9.024  0.00  0.00     0.077 A 
ATOM     22  C15 <0> d           4.391  -4.346 -10.241  0.00  0.00     0.039 A 
ATOM     23  C14 <0> d           3.967  -3.763 -11.420  0.00  0.00     0.022 A 
ATOM     24  C13 <0> d           3.184  -2.621 -11.394  0.00  0.00     0.011 A 
ATOM     25  C12 <0> d           2.821  -2.053 -10.190  0.00  0.00     0.034 A 
ATOM     26 Br1  <0> d           2.611  -1.835 -13.016  0.00  0.00    -0.051 Br
BRANCH  21  27
ATOM     27  O2  <0> d           4.463  -4.355  -7.865  0.00  0.00    -0.360 OA
ATOM     28  H13 <0> d           3.859  -5.022  -7.511  0.00  0.00     0.217 HD
ENDBRANCH  21  27
ENDBRANCH  19  20
ENDBRANCH   3  18
TORSDOF 6
