REMARK  3 active torsions:
REMARK  status: ('A' for Active; 'I' for Inactive)
REMARK    1  A    between atoms: C6_6  and  C7_7 
REMARK    2  A    between atoms: N1_10  and  C10_14 
REMARK    3  A    between atoms: C10_14  and  N3_15 
ROOT
ATOM      1  C7  <0> d          -1.293  -0.775   0.011  0.00  0.00     0.212 A 
ATOM      2  C8  <0> d          -1.612  -1.296  -1.376  0.00  0.00     0.256 A 
ATOM      3  O1  <0> d          -1.805  -0.642  -2.378  0.00  0.00    -0.270 OA
ATOM      4  N1  <0> d          -1.636  -2.639  -1.264  0.00  0.00    -0.240 N 
ATOM      5  C9  <0> d          -1.379  -3.034  -0.012  0.00  0.00     0.327 A 
ATOM      6  O2  <0> d          -1.346  -4.199   0.336  0.00  0.00    -0.247 OA
ATOM      7  N2  <0> d          -1.163  -1.997   0.823  0.00  0.00    -0.325 N 
ATOM      8  H6  <0> d          -0.960  -2.045   1.770  0.00  0.00     0.165 HD
ENDROOT
BRANCH   4   9
ATOM      9  C10 <0> d          -1.911  -3.553  -2.376  0.00  0.00     0.409 C 
BRANCH   9  10
ATOM     10  N3  <0> d          -0.650  -3.908  -3.041  0.00  0.00     0.109 N 
ATOM     11  C14 <0> d          -0.884  -4.299  -4.438  0.00  0.00     0.302 C 
ATOM     12  C13 <0> d           0.456  -4.602  -5.111  0.00  0.00     0.262 C 
ATOM     13  N4  <0> d           1.133  -5.686  -4.388  0.00  0.00    -0.072 N 
ATOM     14  C12 <0> d           1.382  -5.271  -3.001  0.00  0.00     0.262 C 
ATOM     15  H13 <0> d           2.011  -5.894  -4.839  0.00  0.00     0.277 HD
ATOM     16  H18 <0> d           0.550  -6.509  -4.393  0.00  0.00     0.277 HD
ATOM     17  C11 <0> d           0.049  -4.974  -2.311  0.00  0.00     0.302 C 
ENDBRANCH   9  10
ENDBRANCH   4   9
BRANCH   1  18
ATOM     18  C6  <0> d           0.002  -0.004   0.002  0.00  0.00    -0.026 A 
ATOM     19  C1  <0> d          -0.017   1.378   0.010  0.00  0.00     0.011 A 
ATOM     20  C2  <0> d           1.171   2.086   0.002  0.00  0.00     0.024 A 
ATOM     21  C3  <0> d           2.378   1.410  -0.013  0.00  0.00     0.034 A 
ATOM     22  C4  <0> d           2.396   0.027  -0.021  0.00  0.00     0.024 A 
ATOM     23 Cl1  <0> d           3.870   2.298  -0.023  0.00  0.00    -0.084 Cl
ATOM     24  C5  <0> d           1.208  -0.679  -0.013  0.00  0.00     0.011 A 
ENDBRANCH   1  18
TORSDOF 3
