REMARK  4 active torsions:
REMARK  status: ('A' for Active; 'I' for Inactive)
REMARK    1  A    between atoms: C4_4  and  C7_8 
REMARK    2  A    between atoms: C7_8  and  N1_10 
REMARK       I    between atoms: N1_10  and  C9_11 
REMARK    3  A    between atoms: C9_11  and  C10_13 
REMARK    4  A    between atoms: N2_17  and  C14_19 
ROOT
ATOM      1  C10 <0> d          -4.929  -3.724   1.524  0.00  0.00     0.104 C 
ATOM      2  C11 <0> d          -4.880  -2.718   2.697  0.00  0.00     0.118 C 
ATOM      3  C12 <0> d          -5.987  -3.174   3.623  0.00  0.00     0.221 C 
ATOM      4  O3  <0> d          -6.467  -2.505   4.513  0.00  0.00    -0.273 OA
ATOM      5  N2  <0> d          -6.360  -4.428   3.314  0.00  0.00    -0.346 N 
ATOM      6  C13 <0> d          -5.576  -4.957   2.192  0.00  0.00     0.141 C 
ENDROOT
BRANCH   1   7
ATOM      7  C9  <0> d          -3.542  -4.045   1.030  0.00  0.00     0.224 C 
ATOM      8  N1  <0> d          -2.786  -3.079   0.471  0.00  0.00    -0.352 N 
ATOM      9  H14 <0> d          -3.135  -2.178   0.387  0.00  0.00     0.163 HD
ATOM     10  O2  <0> d          -3.106  -5.171   1.135  0.00  0.00    -0.273 OA
BRANCH   8  11
ATOM     11  C7  <0> d          -1.437  -3.390  -0.009  0.00  0.00     0.116 C 
ATOM     12  C8  <0> d          -1.518  -3.946  -1.432  0.00  0.00     0.037 C 
BRANCH  11  13
ATOM     13  C4  <0> d          -0.601  -2.136  -0.007  0.00  0.00    -0.004 A 
ATOM     14  C3  <0> d          -1.078  -0.805   0.003  0.00  0.00     0.044 A 
ATOM     15  C2  <0> d           0.002  -0.004   0.002  0.00  0.00     0.050 A 
ATOM     16  C1  <0> d          -0.018   1.503   0.010  0.00  0.00     0.076 C 
ATOM     17  O1  <0> d           1.102  -0.775  -0.013  0.00  0.00    -0.320 OA
ATOM     18  C5  <0> d           0.742  -2.069  -0.013  0.00  0.00     0.058 A 
ATOM     19  C6  <0> d           1.684  -3.245  -0.023  0.00  0.00     0.077 C 
ENDBRANCH  11  13
ENDBRANCH   8  11
ENDBRANCH   1   7
BRANCH   5  20
ATOM     20  C14 <0> d          -7.415  -5.170   4.009  0.00  0.00     0.102 C 
ATOM     21  C17 <0> d          -7.049  -5.319   5.513  0.00  0.00     0.165 C 
ATOM     22  S1  <0> d          -8.706  -5.691   6.228  0.00  0.00     0.146 S 
ATOM     23  C16 <0> d          -9.773  -4.999   4.899  0.00  0.00     0.142 C 
ATOM     24  O4  <0> d          -8.883  -7.100   6.277  0.00  0.00    -0.228 OA
ATOM     25  O5  <0> d          -8.883  -4.922   7.410  0.00  0.00    -0.228 OA
ATOM     26  C15 <0> d          -8.742  -4.399   3.913  0.00  0.00     0.041 C 
ENDBRANCH   5  20
TORSDOF 4
