REMARK  4 active torsions:
REMARK  status: ('A' for Active; 'I' for Inactive)
REMARK    1  A    between atoms: C3_3  and  C6_12 
REMARK    2  A    between atoms: C6_12  and  N3_13 
REMARK    3  A    between atoms: C12_19  and  C15_22 
REMARK    4  A    between atoms: C12_19  and  O3_29 
ROOT
ATOM      1  N3  <0> d          -2.957  -0.063  -1.501  0.00  0.00    -0.066 N 
ATOM      2  C7  <0> d          -3.500  -1.294  -2.133  0.00  0.00     0.240 C 
ATOM      3  C8  <0> d          -4.930  -0.959  -2.535  0.00  0.00     0.020 C 
ATOM      4  C9  <0> d          -5.955  -2.071  -2.454  0.00  0.00     0.007 C 
ATOM      5  C10 <0> d          -7.306  -1.472  -2.880  0.00  0.00     0.004 C 
ATOM      6  C11 <0> d          -7.691  -0.279  -2.011  0.00  0.00     0.043 C 
ATOM      7  C12 <0> d          -6.580   0.785  -1.981  0.00  0.00     0.090 C 
ATOM      8  C13 <0> d          -5.322   0.111  -1.477  0.00  0.00     0.056 C 
ATOM      9  C14 <0> d          -4.045   0.955  -1.449  0.00  0.00     0.243 C 
ATOM     10  H25 <0> d          -2.188   0.289  -2.050  0.00  0.00     0.280 HD
ENDROOT
BRANCH   1  11
ATOM     11  C6  <0> d          -2.498  -0.366  -0.139  0.00  0.00     0.281 C 
BRANCH  11  12
ATOM     12  C3  <0> d          -1.287  -1.260  -0.205  0.00  0.00     0.058 A 
ATOM     13  C2  <0> d          -1.336  -2.517   0.287  0.00  0.00     0.023 A 
ATOM     14  C1  <0> d          -2.607  -3.037   0.908  0.00  0.00     0.069 C 
ATOM     15  N2  <0> d          -0.226  -3.314   0.223  0.00  0.00    -0.312 N 
ATOM     16  C5  <0> d           0.912  -2.861  -0.334  0.00  0.00     0.327 A 
ATOM     17  H2  <0> d          -0.261  -4.215   0.580  0.00  0.00     0.170 HD
ATOM     18  N1  <0> d           0.989  -1.612  -0.831  0.00  0.00    -0.275 N 
ATOM     19  O2  <0> d           1.885  -3.587  -0.384  0.00  0.00    -0.247 OA
ATOM     20  C4  <0> d          -0.081  -0.794  -0.783  0.00  0.00     0.259 A 
ATOM     21  H1  <0> d           1.819  -1.300  -1.226  0.00  0.00     0.173 HD
ATOM     22  O1  <0> d          -0.012   0.336  -1.233  0.00  0.00    -0.267 OA
ENDBRANCH  11  12
ENDBRANCH   1  11
BRANCH   7  23
ATOM     23  C15 <0> d          -6.344   1.321  -3.369  0.00  0.00    -0.024 A 
ATOM     24  C20 <0> d          -5.391   2.300  -3.579  0.00  0.00     0.013 A 
ATOM     25  C19 <0> d          -5.169   2.789  -4.852  0.00  0.00     0.043 A 
ATOM     26  C18 <0> d          -5.911   2.305  -5.917  0.00  0.00     0.116 A 
ATOM     27  C17 <0> d          -6.869   1.329  -5.705  0.00  0.00     0.043 A 
ATOM     28  F1  <0> d          -5.699   2.786  -7.162  0.00  0.00    -0.206 F 
ATOM     29  C16 <0> d          -7.085   0.837  -4.432  0.00  0.00     0.013 A 
ENDBRANCH   7  23
BRANCH   7  30
ATOM     30  O3  <0> d          -6.949   1.849  -1.102  0.00  0.00    -0.385 OA
ATOM     31  H24 <0> d          -7.765   2.303  -1.354  0.00  0.00     0.211 HD
ENDBRANCH   7  30
TORSDOF 4
