REMARK  4 active torsions:
REMARK  status: ('A' for Active; 'I' for Inactive)
REMARK    1  A    between atoms: C2_2  and  C13_17 
REMARK    2  A    between atoms: N2_12  and  C10_13 
REMARK    3  A    between atoms: C10_13  and  C11_14 
REMARK    4  A    between atoms: C11_14  and  O2_15 
ROOT
ATOM      1  C1  <0> d           0.005   1.141  -0.225  0.00  0.00     0.069 C 
ATOM      2  C2  <0> d           0.155  -0.357   0.047  0.00  0.00     0.140 C 
ATOM      3  N1  <0> d           0.920  -0.975  -1.042  0.00  0.00    -0.359 N 
ATOM      4  C3  <0> d           1.470  -2.236  -0.843  0.00  0.00     0.046 A 
ATOM      5  C4  <0> d           1.674  -3.117  -1.892  0.00  0.00     0.030 A 
ATOM      6  C5  <0> d           2.234  -4.356  -1.646  0.00  0.00     0.002 A 
ATOM      7  C6  <0> d           2.592  -4.724  -0.359  0.00  0.00     0.001 A 
ATOM      8  C7  <0> d           2.392  -3.860   0.698  0.00  0.00     0.019 A 
ATOM      9  C8  <0> d           1.825  -2.609   0.465  0.00  0.00     0.058 A 
ATOM     10  C9  <0> d           1.569  -1.661   1.564  0.00  0.00     0.258 C 
ATOM     11  O1  <0> d           2.009  -1.878   2.677  0.00  0.00    -0.267 OA
ATOM     12  N2  <0> d           0.842  -0.551   1.324  0.00  0.00    -0.315 N 
ATOM     13  H4  <0> d           1.040  -0.512  -1.886  0.00  0.00     0.162 HD
ENDROOT
BRANCH   2  14
ATOM     14  C13 <0> d          -1.211  -0.991   0.114  0.00  0.00     0.031 A 
ATOM     15  S1  <0> d          -2.191  -1.401   1.549  0.00  0.00    -0.102 SA
ATOM     16  C16 <0> d          -3.605  -2.086   0.701  0.00  0.00     0.050 A 
ATOM     17  C15 <0> d          -3.238  -1.965  -0.598  0.00  0.00     0.008 A 
ATOM     18  C14 <0> d          -2.011  -1.404  -0.899  0.00  0.00     0.019 A 
ENDBRANCH   2  14
BRANCH  12  19
ATOM     19  C10 <0> d           0.738   0.479   2.361  0.00  0.00     0.155 C 
BRANCH  19  20
ATOM     20  C11 <0> d          -0.390   0.117   3.329  0.00  0.00     0.187 C 
BRANCH  20  21
ATOM     21  O2  <0> d          -0.102  -1.139   3.947  0.00  0.00    -0.394 OA
ATOM     22  C12 <0> d          -1.099  -1.572   4.875  0.00  0.00     0.201 C 
ENDBRANCH  20  21
ENDBRANCH  19  20
ENDBRANCH  12  19
TORSDOF 4
