REMARK  3 active torsions:
REMARK  status: ('A' for Active; 'I' for Inactive)
REMARK    1  A    between atoms: C6_6  and  N2_8 
REMARK    2  A    between atoms: N2_8  and  C7_9 
REMARK       I    between atoms: N3_11  and  C8_12 
REMARK    3  A    between atoms: C8_12  and  C9_14 
ROOT
ATOM      1  C7  <0> d          -0.033  -3.982   2.467  0.00  0.00     0.180 C 
ATOM      2  S1  <0> d          -0.028  -4.895   1.019  0.00  0.00    -0.040 SA
ATOM      3  N3  <0> d          -0.121  -4.607   3.658  0.00  0.00    -0.299 N 
ATOM      4  C8  <0> d          -0.204  -5.951   3.708  0.00  0.00     0.257 C 
ATOM      5  O1  <0> d          -0.200  -6.600   2.680  0.00  0.00    -0.267 OA
ATOM      6  H8  <0> d          -0.124  -4.090   4.478  0.00  0.00     0.171 HD
ENDROOT
BRANCH   1   7
ATOM      7  N2  <0> d           0.050  -2.638   2.417  0.00  0.00    -0.318 N 
ATOM      8  H7  <0> d           0.123  -2.125   3.237  0.00  0.00     0.170 HD
BRANCH   7   9
ATOM      9  C6  <0> d           0.031  -1.984   1.186  0.00  0.00     0.129 A 
ATOM     10  C5  <0> d           0.009  -0.595   1.144  0.00  0.00     0.050 A 
ATOM     11  C4  <0> d          -0.009   0.041  -0.085  0.00  0.00     0.006 A 
ATOM     12  C3  <0> d          -0.005  -0.737  -1.234  0.00  0.00     0.027 A 
ATOM     13  C2  <0> d           0.017  -2.113  -1.118  0.00  0.00     0.033 A 
ATOM     14  C1  <0> d           0.021  -2.965  -2.361  0.00  0.00     0.070 C 
ATOM     15  N1  <0> d           0.029  -2.692   0.068  0.00  0.00    -0.236 NA
ENDBRANCH   7   9
ENDBRANCH   1   7
BRANCH   4  16
ATOM     16  C9  <0> d          -0.300  -6.637   5.014  0.00  0.00     0.032 A 
ATOM     17  C14 <0> d          -0.386  -8.030   5.069  0.00  0.00     0.018 A 
ATOM     18  C13 <0> d          -0.470  -8.664   6.291  0.00  0.00     0.020 A 
ATOM     19  C12 <0> d          -0.480  -7.922   7.460  0.00  0.00     0.011 A 
ATOM     20  C11 <0> d          -0.400  -6.540   7.411  0.00  0.00     0.020 A 
ATOM     21 Br1  <0> d          -0.603  -8.799   9.131  0.00  0.00    -0.051 Br
ATOM     22  C10 <0> d          -0.310  -5.894   6.196  0.00  0.00     0.018 A 
ENDBRANCH   4  16
TORSDOF 3
