REMARK  6 active torsions:
REMARK  status: ('A' for Active; 'I' for Inactive)
REMARK    1  A    between atoms: C2_2  and  N1_3 
REMARK    2  A    between atoms: C9_11  and  S1_12 
REMARK    3  A    between atoms: S1_12  and  C10_13 
REMARK    4  A    between atoms: C10_13  and  C11_14 
REMARK       I    between atoms: C11_14  and  N3_16 
REMARK    5  A    between atoms: N3_16  and  C12_17 
REMARK    6  A    between atoms: C13_18  and  C20_26 
REMARK       I    between atoms: C20_26  and  N4_28 
ROOT
ATOM      1  C11 <0> d          -2.047  -3.659   3.814  0.00  0.00     0.232 C 
ATOM      2  O1  <0> d          -0.852  -3.620   4.019  0.00  0.00    -0.272 OA
ATOM      3  N3  <0> d          -2.770  -4.713   4.241  0.00  0.00    -0.320 N 
ATOM      4  H12 <0> d          -3.726  -4.744   4.077  0.00  0.00     0.169 HD
ENDROOT
BRANCH   3   5
ATOM      5  C12 <0> d          -2.148  -5.753   4.914  0.00  0.00     0.093 A 
ATOM      6  S2  <0> d          -0.473  -5.923   5.321  0.00  0.00    -0.075 SA
ATOM      7  C15 <0> d          -0.536  -7.488   6.146  0.00  0.00    -0.008 A 
ATOM      8  C14 <0> d          -1.836  -7.853   6.095  0.00  0.00    -0.026 A 
ATOM      9  C16 <0> d           0.592  -8.251   6.769  0.00  0.00     0.047 C 
ATOM     10  C13 <0> d          -2.718  -6.909   5.430  0.00  0.00     0.072 A 
ATOM     11  C19 <0> d          -2.307  -9.166   6.707  0.00  0.00     0.041 C 
ATOM     12  C18 <0> d          -1.097 -10.081   6.901  0.00  0.00     0.005 C 
ATOM     13  C17 <0> d          -0.002  -9.340   7.674  0.00  0.00     0.005 C 
BRANCH  10  14
ATOM     14  C20 <0> d          -4.155  -7.170   5.305  0.00  0.00     0.252 C 
ATOM     15  O2  <0> d          -4.583  -7.771   4.337  0.00  0.00    -0.268 OA
ATOM     16  N4  <0> d          -5.003  -6.743   6.262  0.00  0.00    -0.366 N 
ATOM     17  H21 <0> d          -4.662  -6.264   7.034  0.00  0.00     0.159 HD
ATOM     18  H22 <0> d          -5.954  -6.916   6.179  0.00  0.00     0.159 HD
ENDBRANCH  10  14
ENDBRANCH   3   5
BRANCH   1  19
ATOM     19  C10 <0> d          -2.723  -2.528   3.083  0.00  0.00     0.185 C 
BRANCH  19  20
ATOM     20  S1  <0> d          -1.494  -1.273   2.644  0.00  0.00    -0.083 SA
BRANCH  20  21
ATOM     21  C9  <0> d          -2.529  -0.105   1.825  0.00  0.00     0.170 A 
ATOM     22  N1  <0> d          -2.103   1.072   1.277  0.00  0.00    -0.324 N 
ATOM     23  C3  <0> d          -3.215   1.700   0.738  0.00  0.00     0.065 A 
ATOM     24  C8  <0> d          -4.303   0.845   0.982  0.00  0.00     0.086 A 
ATOM     25  C4  <0> d          -3.412   2.898   0.069  0.00  0.00     0.032 A 
ATOM     26  C7  <0> d          -5.577   1.212   0.544  0.00  0.00     0.034 A 
ATOM     27  N2  <0> d          -3.821  -0.236   1.650  0.00  0.00    -0.222 NA
ATOM     28  C6  <0> d          -5.756   2.410  -0.112  0.00  0.00     0.002 A 
ATOM     29  C5  <0> d          -4.678   3.248  -0.353  0.00  0.00     0.002 A 
BRANCH  22  30
ATOM     30  C2  <0> d          -0.729   1.579   1.267  0.00  0.00     0.127 C 
ATOM     31  C1  <0> d          -0.013   1.086   0.008  0.00  0.00     0.027 C 
ENDBRANCH  22  30
ENDBRANCH  20  21
ENDBRANCH  19  20
ENDBRANCH   1  19
TORSDOF 6
