REMARK  5 active torsions:
REMARK  status: ('A' for Active; 'I' for Inactive)
REMARK    1  A    between atoms: N2_6  and  C5_7 
REMARK    2  A    between atoms: C5_7  and  C6_8 
REMARK    3  A    between atoms: C9_11  and  N3_14 
REMARK    4  A    between atoms: N3_14  and  S1_15 
REMARK    5  A    between atoms: S1_15  and  C12_18 
ROOT
ATOM      1  N3  <0> d          -5.651  -0.046   3.942  0.00  0.00    -0.160 NA
ENDROOT
BRANCH   1   2
ATOM      2  C9  <0> d          -4.304  -0.111   3.579  0.00  0.00     0.070 A 
ATOM      3  C8  <0> d          -3.711   0.953   2.910  0.00  0.00     0.033 A 
ATOM      4  C7  <0> d          -2.379   0.886   2.553  0.00  0.00     0.011 A 
ATOM      5  C6  <0> d          -1.635  -0.239   2.860  0.00  0.00    -0.040 A 
ATOM      6  C11 <0> d          -2.223  -1.301   3.521  0.00  0.00     0.011 A 
ATOM      7  C10 <0> d          -3.553  -1.239   3.886  0.00  0.00     0.033 A 
BRANCH   5   8
ATOM      8  C5  <0> d          -0.181  -0.308   2.468  0.00  0.00     0.168 C 
BRANCH   8   9
ATOM      9  N2  <0> d          -0.070  -0.766   1.081  0.00  0.00    -0.340 N 
ATOM     10  C2  <0> d          -0.042  -2.049   0.661  0.00  0.00     0.102 A 
ATOM     11  C1  <0> d          -0.119  -3.266   1.547  0.00  0.00     0.091 C 
ATOM     12  N1  <0> d           0.058  -2.061  -0.640  0.00  0.00    -0.246 NA
ATOM     13  C3  <0> d           0.102  -0.798  -1.092  0.00  0.00     0.136 A 
ATOM     14  C4  <0> d           0.026   0.027  -0.030  0.00  0.00     0.112 A 
ENDBRANCH   8   9
ENDBRANCH   5   8
ENDBRANCH   1   2
BRANCH   1  15
ATOM     15  S1  <0> d          -6.355  -1.315   4.740  0.00  0.00     0.286 S 
ATOM     16  O1  <0> d          -6.368  -2.408   3.832  0.00  0.00    -0.198 OA
ATOM     17  O2  <0> d          -5.731  -1.391   6.014  0.00  0.00    -0.198 OA
BRANCH  15  18
ATOM     18  C12 <0> d          -8.038  -0.879   5.028  0.00  0.00     0.111 A 
ATOM     19  C15 <0> d          -8.524   0.208   5.879  0.00  0.00     0.035 A 
ATOM     20  C14 <0> d          -9.929   0.174   5.797  0.00  0.00     0.139 A 
ATOM     21  C16 <0> d          -7.905   1.177   6.673  0.00  0.00     0.018 A 
ATOM     22  N4  <0> d         -10.257  -0.869   4.964  0.00  0.00    -0.349 N 
ATOM     23  N5  <0> d         -10.651   1.058   6.472  0.00  0.00    -0.242 NA
ATOM     24  C13 <0> d          -9.120  -1.485   4.514  0.00  0.00     0.116 A 
ATOM     25  H1  <0> d         -11.161  -1.129   4.728  0.00  0.00     0.167 HD
ATOM     26  C18 <0> d         -10.089   1.974   7.232  0.00  0.00     0.119 A 
ATOM     27  C17 <0> d          -8.711   2.068   7.356  0.00  0.00     0.020 A 
ENDBRANCH  15  18
ENDBRANCH   1  15
TORSDOF 5
