REMARK  4 active torsions:
REMARK  status: ('A' for Active; 'I' for Inactive)
REMARK    1  A    between atoms: C2_2  and  N1_3 
REMARK    2  A    between atoms: C3_4  and  C14_20 
REMARK    3  A    between atoms: C4_5  and  N3_8 
REMARK       I    between atoms: C14_20  and  N4_22 
REMARK    4  A    between atoms: N4_22  and  C15_23 
ROOT
ATOM      1  N1  <0> d          -1.378  -0.514   0.011  0.00  0.00    -0.263 N 
ATOM      2  C3  <0> d          -2.073  -0.878   1.135  0.00  0.00     0.149 A 
ATOM      3  C4  <0> d          -3.324  -1.296   0.695  0.00  0.00     0.098 A 
ATOM      4  C5  <0> d          -3.291  -1.149  -0.700  0.00  0.00     0.171 A 
ATOM      5  N2  <0> d          -2.115  -0.680  -1.026  0.00  0.00    -0.182 NA
ENDROOT
BRANCH   3   6
ATOM      6  N3  <0> d          -4.388  -1.763   1.476  0.00  0.00    -0.247 N 
ATOM      7  C13 <0> d          -4.551  -3.056   1.777  0.00  0.00     0.238 A 
ATOM      8  C12 <0> d          -5.787  -3.223   2.632  0.00  0.00     0.123 A 
ATOM      9  O2  <0> d          -3.820  -3.955   1.421  0.00  0.00    -0.272 OA
ATOM     10  C7  <0> d          -6.326  -1.766   2.768  0.00  0.00     0.123 A 
ATOM     11  C11 <0> d          -5.367  -3.546   4.120  0.00  0.00     0.136 C 
ATOM     12  C6  <0> d          -5.328  -0.953   1.976  0.00  0.00     0.238 A 
ATOM     13  C8  <0> d          -6.133  -1.448   4.280  0.00  0.00     0.136 C 
ATOM     14  O1  <0> d          -5.372   0.249   1.819  0.00  0.00    -0.272 OA
ATOM     15  O3  <0> d          -4.922  -2.214   4.584  0.00  0.00    -0.379 OA
ATOM     16  C9  <0> d          -7.230  -2.273   5.018  0.00  0.00     0.035 C 
ATOM     17  C10 <0> d          -6.699  -3.726   4.906  0.00  0.00     0.035 C 
ENDBRANCH   3   6
BRANCH   2  18
ATOM     18  C14 <0> d          -1.594  -0.837   2.521  0.00  0.00     0.276 C 
ATOM     19  O4  <0> d          -1.911   0.086   3.247  0.00  0.00    -0.266 OA
ATOM     20  N4  <0> d          -0.802  -1.821   2.990  0.00  0.00    -0.319 N 
ATOM     21  H15 <0> d          -0.487  -2.517   2.392  0.00  0.00     0.169 HD
BRANCH  20  22
ATOM     22  C15 <0> d          -0.431  -1.840   4.347  0.00  0.00     0.078 A 
ATOM     23  C17 <0> d           0.357  -2.768   4.948  0.00  0.00     0.054 A 
ATOM     24  N6  <0> d           0.472  -2.422   6.257  0.00  0.00    -0.277 N 
ATOM     25  C18 <0> d           0.993  -3.962   4.284  0.00  0.00     0.072 C 
ATOM     26  N5  <0> d          -0.275  -1.255   6.461  0.00  0.00    -0.183 NA
ATOM     27  C19 <0> d           1.237  -3.145   7.276  0.00  0.00     0.179 C 
ATOM     28  C16 <0> d          -0.815  -0.906   5.321  0.00  0.00     0.170 A 
ENDBRANCH  20  22
ENDBRANCH   2  18
BRANCH   1  29
ATOM     29  C2  <0> d          -0.003  -0.007  -0.003  0.00  0.00     0.147 C 
ATOM     30  C1  <0> d          -0.024   1.522   0.004  0.00  0.00     0.028 C 
ENDBRANCH   1  29
TORSDOF 4
