REMARK  3 active torsions:
REMARK  status: ('A' for Active; 'I' for Inactive)
REMARK    1  A    between atoms: C4_5  and  C6_8 
REMARK    2  A    between atoms: C6_8  and  N3_9 
REMARK       I    between atoms: N3_9  and  C7_10 
REMARK    3  A    between atoms: C7_10  and  C8_12 
ROOT
ATOM      1  C8  <0> d          -2.947  -6.540  -0.338  0.00  0.00     0.204 A 
ATOM      2  C9  <0> d          -3.396  -6.503  -1.782  0.00  0.00    -0.040 A 
ATOM      3  C10 <0> d          -3.666  -7.783  -2.123  0.00  0.00    -0.004 A 
ATOM      4  C11 <0> d          -4.136  -8.402  -3.368  0.00  0.00     0.037 A 
ATOM      5  C12 <0> d          -4.320  -9.742  -3.406  0.00  0.00     0.035 A 
ATOM      6  C13 <0> d          -4.072 -10.552  -2.288  0.00  0.00     0.026 A 
ATOM      7  C14 <0> d          -3.639 -10.056  -1.111  0.00  0.00     0.031 A 
ATOM      8  C15 <0> d          -3.412  -8.660  -0.958  0.00  0.00     0.039 A 
ATOM      9  N4  <0> d          -3.001  -7.949   0.066  0.00  0.00    -0.372 N 
ATOM     10 Cl1  <0> d          -4.876 -10.478  -4.877  0.00  0.00    -0.084 Cl
ATOM     11  C16 <0> d          -3.517  -5.285  -2.662  0.00  0.00     0.047 C 
ATOM     12  H16 <0> d          -2.771  -8.296   0.942  0.00  0.00     0.161 HD
ENDROOT
BRANCH   1  13
ATOM     13  C7  <0> d          -1.538  -6.019  -0.218  0.00  0.00     0.245 C 
ATOM     14  N3  <0> d          -1.310  -4.691  -0.191  0.00  0.00    -0.353 N 
ATOM     15  H9  <0> d          -2.054  -4.070  -0.248  0.00  0.00     0.162 HD
ATOM     16  O1  <0> d          -0.608  -6.795  -0.147  0.00  0.00    -0.271 OA
BRANCH  14  17
ATOM     17  C6  <0> d           0.059  -4.184  -0.075  0.00  0.00     0.183 C 
BRANCH  17  18
ATOM     18  C4  <0> d           0.039  -2.677  -0.067  0.00  0.00     0.069 A 
ATOM     19  N1  <0> d           0.024  -2.010  -1.207  0.00  0.00    -0.260 NA
ATOM     20  C3  <0> d           0.006  -0.689  -1.200  0.00  0.00     0.143 A 
ATOM     21  C2  <0> d           0.002  -0.004   0.002  0.00  0.00     0.048 A 
ATOM     22  C1  <0> d          -0.018   1.503   0.010  0.00  0.00     0.072 C 
ATOM     23  N2  <0> d           0.022  -0.671   1.143  0.00  0.00    -0.262 NA
ATOM     24  C5  <0> d           0.035  -1.992   1.135  0.00  0.00     0.145 A 
ENDBRANCH  17  18
ENDBRANCH  14  17
ENDBRANCH   1  13
TORSDOF 3
