REMARK  6 active torsions:
REMARK  status: ('A' for Active; 'I' for Inactive)
REMARK    1  A    between atoms: C5_5  and  C17_21 
REMARK    2  A    between atoms: C7_7  and  S1_8 
REMARK    3  A    between atoms: S1_8  and  N1_11 
REMARK    4  A    between atoms: N1_11  and  C8_12 
REMARK    5  A    between atoms: C18_22  and  C19_23 
REMARK    6  A    between atoms: C20_24  and  N3_29 
REMARK       I    between atoms: N3_29  and  C23_30 
ROOT
ATOM      1  C1  <0> d           1.550   0.304   2.541  0.00  0.00     0.050 C 
ATOM      2  C2  <0> d           2.983   0.721   2.748  0.00  0.00    -0.039 A 
ATOM      3  C3  <0> d           3.533   0.687   4.018  0.00  0.00     0.009 A 
ATOM      4  C4  <0> d           4.844   1.066   4.216  0.00  0.00     0.012 A 
ATOM      5  C5  <0> d           5.619   1.486   3.130  0.00  0.00    -0.035 A 
ATOM      6  C6  <0> d           5.058   1.512   1.849  0.00  0.00     0.037 A 
ATOM      7  C7  <0> d           3.743   1.135   1.669  0.00  0.00     0.086 A 
ENDROOT
BRANCH   7   8
ATOM      8  S1  <0> d           3.032   1.173   0.057  0.00  0.00     0.263 S 
ATOM      9  O1  <0> d           4.045   1.640  -0.823  0.00  0.00    -0.200 OA
ATOM     10  O2  <0> d           1.774   1.822   0.183  0.00  0.00    -0.200 OA
BRANCH   8  11
ATOM     11  N1  <0> d           2.715  -0.394  -0.376  0.00  0.00    -0.280 N 
ATOM     12  H7  <0> d           1.675  -0.735  -0.482  0.00  0.00     0.179 HD
BRANCH  11  13
ATOM     13  C8  <0> d           3.768  -1.281  -0.606  0.00  0.00     0.054 A 
ATOM     14  C13 <0> d           4.582  -1.122  -1.720  0.00  0.00    -0.034 A 
ATOM     15  C12 <0> d           5.623  -2.002  -1.945  0.00  0.00     0.015 A 
ATOM     16  C14 <0> d           4.328   0.008  -2.684  0.00  0.00     0.050 C 
ATOM     17  C11 <0> d           5.856  -3.040  -1.061  0.00  0.00    -0.061 A 
ATOM     18  C10 <0> d           5.048  -3.201   0.049  0.00  0.00     0.015 A 
ATOM     19  C15 <0> d           6.996  -3.994  -1.306  0.00  0.00     0.048 C 
ATOM     20  C9  <0> d           4.005  -2.325   0.280  0.00  0.00    -0.034 A 
ATOM     21  C16 <0> d           3.125  -2.501   1.491  0.00  0.00     0.050 C 
ENDBRANCH  11  13
ENDBRANCH   8  11
ENDBRANCH   7   8
BRANCH   5  22
ATOM     22  C17 <0> d           7.019   1.891   3.332  0.00  0.00     0.014 C 
ATOM     23  C18 <0> d           7.338   2.740   4.330  0.00  0.00     0.043 C 
BRANCH  23  24
ATOM     24  C19 <0> d           6.281   3.449   5.052  0.00  0.00     0.130 A 
ATOM     25  O3  <0> d           4.969   3.494   4.740  0.00  0.00    -0.211 OA
ATOM     26  N2  <0> d           4.346   4.160   5.532  0.00  0.00    -0.131 NA
ATOM     27  C21 <0> d           5.104   4.662   6.465  0.00  0.00     0.087 A 
ATOM     28  C20 <0> d           6.421   4.221   6.199  0.00  0.00     0.098 A 
ATOM     29  C22 <0> d           4.663   5.543   7.605  0.00  0.00     0.075 C 
BRANCH  28  30
ATOM     30  N3  <0> d           7.591   4.497   6.920  0.00  0.00    -0.323 N 
ATOM     31  C23 <0> d           7.750   5.697   7.511  0.00  0.00     0.218 C 
ATOM     32  O4  <0> d           6.847   6.507   7.494  0.00  0.00    -0.274 OA
ATOM     33  C24 <0> d           9.051   6.035   8.194  0.00  0.00     0.117 C 
ATOM     34  H24 <0> d           8.378   3.734   7.004  0.00  0.00     0.169 HD
ENDBRANCH  28  30
ENDBRANCH  23  24
ENDBRANCH   5  22
TORSDOF 6
