REMARK  3 active torsions:
REMARK  status: ('A' for Active; 'I' for Inactive)
REMARK    1  A    between atoms: C4_4  and  C6_8 
REMARK       I    between atoms: C6_8  and  N3_10 
REMARK    2  A    between atoms: N3_10  and  C7_11 
REMARK    3  A    between atoms: C10_16  and  C14_21 
ROOT
ATOM      1  C7  <0> d          -0.131  -5.803  -1.559  0.00  0.00     0.211 C 
ATOM      2  C8  <0> d          -0.541  -7.085  -0.854  0.00  0.00     0.187 C 
ATOM      3  N4  <0> d           0.935  -7.258  -0.699  0.00  0.00    -0.293 N 
ATOM      4  C9  <0> d           1.306  -6.275  -1.541  0.00  0.00     0.251 C 
ATOM      5  O2  <0> d           2.343  -5.921  -2.063  0.00  0.00    -0.271 OA
ATOM      6  C10 <0> d           1.578  -8.117   0.217  0.00  0.00     0.118 C 
ATOM      7  C11 <0> d           0.932  -8.568   1.281  0.00  0.00    -0.041 C 
ATOM      8  C12 <0> d          -0.489  -8.332   1.676  0.00  0.00     0.112 C 
ATOM      9  S1  <0> d          -1.216  -6.875   0.828  0.00  0.00    -0.136 SA
ATOM     10  C13 <0> d           1.737  -9.432   2.218  0.00  0.00     0.047 C 
ENDROOT
BRANCH   1  11
ATOM     11  N3  <0> d          -0.355  -4.601  -0.751  0.00  0.00    -0.339 N 
ATOM     12  C6  <0> d          -0.523  -3.407  -1.353  0.00  0.00     0.274 C 
ATOM     13  O1  <0> d          -0.488  -3.326  -2.565  0.00  0.00    -0.266 OA
ATOM     14  H9  <0> d          -0.382  -4.666   0.216  0.00  0.00     0.163 HD
BRANCH  12  15
ATOM     15  C4  <0> d          -0.749  -2.196  -0.538  0.00  0.00     0.168 A 
ATOM     16  C3  <0> d          -0.941  -0.880  -1.023  0.00  0.00     0.093 A 
ATOM     17  C2  <0> d          -1.108  -0.109   0.078  0.00  0.00     0.050 A 
ATOM     18 Cl1  <0> d          -0.959  -0.363  -2.681  0.00  0.00    -0.079 Cl
ATOM     19  C1  <0> d          -1.347   1.379   0.100  0.00  0.00     0.072 C 
ATOM     20  N2  <0> d          -1.013  -0.926   1.156  0.00  0.00    -0.276 N 
ATOM     21  N1  <0> d          -0.810  -2.136   0.777  0.00  0.00    -0.165 NA
ATOM     22  C5  <0> d          -1.129  -0.492   2.550  0.00  0.00     0.179 C 
ENDBRANCH  12  15
ENDBRANCH   1  11
BRANCH   6  23
ATOM     23  C14 <0> d           2.976  -8.516  -0.014  0.00  0.00     0.227 C 
ATOM     24  O3  <0> d           3.226  -9.518  -0.670  0.00  0.00    -0.643 OA
ATOM     25  O4  <0> d           3.888  -7.846   0.451  0.00  0.00    -0.643 OA
ENDBRANCH   6  23
TORSDOF 3
