REMARK  2 active torsions:
REMARK  status: ('A' for Active; 'I' for Inactive)
REMARK    1  A    between atoms: C5_7  and  N4_16 
REMARK    2  A    between atoms: C6_8  and  C7_10 
ROOT
ATOM      1  C1  <0> d          -0.018   1.503   0.010  0.00  0.00     0.070 C 
ATOM      2  C2  <0> d           0.002  -0.004   0.002  0.00  0.00     0.029 A 
ATOM      3  C3  <0> d           0.005  -0.655  -1.159  0.00  0.00     0.005 A 
ATOM      4  S1  <0> d           0.032  -2.360  -0.630  0.00  0.00    -0.054 SA
ATOM      5  C4  <0> d           0.036  -2.065   1.123  0.00  0.00     0.180 A 
ATOM      6  N1  <0> d           0.023  -0.692   1.199  0.00  0.00    -0.277 N 
ATOM      7  C5  <0> d           0.031  -0.401   2.558  0.00  0.00     0.138 A 
ATOM      8  C6  <0> d           0.053  -1.586   3.231  0.00  0.00     0.114 A 
ATOM      9  N2  <0> d           0.049  -2.588   2.312  0.00  0.00    -0.219 NA
ATOM     10  C12 <0> d          -0.010  -0.096  -2.558  0.00  0.00     0.058 C 
ENDROOT
BRANCH   8  11
ATOM     11  C7  <0> d           0.069  -1.752   4.700  0.00  0.00    -0.001 A 
ATOM     12  C11 <0> d          -0.600  -2.820   5.311  0.00  0.00     0.033 A 
ATOM     13  C10 <0> d          -0.556  -2.939   6.683  0.00  0.00     0.117 A 
ATOM     14  N3  <0> d           0.097  -2.059   7.420  0.00  0.00    -0.273 NA
ATOM     15  C9  <0> d           0.736  -1.035   6.885  0.00  0.00     0.117 A 
ATOM     16  C8  <0> d           0.748  -0.842   5.521  0.00  0.00     0.033 A 
ENDBRANCH   8  11
BRANCH   7  17
ATOM     17  N4  <0> d           0.018   0.871   3.128  0.00  0.00    -0.383 N 
ATOM     18  H8  <0> d           0.003   1.657   2.560  0.00  0.00     0.157 HD
ATOM     19  H9  <0> d           0.025   0.970   4.093  0.00  0.00     0.157 HD
ENDBRANCH   7  17
TORSDOF 2
