REMARK  2 active torsions:
REMARK  status: ('A' for Active; 'I' for Inactive)
REMARK    1  A    between atoms: N1_6  and  C7_10 
REMARK    2  A    between atoms: C9_12  and  N2_17 
ROOT
ATOM      1  C7  <0> d          -0.414  -4.072   0.829  0.00  0.00     0.069 A 
ATOM      2  C8  <0> d           0.158  -4.837  -0.176  0.00  0.00     0.061 A 
ATOM      3  C9  <0> d           0.128  -6.222  -0.094  0.00  0.00     0.028 A 
ATOM      4  C10 <0> d          -0.475  -6.839   0.995  0.00  0.00     0.031 A 
ATOM      5  C11 <0> d          -1.045  -6.075   1.995  0.00  0.00     0.028 A 
ATOM      6  C12 <0> d          -1.011  -4.694   1.919  0.00  0.00     0.061 A 
ATOM      7 Cl1  <0> d          -1.721  -3.738   3.182  0.00  0.00    -0.082 Cl
ENDROOT
BRANCH   1   8
ATOM      8  N1  <0> d          -0.384  -2.672   0.750  0.00  0.00    -0.251 N 
ATOM      9  C4  <0> d          -1.400  -2.040   0.143  0.00  0.00     0.231 C 
ATOM     10  C3  <0> d          -1.434  -0.538   0.036  0.00  0.00     0.108 C 
ATOM     11  O1  <0> d          -2.308  -2.690  -0.329  0.00  0.00    -0.273 OA
ATOM     12  C2  <0> d           0.002  -0.004   0.002  0.00  0.00    -0.001 C 
ATOM     13  C1  <0> d          -0.019   1.526   0.010  0.00  0.00     0.011 C 
ATOM     14  C6  <0> d           0.743  -0.515   1.242  0.00  0.00     0.108 C 
ATOM     15  C5  <0> d           0.658  -2.018   1.284  0.00  0.00     0.231 C 
ATOM     16  O2  <0> d           1.550  -2.650   1.810  0.00  0.00    -0.273 OA
ENDBRANCH   1   8
BRANCH   3  17
ATOM     17  N2  <0> d           0.703  -6.995  -1.106  0.00  0.00    -0.399 N 
ATOM     18  H12 <0> d           1.123  -6.564  -1.866  0.00  0.00     0.156 HD
ATOM     19  H13 <0> d           0.681  -7.963  -1.048  0.00  0.00     0.156 HD
ENDBRANCH   3  17
TORSDOF 2
