REMARK  8 active torsions:
REMARK  status: ('A' for Active; 'I' for Inactive)
REMARK    1  A    between atoms: C2_2  and  N3_33 
REMARK    2  A    between atoms: C3_3  and  N3_33 
REMARK    3  A    between atoms: C5_5  and  C6_6 
REMARK    4  A    between atoms: C5_5  and  N3_33 
REMARK    5  A    between atoms: C6_6  and  N1_7 
REMARK       I    between atoms: N1_7  and  C7_8 
REMARK    6  A    between atoms: C7_8  and  C8_10 
REMARK    7  A    between atoms: C19_21  and  C20_23 
REMARK    8  A    between atoms: C23_26  and  O2_29 
ROOT
ATOM      1  C8  <0> d          -1.053   1.491   1.772  0.00  0.00     0.032 A 
ATOM      2  C9  <0> d          -1.139   2.880   1.912  0.00  0.00     0.019 A 
ATOM      3  C10 <0> d          -2.332   3.452   2.286  0.00  0.00     0.031 A 
ATOM      4  C11 <0> d          -3.445   2.651   2.536  0.00  0.00     0.035 A 
ATOM      5  C12 <0> d          -3.368   1.272   2.409  0.00  0.00    -0.023 A 
ATOM      6  C13 <0> d          -2.170   0.695   2.025  0.00  0.00     0.027 A 
ATOM      7  C14 <0> d          -4.536   0.361   2.676  0.00  0.00     0.050 C 
ATOM      8  C15 <0> d          -4.128  -0.587   3.795  0.00  0.00    -0.021 C 
ATOM      9  C16 <0> d          -4.557  -0.142   4.950  0.00  0.00    -0.029 C 
ATOM     10  C17 <0> d          -5.315   1.161   4.769  0.00  0.00     0.035 C 
ATOM     11  C18 <0> d          -5.737   1.111   3.281  0.00  0.00     0.028 C 
ATOM     12  C19 <0> d          -5.885   2.508   2.709  0.00  0.00     0.120 C 
ATOM     13  N2  <0> d          -4.641   3.258   2.916  0.00  0.00    -0.380 N 
ATOM     14  H26 <0> d          -4.650   4.146   3.305  0.00  0.00     0.160 HD
ENDROOT
BRANCH   1  15
ATOM     15  C7  <0> d           0.220   0.868   1.363  0.00  0.00     0.251 C 
ATOM     16  N1  <0> d           1.298   1.637   1.114  0.00  0.00    -0.355 N 
ATOM     17  H18 <0> d           1.238   2.601   1.207  0.00  0.00     0.162 HD
ATOM     18  O1  <0> d           0.295  -0.340   1.247  0.00  0.00    -0.268 OA
BRANCH  16  19
ATOM     19  C6  <0> d           2.560   1.019   0.702  0.00  0.00     0.150 C 
BRANCH  19  20
ATOM     20  C5  <0> d           3.614   2.106   0.484  0.00  0.00     0.254 C 
BRANCH  20  21
ATOM     21  N3  <0> d           4.886   1.465   0.090  0.00  0.00    -0.070 N 
ATOM     22  H32 <0> d           5.114   0.731   0.770  0.00  0.00     0.279 HD
BRANCH  21  23
ATOM     23  C2  <0> d           4.751   0.855  -1.249  0.00  0.00     0.230 C 
ATOM     24  C1  <0> d           4.386   1.917  -2.288  0.00  0.00     0.034 C 
ENDBRANCH  21  23
BRANCH  21  25
ATOM     25  C3  <0> d           5.975   2.466   0.082  0.00  0.00     0.230 C 
ATOM     26  C4  <0> d           7.316   1.732   0.036  0.00  0.00     0.034 C 
ENDBRANCH  21  25
ENDBRANCH  20  21
ENDBRANCH  19  20
ENDBRANCH  16  19
ENDBRANCH   1  15
BRANCH  12  27
ATOM     27  C20 <0> d          -6.177   2.418   1.233  0.00  0.00    -0.035 A 
ATOM     28  C25 <0> d          -7.475   2.554   0.777  0.00  0.00     0.012 A 
ATOM     29  C24 <0> d          -7.745   2.472  -0.575  0.00  0.00     0.037 A 
ATOM     30  C23 <0> d          -6.713   2.253  -1.476  0.00  0.00     0.065 A 
ATOM     31  C22 <0> d          -5.411   2.116  -1.015  0.00  0.00     0.037 A 
ATOM     32  C21 <0> d          -5.146   2.205   0.337  0.00  0.00     0.012 A 
BRANCH  30  33
ATOM     33  O2  <0> d          -6.976   2.171  -2.806  0.00  0.00    -0.361 OA
ATOM     34  H31 <0> d          -6.934   3.020  -3.268  0.00  0.00     0.217 HD
ENDBRANCH  30  33
ENDBRANCH  12  27
TORSDOF 8
