REMARK  4 active torsions:
REMARK  status: ('A' for Active; 'I' for Inactive)
REMARK    1  A    between atoms: C5_5  and  S1_8 
REMARK    2  A    between atoms: S1_8  and  N1_11 
REMARK       I    between atoms: C8_12  and  N2_14 
REMARK    3  A    between atoms: N2_14  and  C9_15 
REMARK    4  A    between atoms: C12_18  and  N3_21 
ROOT
ATOM      1  N1  <0> d           2.869  -4.655  -0.318  0.00  0.00    -0.115 NA
ATOM      2  C8  <0> d           3.294  -5.880  -0.425  0.00  0.00     0.289 C 
ATOM      3  O3  <0> d           4.618  -6.143  -0.366  0.00  0.00    -0.148 OA
ATOM      4  N2  <0> d           2.396  -6.906  -0.598  0.00  0.00    -0.318 N 
ATOM      5  H9  <0> d           1.454  -6.711  -0.720  0.00  0.00     0.169 HD
ENDROOT
BRANCH   4   6
ATOM      6  C9  <0> d           2.842  -8.235  -0.598  0.00  0.00     0.035 A 
ATOM      7  C14 <0> d           3.909  -8.609   0.208  0.00  0.00     0.032 A 
ATOM      8  C13 <0> d           4.346  -9.918   0.212  0.00  0.00     0.031 A 
ATOM      9  C12 <0> d           3.724 -10.860  -0.598  0.00  0.00     0.030 A 
ATOM     10  C11 <0> d           2.660 -10.485  -1.408  0.00  0.00     0.031 A 
ATOM     11  C10 <0> d           2.221  -9.176  -1.408  0.00  0.00     0.032 A 
BRANCH   9  12
ATOM     12  N3  <0> d           4.169 -12.187  -0.598  0.00  0.00    -0.372 N 
ATOM     13  C18 <0> d           5.246 -12.624  -1.500  0.00  0.00     0.104 C 
ATOM     14  C17 <0> d           4.782 -13.879  -2.241  0.00  0.00     0.192 C 
ATOM     15  C19 <0> d           5.555 -11.517  -2.510  0.00  0.00     0.034 C 
ATOM     16  O4  <0> d           4.316 -14.842  -1.293  0.00  0.00    -0.388 OA
ATOM     17  C16 <0> d           3.184 -14.414  -0.531  0.00  0.00     0.187 C 
ATOM     18  C15 <0> d           3.571 -13.186   0.301  0.00  0.00     0.149 C 
ENDBRANCH   9  12
ENDBRANCH   4   6
BRANCH   1  19
ATOM     19  S1  <0> d           3.950  -3.418  -0.110  0.00  0.00     0.286 S 
ATOM     20  O1  <0> d           4.713  -3.340  -1.306  0.00  0.00    -0.198 OA
ATOM     21  O2  <0> d           4.549  -3.612   1.164  0.00  0.00    -0.198 OA
BRANCH  19  22
ATOM     22  C5  <0> d           3.020  -1.925  -0.007  0.00  0.00     0.081 A 
ATOM     23  C4  <0> d           2.577  -1.470   1.221  0.00  0.00     0.026 A 
ATOM     24  C3  <0> d           1.848  -0.298   1.301  0.00  0.00     0.008 A 
ATOM     25  C2  <0> d           1.564   0.420   0.154  0.00  0.00    -0.062 A 
ATOM     26  C1  <0> d           0.769   1.697   0.243  0.00  0.00     0.048 C 
ATOM     27  C7  <0> d           2.003  -0.038  -1.074  0.00  0.00     0.008 A 
ATOM     28  C6  <0> d           2.735  -1.208  -1.154  0.00  0.00     0.026 A 
ENDBRANCH  19  22
ENDBRANCH   1  19
TORSDOF 4
