REMARK  6 active torsions:
REMARK  status: ('A' for Active; 'I' for Inactive)
REMARK    1  A    between atoms: O1_2  and  C2_3 
REMARK    2  A    between atoms: C5_6  and  C8_9 
REMARK    3  A    between atoms: C8_9  and  N1_10 
REMARK       I    between atoms: N1_10  and  C9_11 
REMARK    4  A    between atoms: C9_11  and  C10_13 
REMARK    5  A    between atoms: C10_13  and  S1_14 
REMARK    6  A    between atoms: S1_14  and  C11_15 
ROOT
ATOM      1  C11 <0> d           8.666  -4.502  -5.579  0.00  0.00     0.207 C 
ATOM      2  N2  <0> d           8.998  -4.071  -4.385  0.00  0.00    -0.231 NA
ATOM      3  C12 <0> d          10.405  -4.154  -3.999  0.00  0.00     0.264 C 
ATOM      4  C13 <0> d          10.992  -5.328  -4.769  0.00  0.00     0.113 C 
ATOM      5  C14 <0> d          11.660  -6.073  -3.845  0.00  0.00     0.022 A 
ATOM      6  C15 <0> d          12.490  -7.214  -3.964  0.00  0.00     0.040 A 
ATOM      7  C16 <0> d          13.003  -7.738  -2.817  0.00  0.00     0.035 A 
ATOM      8  C17 <0> d          12.760  -7.221  -1.539  0.00  0.00     0.026 A 
ATOM      9  C18 <0> d          11.986  -6.127  -1.308  0.00  0.00     0.032 A 
ATOM     10  C19 <0> d          11.393  -5.488  -2.495  0.00  0.00     0.042 A 
ATOM     11  N3  <0> d          10.639  -4.436  -2.590  0.00  0.00    -0.361 N 
ATOM     12 Cl1  <0> d          14.023  -9.137  -2.947  0.00  0.00    -0.084 Cl
ATOM     13  N4  <0> d          10.694  -5.531  -6.056  0.00  0.00    -0.147 NA
ATOM     14  N5  <0> d           9.538  -5.084  -6.438  0.00  0.00    -0.122 NA
ATOM     15  H17 <0> d          10.288  -3.924  -1.845  0.00  0.00     0.162 HD
ENDROOT
BRANCH   1  16
ATOM     16  S1  <0> d           6.990  -4.321  -6.091  0.00  0.00    -0.080 SA
BRANCH  16  17
ATOM     17  C10 <0> d           6.184  -3.516  -4.679  0.00  0.00     0.185 C 
BRANCH  17  18
ATOM     18  C9  <0> d           4.726  -3.300  -4.989  0.00  0.00     0.227 C 
ATOM     19  N1  <0> d           3.923  -2.713  -4.080  0.00  0.00    -0.356 N 
ATOM     20  H11 <0> d           4.284  -2.430  -3.225  0.00  0.00     0.162 HD
ATOM     21  O2  <0> d           4.274  -3.654  -6.058  0.00  0.00    -0.273 OA
BRANCH  19  22
ATOM     22  C8  <0> d           2.505  -2.503  -4.381  0.00  0.00     0.161 C 
BRANCH  22  23
ATOM     23  C5  <0> d           1.835  -1.835  -3.209  0.00  0.00    -0.040 A 
ATOM     24  C4  <0> d           1.786  -0.455  -3.136  0.00  0.00     0.011 A 
ATOM     25  C3  <0> d           1.173   0.161  -2.062  0.00  0.00     0.037 A 
ATOM     26  C2  <0> d           0.606  -0.607  -1.056  0.00  0.00     0.068 A 
ATOM     27  C7  <0> d           0.661  -1.992  -1.128  0.00  0.00     0.037 A 
ATOM     28  C6  <0> d           1.270  -2.602  -2.207  0.00  0.00     0.011 A 
BRANCH  26  29
ATOM     29  O1  <0> d           0.002  -0.004   0.002  0.00  0.00    -0.356 OA
ATOM     30  C1  <0> d          -0.017   1.425   0.010  0.00  0.00     0.210 C 
ENDBRANCH  26  29
ENDBRANCH  22  23
ENDBRANCH  19  22
ENDBRANCH  17  18
ENDBRANCH  16  17
ENDBRANCH   1  16
TORSDOF 6
