REMARK  6 active torsions:
REMARK  status: ('A' for Active; 'I' for Inactive)
REMARK    1  A    between atoms: C4_4  and  C7_7 
REMARK    2  A    between atoms: C7_7  and  C8_8 
REMARK    3  A    between atoms: C7_7  and  N1_10 
REMARK    4  A    between atoms: C8_8  and  O1_9 
REMARK    5  A    between atoms: N1_10  and  S1_11 
REMARK    6  A    between atoms: S1_11  and  C9_14 
ROOT
ATOM      1  N1  <0> d           3.611  -1.865  -0.930  0.00  0.00    -0.304 N 
ATOM      2  H10 <0> d           2.778  -2.356  -0.996  0.00  0.00     0.173 HD
ENDROOT
BRANCH   1   3
ATOM      3  C7  <0> d           3.711  -0.707  -0.038  0.00  0.00     0.149 C 
BRANCH   3   4
ATOM      4  C4  <0> d           2.396   0.029  -0.020  0.00  0.00    -0.033 A 
ATOM      5  C3  <0> d           2.377   1.411  -0.013  0.00  0.00     0.009 A 
ATOM      6  C2  <0> d           1.171   2.086   0.002  0.00  0.00     0.001 A 
ATOM      7  C1  <0> d          -0.017   1.378   0.010  0.00  0.00     0.000 A 
ATOM      8  C6  <0> d           0.002  -0.004   0.002  0.00  0.00     0.001 A 
ATOM      9  C5  <0> d           1.208  -0.679  -0.012  0.00  0.00     0.009 A 
ENDBRANCH   3   4
BRANCH   3  10
ATOM     10  C8  <0> d           4.049  -1.182   1.377  0.00  0.00     0.194 C 
BRANCH  10  11
ATOM     11  O1  <0> d           2.966  -1.962   1.889  0.00  0.00    -0.398 OA
ATOM     12  H9  <0> d           3.112  -2.297   2.784  0.00  0.00     0.209 HD
ENDBRANCH  10  11
ENDBRANCH   3  10
ENDBRANCH   1   3
BRANCH   1  13
ATOM     13  S1  <0> d           4.922  -2.334  -1.827  0.00  0.00     0.262 S 
ATOM     14  O2  <0> d           4.523  -3.485  -2.559  0.00  0.00    -0.200 OA
ATOM     15  O3  <0> d           5.422  -1.164  -2.459  0.00  0.00    -0.200 OA
BRANCH  13  16
ATOM     16  C9  <0> d           6.165  -2.864  -0.695  0.00  0.00     0.119 A 
ATOM     17  C14 <0> d           6.736  -1.957   0.181  0.00  0.00     0.161 A 
ATOM     18  C13 <0> d           7.708  -2.376   1.074  0.00  0.00     0.074 A 
ATOM     19  F1  <0> d           6.341  -0.665   0.168  0.00  0.00    -0.203 F 
ATOM     20  C12 <0> d           8.115  -3.698   1.082  0.00  0.00     0.027 A 
ATOM     21 Cl1  <0> d           8.421  -1.242   2.179  0.00  0.00    -0.081 Cl
ATOM     22  C11 <0> d           7.548  -4.601   0.202  0.00  0.00     0.003 A 
ATOM     23  C10 <0> d           6.573  -4.184  -0.685  0.00  0.00     0.028 A 
ENDBRANCH  13  16
ENDBRANCH   1  13
TORSDOF 6
