REMARK  3 active torsions:
REMARK  status: ('A' for Active; 'I' for Inactive)
REMARK    1  A    between atoms: C3_3  and  C10_12 
REMARK    2  A    between atoms: C15_22  and  C16_24 
REMARK    3  A    between atoms: C19_27  and  O2_30 
ROOT
ATOM      1  C10 <0> d          -0.060  -0.159  -2.400  0.00  0.00     0.035 C 
ATOM      2  C11 <0> d          -0.913   0.892  -2.681  0.00  0.00     0.082 C 
ATOM      3  C12 <0> d          -1.717   1.555  -1.619  0.00  0.00     0.162 C 
ATOM      4  N2  <0> d          -1.303   1.693  -0.386  0.00  0.00    -0.281 NA
ATOM      5  N3  <0> d          -2.970   2.020  -2.071  0.00  0.00    -0.189 N 
ATOM      6  C13 <0> d          -3.105   2.272  -3.420  0.00  0.00     0.201 A 
ATOM      7  N4  <0> d          -2.230   2.041  -4.366  0.00  0.00    -0.182 NA
ATOM      8  C14 <0> d          -1.070   1.424  -4.055  0.00  0.00     0.283 C 
ATOM      9  O1  <0> d          -0.179   1.303  -4.881  0.00  0.00    -0.265 OA
ATOM     10  S1  <0> d          -4.741   2.950  -3.513  0.00  0.00    -0.028 SA
ATOM     11  C15 <0> d          -5.173   2.762  -1.789  0.00  0.00     0.132 A 
ATOM     12  N5  <0> d          -4.074   2.256  -1.281  0.00  0.00    -0.155 NA
ATOM     13  H10 <0> d          -1.867   2.134   0.269  0.00  0.00     0.188 HD
ENDROOT
BRANCH   1  14
ATOM     14  C3  <0> d          -0.034  -0.720  -1.103  0.00  0.00    -0.000 A 
ATOM     15  C2  <0> d           1.062  -0.830  -0.269  0.00  0.00     0.017 A 
ATOM     16  C1  <0> d           2.456  -0.362  -0.598  0.00  0.00     0.069 C 
ATOM     17  N1  <0> d           0.694  -1.425   0.883  0.00  0.00    -0.358 N 
ATOM     18  C9  <0> d          -0.653  -1.726   0.869  0.00  0.00     0.043 A 
ATOM     19  H1  <0> d           1.294  -1.615   1.622  0.00  0.00     0.166 HD
ATOM     20  C4  <0> d          -1.171  -1.306  -0.366  0.00  0.00     0.003 A 
ATOM     21  C8  <0> d          -1.501  -2.325   1.794  0.00  0.00     0.030 A 
ATOM     22  C5  <0> d          -2.519  -1.491  -0.659  0.00  0.00     0.014 A 
ATOM     23  C6  <0> d          -3.343  -2.088   0.271  0.00  0.00     0.001 A 
ATOM     24  C7  <0> d          -2.834  -2.503   1.493  0.00  0.00     0.002 A 
ENDBRANCH   1  14
BRANCH  11  25
ATOM     25  C16 <0> d          -6.444   3.092  -1.108  0.00  0.00     0.002 A 
ATOM     26  C21 <0> d          -7.508   3.628  -1.835  0.00  0.00     0.017 A 
ATOM     27  C20 <0> d          -8.693   3.929  -1.199  0.00  0.00     0.037 A 
ATOM     28  C19 <0> d          -8.825   3.711   0.166  0.00  0.00     0.065 A 
ATOM     29  C18 <0> d          -7.766   3.183   0.894  0.00  0.00     0.037 A 
ATOM     30  C17 <0> d          -6.580   2.873   0.263  0.00  0.00     0.017 A 
BRANCH  28  31
ATOM     31  O2  <0> d          -9.992   4.014   0.791  0.00  0.00    -0.361 OA
ATOM     32  H15 <0> d         -10.033   4.918   1.132  0.00  0.00     0.217 HD
ENDBRANCH  28  31
ENDBRANCH  11  25
TORSDOF 3
