REMARK  3 active torsions:
REMARK  status: ('A' for Active; 'I' for Inactive)
REMARK    1  A    between atoms: N2_12  and  C12_17 
REMARK    2  A    between atoms: C12_17  and  C13_18 
REMARK    3  A    between atoms: C13_18  and  N4_19 
ROOT
ATOM      1  C1  <0> d           4.402   5.463   4.701  0.00  0.00     0.015 C 
ATOM      2  C2  <0> d           3.838   4.186   5.330  0.00  0.00    -0.037 C 
ATOM      3  C3  <0> d           3.131   3.360   4.258  0.00  0.00     0.050 C 
ATOM      4  C4  <0> d           2.687   2.033   4.801  0.00  0.00    -0.022 A 
ATOM      5  C5  <0> d           3.282   1.460   5.929  0.00  0.00     0.035 A 
ATOM      6  C6  <0> d           2.834   0.216   6.389  0.00  0.00     0.134 A 
ATOM      7  N1  <0> d           1.859  -0.422   5.778  0.00  0.00    -0.241 NA
ATOM      8  C7  <0> d           1.262   0.079   4.707  0.00  0.00     0.149 A 
ATOM      9  C8  <0> d           1.660   1.327   4.185  0.00  0.00     0.086 A 
ATOM     10  C9  <0> d           0.968   1.843   2.991  0.00  0.00     0.266 A 
ATOM     11  O1  <0> d           1.277   2.913   2.504  0.00  0.00    -0.267 OA
ATOM     12  N2  <0> d          -0.020   1.094   2.454  0.00  0.00    -0.264 N 
ATOM     13  C10 <0> d          -0.366  -0.085   2.993  0.00  0.00     0.333 A 
ATOM     14  O2  <0> d          -1.265  -0.719   2.475  0.00  0.00    -0.246 OA
ATOM     15  N3  <0> d           0.239  -0.601   4.076  0.00  0.00    -0.287 N 
ATOM     16  C11 <0> d          -0.196  -1.899   4.597  0.00  0.00     0.163 C 
ATOM     17  C14 <0> d           4.370   2.165   6.626  0.00  0.00     0.162 C 
ATOM     18  O3  <0> d           4.760   1.800   7.714  0.00  0.00    -0.292 OA
ATOM     19  C15 <0> d           4.985   3.365   5.934  0.00  0.00     0.093 C 
ATOM     20  C16 <0> d           2.841   4.557   6.429  0.00  0.00     0.015 C 
ENDROOT
BRANCH  12  21
ATOM     21  C12 <0> d          -0.729   1.579   1.267  0.00  0.00     0.164 C 
BRANCH  21  22
ATOM     22  C13 <0> d          -0.013   1.086   0.008  0.00  0.00     0.250 C 
BRANCH  22  23
ATOM     23  N4  <0> d          -0.723   1.572  -1.182  0.00  0.00    -0.078 N 
ATOM     24  H14 <0> d          -0.208   1.218  -2.087  0.00  0.00     0.274 HD
ATOM     25  H15 <0> d          -0.738   2.672  -1.176  0.00  0.00     0.274 HD
ATOM     26  H21 <0> d          -1.755   1.192  -1.174  0.00  0.00     0.274 HD
ENDBRANCH  22  23
ENDBRANCH  21  22
ENDBRANCH  12  21
TORSDOF 3
