REMARK  1 active torsions:
REMARK  status: ('A' for Active; 'I' for Inactive)
REMARK    1  A    between atoms: C5_6  and  N4_10 
ROOT
ATOM      1  C1  <0> d          -0.013   1.076   0.008  0.00  0.00     0.038 A 
ATOM      2  C2  <0> d          -1.145   1.892   0.017  0.00  0.00     0.042 A 
ATOM      3  C3  <0> d          -0.727   3.187   0.025  0.00  0.00     0.105 A 
ATOM      4  N1  <0> d           0.618   3.215   0.013  0.00  0.00    -0.222 N 
ATOM      5  C4  <0> d           1.085   1.914   0.002  0.00  0.00     0.105 A 
ATOM      6  C5  <0> d           2.482   1.697  -0.012  0.00  0.00     0.151 A 
ATOM      7  N2  <0> d           3.296   2.740  -0.014  0.00  0.00    -0.221 NA
ATOM      8  C6  <0> d           2.832   3.989  -0.004  0.00  0.00     0.258 A 
ATOM      9  N3  <0> d           1.556   4.258   0.009  0.00  0.00    -0.159 NA
ATOM     10 Br1  <0> d          -1.857   4.703   0.042  0.00  0.00    -0.029 Br
ENDROOT
BRANCH   6  11
ATOM     11  N4  <0> d           2.990   0.414  -0.023  0.00  0.00    -0.382 N 
ATOM     12  H4  <0> d           2.388  -0.346  -0.021  0.00  0.00     0.157 HD
ATOM     13  H5  <0> d           3.950   0.272  -0.033  0.00  0.00     0.157 HD
ENDBRANCH   6  11
TORSDOF 1
