REMARK  2 active torsions:
REMARK  status: ('A' for Active; 'I' for Inactive)
REMARK    1  A    between atoms: C3_3  and  C5_6 
REMARK    2  A    between atoms: C8_10  and  C9_11 
ROOT
ATOM      1  C5  <0> d           1.256  -0.491  -0.728  0.00  0.00     0.040 C 
ATOM      2  C6  <0> d           0.002  -0.004   0.002  0.00  0.00     0.094 C 
ATOM      3  C7  <0> d          -0.018   1.502   0.010  0.00  0.00     0.167 C 
ATOM      4  O1  <0> d          -1.081   2.091   0.018  0.00  0.00    -0.292 OA
ATOM      5  C8  <0> d           1.187   2.233   0.003  0.00  0.00     0.099 C 
ATOM      6  C16 <0> d           2.432   1.571  -0.016  0.00  0.00     0.167 C 
ATOM      7  O2  <0> d           3.459   2.219  -0.025  0.00  0.00    -0.292 OA
ATOM      8  C17 <0> d           2.496   0.066  -0.025  0.00  0.00     0.094 C 
ENDROOT
BRANCH   5   9
ATOM      9  C9  <0> d           1.147   3.639   0.013  0.00  0.00     0.115 C 
ATOM     10  N2  <0> d           2.256   4.415   0.007  0.00  0.00    -0.369 N 
ATOM     11  C15 <0> d           1.841   5.836  -0.064  0.00  0.00     0.105 C 
ATOM     12  H18 <0> d           3.171   4.094   0.043  0.00  0.00     0.161 HD
ATOM     13  C10 <0> d           0.343   5.771   0.115  0.00  0.00     0.105 C 
ATOM     14  C14 <0> d           2.332   6.397  -1.384  0.00  0.00     0.027 C 
ATOM     15  N1  <0> d          -0.006   4.353   0.025  0.00  0.00    -0.369 N 
ATOM     16  C11 <0> d          -0.534   6.666  -0.702  0.00  0.00     0.027 C 
ATOM     17  H9  <0> d          -0.903   3.987  -0.016  0.00  0.00     0.161 HD
ATOM     18  C12 <0> d           0.026   6.951  -2.092  0.00  0.00     0.002 C 
ATOM     19  C13 <0> d           1.443   7.513  -1.917  0.00  0.00     0.002 C 
ENDBRANCH   5   9
BRANCH   1  20
ATOM     20  C3  <0> d           1.298  -1.998  -0.707  0.00  0.00    -0.013 A 
ATOM     21  C2  <0> d           1.309  -2.866  -1.748  0.00  0.00     0.015 A 
ATOM     22  C1  <0> d           1.350  -4.223  -1.488  0.00  0.00     0.008 A 
ATOM     23  C4  <0> d           1.380  -4.645  -0.200  0.00  0.00     0.050 A 
ATOM     24  S1  <0> d           1.355  -3.101   0.696  0.00  0.00    -0.106 SA
ENDBRANCH   1  20
TORSDOF 2
