REMARK  6 active torsions:
REMARK  status: ('A' for Active; 'I' for Inactive)
REMARK    1  A    between atoms: C2_2  and  C3_3 
REMARK    2  A    between atoms: C4_6  and  S1_9 
REMARK    3  A    between atoms: S1_9  and  C6_12 
REMARK    4  A    between atoms: C6_12  and  C7_13 
REMARK       I    between atoms: C7_13  and  N4_15 
REMARK    5  A    between atoms: N4_15  and  C8_16 
REMARK    6  A    between atoms: C8_16  and  C9_17 
ROOT
ATOM      1  S1  <0> d          -4.751  -1.750  -1.552  0.00  0.00     0.219 S 
ATOM      2  O1  <0> d          -4.200  -2.186  -2.787  0.00  0.00    -0.219 OA
ATOM      3  O2  <0> d          -5.458  -2.655  -0.715  0.00  0.00    -0.219 OA
ENDROOT
BRANCH   1   4
ATOM      4  C4  <0> d          -3.362  -1.242  -0.594  0.00  0.00     0.249 A 
ATOM      5  N2  <0> d          -3.288  -1.219   0.709  0.00  0.00    -0.118 NA
ATOM      6  N1  <0> d          -2.129  -0.794   1.069  0.00  0.00    -0.134 NA
ATOM      7  C3  <0> d          -1.412  -0.526   0.013  0.00  0.00     0.130 A 
ATOM      8  N3  <0> d          -2.175  -0.798  -1.073  0.00  0.00    -0.312 N 
ATOM      9  C5  <0> d          -1.794  -0.645  -2.479  0.00  0.00     0.160 C 
BRANCH   7  10
ATOM     10  C2  <0> d           0.002  -0.004   0.002  0.00  0.00     0.076 C 
ATOM     11  C1  <0> d          -0.019   1.526   0.010  0.00  0.00     0.013 C 
ENDBRANCH   7  10
ENDBRANCH   1   4
BRANCH   1  12
ATOM     12  C6  <0> d          -5.724  -0.239  -1.800  0.00  0.00     0.251 C 
BRANCH  12  13
ATOM     13  C7  <0> d          -6.950  -0.560  -2.617  0.00  0.00     0.232 C 
ATOM     14  O3  <0> d          -7.147  -1.695  -2.994  0.00  0.00    -0.273 OA
ATOM     15  N4  <0> d          -7.826   0.416  -2.928  0.00  0.00    -0.360 N 
ATOM     16  H11 <0> d          -7.668   1.324  -2.626  0.00  0.00     0.162 HD
BRANCH  15  17
ATOM     17  C8  <0> d          -9.017   0.104  -3.721  0.00  0.00     0.127 C 
BRANCH  17  18
ATOM     18  C9  <0> d          -9.838   1.379  -3.931  0.00  0.00     0.003 C 
ATOM     19  C12 <0> d         -11.050   1.185  -4.857  0.00  0.00     0.006 C 
ATOM     20  C11 <0> d         -11.831   2.097  -3.896  0.00  0.00     0.001 C 
ATOM     21  C10 <0> d         -10.844   1.656  -2.801  0.00  0.00     0.006 C 
ENDBRANCH  17  18
ENDBRANCH  15  17
ENDBRANCH  12  13
ENDBRANCH   1  12
TORSDOF 6
