REMARK  6 active torsions:
REMARK  status: ('A' for Active; 'I' for Inactive)
REMARK    1  A    between atoms: C2_2  and  O1_4 
REMARK    2  A    between atoms: O1_4  and  C4_5 
REMARK    3  A    between atoms: C8_9  and  C10_11 
REMARK    4  A    between atoms: C10_11  and  C11_12 
REMARK    5  A    between atoms: C10_11  and  N2_14 
REMARK    6  A    between atoms: C11_12  and  N1_13 
ROOT
ATOM      1  C10 <0> d          -4.414  -4.124  -1.092  0.00  0.00     0.246 C 
ENDROOT
BRANCH   1   2
ATOM      2  C8  <0> d          -2.967  -3.705  -1.069  0.00  0.00    -0.023 A 
ATOM      3  C7  <0> d          -2.009  -4.497  -1.674  0.00  0.00     0.009 A 
ATOM      4  C6  <0> d          -0.680  -4.114  -1.655  0.00  0.00     0.003 A 
ATOM      5  C5  <0> d          -0.307  -2.939  -1.031  0.00  0.00     0.037 A 
ATOM      6  C4  <0> d          -1.267  -2.143  -0.423  0.00  0.00     0.069 A 
ATOM      7  C9  <0> d          -2.598  -2.532  -0.439  0.00  0.00     0.046 A 
BRANCH   6   8
ATOM      8  O1  <0> d          -0.902  -0.988   0.192  0.00  0.00    -0.347 OA
BRANCH   8   9
ATOM      9  C2  <0> d          -1.923  -0.277   0.896  0.00  0.00     0.120 C 
ATOM     10  C1  <0> d          -1.285   0.588   1.985  0.00  0.00     0.040 C 
ATOM     11  C3  <0> d          -2.689   0.617  -0.082  0.00  0.00     0.040 C 
ENDBRANCH   8   9
ENDBRANCH   6   8
ENDBRANCH   1   2
BRANCH   1  12
ATOM     12  C11 <0> d          -5.028  -3.766  -2.447  0.00  0.00     0.267 C 
BRANCH  12  13
ATOM     13  N1  <0> d          -5.021  -2.307  -2.617  0.00  0.00    -0.077 N 
ATOM     14  H15 <0> d          -5.482  -1.874  -1.830  0.00  0.00     0.274 HD
ATOM     15  H16 <0> d          -4.069  -1.979  -2.671  0.00  0.00     0.274 HD
ATOM     16  H32 <0> d          -5.509  -2.065  -3.467  0.00  0.00     0.274 HD
ENDBRANCH  12  13
ENDBRANCH   1  12
BRANCH   1  17
ATOM     17  N2  <0> d          -4.507  -5.575  -0.881  0.00  0.00    -0.061 N 
ATOM     18  C16 <0> d          -3.864  -5.925   0.391  0.00  0.00     0.236 C 
ATOM     19  C15 <0> d          -3.886  -7.444   0.578  0.00  0.00     0.036 C 
ATOM     20  C14 <0> d          -5.338  -7.930   0.586  0.00  0.00    -0.045 C 
ATOM     21  C13 <0> d          -6.020  -7.495  -0.714  0.00  0.00     0.036 C 
ATOM     22  C17 <0> d          -5.365  -9.457   0.693  0.00  0.00     0.015 C 
ATOM     23  C18 <0> d          -6.075  -7.320   1.780  0.00  0.00     0.015 C 
ATOM     24  C12 <0> d          -5.919  -5.975  -0.852  0.00  0.00     0.236 C 
ATOM     25  H31 <0> d          -4.039  -6.054  -1.636  0.00  0.00     0.280 HD
ENDBRANCH   1  17
TORSDOF 6
