REMARK  4 active torsions:
REMARK  status: ('A' for Active; 'I' for Inactive)
REMARK    1  A    between atoms: C2_2  and  C4_4 
REMARK       I    between atoms: C4_4  and  N1_6 
REMARK    2  A    between atoms: C6_8  and  C13_16 
REMARK       I    between atoms: C13_16  and  N3_18 
REMARK    3  A    between atoms: N3_18  and  C14_19 
REMARK    4  A    between atoms: C14_19  and  C15_20 
REMARK       I    between atoms: C15_20  and  N4_22 
ROOT
ATOM      1  C4  <0> d          -1.563  -0.569   0.062  0.00  0.00     0.223 C 
ATOM      2  O1  <0> d          -1.953  -1.321   0.929  0.00  0.00    -0.273 OA
ATOM      3  N1  <0> d          -2.370  -0.258  -0.972  0.00  0.00    -0.350 N 
ATOM      4  C5  <0> d          -2.072   0.630  -2.121  0.00  0.00     0.140 C 
ATOM      5  C6  <0> d          -2.713  -0.077  -3.337  0.00  0.00     0.106 C 
ATOM      6  C7  <0> d          -3.817  -0.964  -2.738  0.00  0.00    -0.007 C 
ATOM      7  C8  <0> d          -3.752  -0.732  -1.221  0.00  0.00     0.136 C 
ATOM      8  C9  <0> d          -5.181  -0.548  -3.279  0.00  0.00     0.039 C 
ATOM      9  C10 <0> d          -6.256  -1.482  -2.714  0.00  0.00     0.233 C 
ATOM     10  N2  <0> d          -5.956  -2.866  -3.099  0.00  0.00    -0.075 N 
ATOM     11  C11 <0> d          -4.686  -3.289  -2.498  0.00  0.00     0.233 C 
ATOM     12  C12 <0> d          -3.545  -2.432  -3.053  0.00  0.00     0.039 C 
ATOM     13  H17 <0> d          -6.697  -3.471  -2.778  0.00  0.00     0.277 HD
ATOM     14  H31 <0> d          -5.887  -2.927  -4.104  0.00  0.00     0.277 HD
ENDROOT
BRANCH   5  15
ATOM     15  C13 <0> d          -3.306   0.937  -4.281  0.00  0.00     0.224 C 
ATOM     16  O2  <0> d          -3.742   1.984  -3.851  0.00  0.00    -0.273 OA
ATOM     17  N3  <0> d          -3.351   0.681  -5.603  0.00  0.00    -0.352 N 
ATOM     18  H22 <0> d          -3.002  -0.157  -5.947  0.00  0.00     0.162 HD
BRANCH  17  19
ATOM     19  C14 <0> d          -3.928   1.666  -6.521  0.00  0.00     0.225 C 
BRANCH  19  20
ATOM     20  C15 <0> d          -3.858   1.140  -7.931  0.00  0.00     0.236 C 
ATOM     21  O3  <0> d          -3.374   0.050  -8.149  0.00  0.00    -0.272 OA
ATOM     22  N4  <0> d          -4.333   1.882  -8.952  0.00  0.00    -0.359 N 
ATOM     23  C16 <0> d          -4.265   1.371 -10.323  0.00  0.00     0.152 C 
ATOM     24  C17 <0> d          -4.917   3.200  -8.689  0.00  0.00     0.152 C 
ENDBRANCH  19  20
ENDBRANCH  17  19
ENDBRANCH   5  15
BRANCH   1  25
ATOM     25  C2  <0> d          -0.178   0.019   0.140  0.00  0.00     0.070 C 
ATOM     26  C1  <0> d          -0.274   1.545   0.192  0.00  0.00     0.019 C 
ATOM     27  C3  <0> d           0.522  -0.491   1.401  0.00  0.00     0.019 C 
ENDBRANCH   1  25
TORSDOF 4
