REMARK  4 active torsions:
REMARK  status: ('A' for Active; 'I' for Inactive)
REMARK    1  A    between atoms: C2_2  and  C3_3 
REMARK    2  A    between atoms: C3_3  and  C4_4 
REMARK       I    between atoms: C4_4  and  N1_6 
REMARK    3  A    between atoms: N1_6  and  C5_7 
REMARK    4  A    between atoms: C16_18  and  C17_20 
ROOT
ATOM      1  C5  <0> d           2.396   0.035  -0.029  0.00  0.00     0.043 A 
ATOM      2  C6  <0> d           1.210  -0.684  -0.028  0.00  0.00     0.032 A 
ATOM      3  C7  <0> d          -0.001  -0.018  -0.019  0.00  0.00     0.028 A 
ATOM      4  C8  <0> d          -0.025   1.362  -0.014  0.00  0.00     0.056 A 
ATOM      5  C9  <0> d           1.165   2.091  -0.016  0.00  0.00     0.040 A 
ATOM      6  C10 <0> d           2.379   1.429  -0.020  0.00  0.00    -0.000 A 
ATOM      7  C11 <0> d           3.695   2.149  -0.010  0.00  0.00     0.051 C 
ATOM      8  C12 <0> d           4.369   2.007   1.334  0.00  0.00    -0.021 C 
ATOM      9  C13 <0> d           4.949   3.130   1.677  0.00  0.00    -0.029 C 
ATOM     10  C14 <0> d           4.751   4.181   0.602  0.00  0.00     0.034 C 
ATOM     11  C15 <0> d           3.510   3.671  -0.183  0.00  0.00     0.024 C 
ATOM     12  C16 <0> d           2.260   4.110   0.583  0.00  0.00     0.106 C 
ATOM     13  N2  <0> d           1.079   3.484  -0.015  0.00  0.00    -0.281 NA
ATOM     14 Cl1  <0> d          -1.547   2.197  -0.012  0.00  0.00    -0.082 Cl
ATOM     15  H18 <0> d           0.235   3.794   0.442  0.00  0.00     0.128 HD
ENDROOT
BRANCH   1  16
ATOM     16  N1  <0> d           3.619  -0.645  -0.037  0.00  0.00    -0.327 N 
ATOM     17  C4  <0> d           3.746  -1.813   0.623  0.00  0.00     0.222 C 
ATOM     18  O1  <0> d           2.779  -2.317   1.155  0.00  0.00    -0.273 OA
ATOM     19  H11 <0> d           4.376  -0.275  -0.518  0.00  0.00     0.169 HD
BRANCH  17  20
ATOM     20  C3  <0> d           5.089  -2.493   0.700  0.00  0.00     0.103 C 
BRANCH  20  21
ATOM     21  C2  <0> d           4.958  -3.791   1.499  0.00  0.00     0.005 C 
ATOM     22  C1  <0> d           6.321  -4.482   1.577  0.00  0.00     0.005 C 
ENDBRANCH  20  21
ENDBRANCH  17  20
ENDBRANCH   1  16
BRANCH  12  23
ATOM     23  C17 <0> d           2.378   3.685   2.024  0.00  0.00     0.007 A 
ATOM     24  S1  <0> d           2.191   2.059   2.736  0.00  0.00    -0.104 SA
ATOM     25  C20 <0> d           2.494   2.494   4.440  0.00  0.00     0.051 A 
ATOM     26  C19 <0> d           2.707   3.830   4.355  0.00  0.00     0.015 A 
ATOM     27  C18 <0> d           2.647   4.440   3.117  0.00  0.00    -0.047 A 
ATOM     28  C21 <0> d           2.877   5.924   2.983  0.00  0.00     0.049 C 
ENDBRANCH  12  23
TORSDOF 4
