REMARK  5 active torsions:
REMARK  status: ('A' for Active; 'I' for Inactive)
REMARK    1  A    between atoms: C3_4  and  S1_7 
REMARK    2  A    between atoms: S1_7  and  N3_10 
REMARK    3  A    between atoms: C6_12  and  C13_19 
REMARK    4  A    between atoms: C13_19  and  C14_20 
REMARK    5  A    between atoms: C14_20  and  N4_21 
ROOT
ATOM      1  N3  <0> d           0.855  -4.701  -0.821  0.00  0.00    -0.269 N 
ATOM      2  C5  <0> d           2.300  -4.934  -0.888  0.00  0.00     0.151 A 
ATOM      3  C6  <0> d           2.562  -6.114   0.062  0.00  0.00     0.041 A 
ATOM      4  C7  <0> d           1.199  -6.469   0.612  0.00  0.00    -0.025 A 
ATOM      5  C8  <0> d           0.264  -5.606   0.061  0.00  0.00     0.052 A 
ATOM      6  C9  <0> d          -1.077  -5.738   0.426  0.00  0.00     0.031 A 
ATOM      7  C10 <0> d          -1.461  -6.710   1.326  0.00  0.00     0.002 A 
ATOM      8  C11 <0> d          -0.520  -7.563   1.872  0.00  0.00     0.001 A 
ATOM      9  C12 <0> d           0.809  -7.445   1.509  0.00  0.00     0.010 A 
ENDROOT
BRANCH   1  10
ATOM     10  S1  <0> d           0.044  -3.529  -1.664  0.00  0.00     0.284 S 
ATOM     11  O1  <0> d          -1.305  -3.965  -1.769  0.00  0.00    -0.198 OA
ATOM     12  O2  <0> d           0.837  -3.225  -2.803  0.00  0.00    -0.198 OA
BRANCH  10  13
ATOM     13  C3  <0> d           0.028  -2.081  -0.660  0.00  0.00     0.188 A 
ATOM     14  C2  <0> d           0.008  -0.810  -1.104  0.00  0.00     0.137 A 
ATOM     15  N1  <0> d           0.002  -0.004   0.002  0.00  0.00    -0.353 N 
ATOM     16  C1  <0> d          -0.018   1.461   0.010  0.00  0.00     0.156 C 
ATOM     17  C4  <0> d           0.024  -0.811   1.085  0.00  0.00     0.210 A 
ATOM     18  N2  <0> d           0.034  -2.052   0.681  0.00  0.00    -0.229 NA
ENDBRANCH  10  13
ENDBRANCH   1  10
BRANCH   3  19
ATOM     19  C13 <0> d           3.155  -7.297  -0.706  0.00  0.00     0.038 C 
BRANCH  19  20
ATOM     20  C14 <0> d           3.523  -8.411   0.277  0.00  0.00     0.230 C 
BRANCH  20  21
ATOM     21  N4  <0> d           4.092  -9.547  -0.461  0.00  0.00    -0.079 N 
ATOM     22  H17 <0> d           3.413  -9.892  -1.123  0.00  0.00     0.274 HD
ATOM     23  H18 <0> d           4.920  -9.246  -0.954  0.00  0.00     0.274 HD
ATOM     24  H19 <0> d           4.334 -10.281   0.187  0.00  0.00     0.274 HD
ENDBRANCH  20  21
ENDBRANCH  19  20
ENDBRANCH   3  19
TORSDOF 5
