REMARK  8 active torsions:
REMARK  status: ('A' for Active; 'I' for Inactive)
REMARK    1  A    between atoms: C5_5  and  N1_8 
REMARK    2  A    between atoms: N1_8  and  C8_9 
REMARK    3  A    between atoms: C8_9  and  C9_10 
REMARK    4  A    between atoms: C10_13  and  S1_21 
REMARK    5  A    between atoms: N4_14  and  C11_15 
REMARK    6  A    between atoms: S1_21  and  C17_22 
REMARK    7  A    between atoms: C17_22  and  C18_23 
REMARK    8  A    between atoms: N5_25  and  C19_26 
ROOT
ATOM      1  C9  <0> d           0.092  -6.387   0.960  0.00  0.00     0.153 A 
ATOM      2  N2  <0> d          -0.948  -7.158   0.815  0.00  0.00    -0.132 NA
ATOM      3  N3  <0> d          -0.574  -8.366   0.582  0.00  0.00    -0.122 NA
ATOM      4  C10 <0> d           0.737  -8.433   0.566  0.00  0.00     0.196 A 
ATOM      5  N4  <0> d           1.205  -7.170   0.802  0.00  0.00    -0.274 N 
ENDROOT
BRANCH   4   6
ATOM      6  S1  <0> d           1.709  -9.876   0.287  0.00  0.00    -0.082 SA
BRANCH   6   7
ATOM      7  C17 <0> d           0.483 -11.189   0.037  0.00  0.00     0.172 C 
BRANCH   7   8
ATOM      8  C18 <0> d           1.191 -12.496  -0.215  0.00  0.00     0.205 C 
ATOM      9  O1  <0> d           0.477 -13.618  -0.429  0.00  0.00    -0.174 OA
ATOM     10  N5  <0> d           2.492 -12.540  -0.226  0.00  0.00    -0.037 NA
BRANCH  10  11
ATOM     11  C19 <0> d           3.132 -13.722  -0.454  0.00  0.00     0.746 A 
ATOM     12  N6  <0> d           2.557 -14.888  -0.678  0.00  0.00    -0.053 NA
ATOM     13  C20 <0> d           3.489 -15.821  -0.858  0.00  0.00     0.275 A 
ATOM     14  N7  <0> d           4.672 -15.274  -0.755  0.00  0.00    -0.152 NA
ATOM     15  N8  <0> d           4.473 -13.908  -0.498  0.00  0.00    -0.104 N 
ATOM     16  H1  <0> d           5.159 -13.234  -0.374  0.00  0.00     0.208 HD
ENDBRANCH  10  11
ENDBRANCH   7   8
ENDBRANCH   6   7
ENDBRANCH   4   6
BRANCH   5  17
ATOM     17  C11 <0> d           2.545  -6.761   0.871  0.00  0.00     0.043 A 
ATOM     18  C16 <0> d           3.367  -7.240   1.882  0.00  0.00     0.030 A 
ATOM     19  C15 <0> d           4.688  -6.841   1.943  0.00  0.00     0.002 A 
ATOM     20  C14 <0> d           5.189  -5.957   1.006  0.00  0.00     0.000 A 
ATOM     21  C13 <0> d           4.371  -5.473   0.001  0.00  0.00     0.002 A 
ATOM     22  C12 <0> d           3.051  -5.873  -0.069  0.00  0.00     0.030 A 
ENDBRANCH   5  17
BRANCH   1  23
ATOM     23  C8  <0> d           0.074  -4.907   1.244  0.00  0.00     0.201 C 
BRANCH  23  24
ATOM     24  N1  <0> d           0.058  -4.167  -0.021  0.00  0.00    -0.383 N 
ATOM     25  H9  <0> d           0.060  -4.648  -0.864  0.00  0.00     0.160 HD
BRANCH  24  26
ATOM     26  C5  <0> d           0.040  -2.771  -0.013  0.00  0.00     0.028 A 
ATOM     27  C4  <0> d           0.024  -2.068  -1.212  0.00  0.00     0.029 A 
ATOM     28  C3  <0> d           0.006  -0.687  -1.200  0.00  0.00     0.009 A 
ATOM     29  C2  <0> d           0.002  -0.004   0.002  0.00  0.00    -0.062 A 
ATOM     30  C1  <0> d          -0.018   1.503   0.010  0.00  0.00     0.048 C 
ATOM     31  C7  <0> d           0.023  -0.700   1.197  0.00  0.00     0.009 A 
ATOM     32  C6  <0> d           0.036  -2.081   1.193  0.00  0.00     0.029 A 
ENDBRANCH  24  26
ENDBRANCH  23  24
ENDBRANCH   1  23
TORSDOF 8
