REMARK  3 active torsions:
REMARK  status: ('A' for Active; 'I' for Inactive)
REMARK    1  A    between atoms: C3_3  and  N1_9 
REMARK       I    between atoms: N1_9  and  C7_10 
REMARK    2  A    between atoms: C7_10  and  C8_12 
REMARK    3  A    between atoms: C11_15  and  N4_18 
ROOT
ATOM      1  N1  <0> d           3.584   2.126  -0.021  0.00  0.00    -0.320 N 
ATOM      2  C7  <0> d           3.567   3.470  -0.116  0.00  0.00     0.276 C 
ATOM      3  O1  <0> d           2.509   4.068  -0.103  0.00  0.00    -0.266 OA
ATOM      4  H4  <0> d           4.428   1.655   0.049  0.00  0.00     0.169 HD
ENDROOT
BRANCH   2   5
ATOM      5  C8  <0> d           4.837   4.218  -0.236  0.00  0.00     0.147 A 
ATOM      6  N3  <0> d           5.994   3.567  -0.251  0.00  0.00    -0.143 NA
ATOM      7  N2  <0> d           7.118   4.177  -0.359  0.00  0.00    -0.132 NA
ATOM      8  C11 <0> d           7.199   5.500  -0.452  0.00  0.00     0.143 A 
ATOM      9  C10 <0> d           6.036   6.271  -0.440  0.00  0.00     0.054 A 
ATOM     10  C9  <0> d           4.823   5.615  -0.329  0.00  0.00     0.043 A 
BRANCH   8  11
ATOM     11  N4  <0> d           8.437   6.113  -0.562  0.00  0.00    -0.383 N 
ATOM     12  H7  <0> d           8.495   7.079  -0.630  0.00  0.00     0.157 HD
ATOM     13  H8  <0> d           9.245   5.576  -0.570  0.00  0.00     0.157 HD
ENDBRANCH   8  11
ENDBRANCH   2   5
BRANCH   1  14
ATOM     14  C3  <0> d           2.381   1.410  -0.024  0.00  0.00     0.052 A 
ATOM     15  C2  <0> d           1.250   1.952  -0.619  0.00  0.00     0.032 A 
ATOM     16  C1  <0> d           0.065   1.243  -0.621  0.00  0.00     0.021 A 
ATOM     17  C6  <0> d           0.004  -0.007  -0.031  0.00  0.00     0.012 A 
ATOM     18  C5  <0> d           1.129  -0.551   0.563  0.00  0.00     0.040 A 
ATOM     19 Br1  <0> d          -1.621  -0.974  -0.035  0.00  0.00    -0.051 Br
ATOM     20  C4  <0> d           2.318   0.154   0.568  0.00  0.00     0.039 A 
ATOM     21 Br2  <0> d           3.856  -0.590   1.378  0.00  0.00    -0.049 Br
ENDBRANCH   1  14
TORSDOF 3
