REMARK  5 active torsions:
REMARK  status: ('A' for Active; 'I' for Inactive)
REMARK    1  A    between atoms: C8_10  and  C11_13 
REMARK    2  A    between atoms: C11_13  and  N4_28 
REMARK    3  A    between atoms: C12_14  and  C14_16 
REMARK    4  A    between atoms: C12_14  and  N4_28 
REMARK    5  A    between atoms: N3_19  and  C18_22 
ROOT
ATOM      1  N4  <0> d          -1.329  -4.067   1.359  0.00  0.00    -0.062 N 
ATOM      2  H26 <0> d          -1.681  -3.369   2.025  0.00  0.00     0.278 HD
ATOM      3  H27 <0> d          -0.344  -4.271   1.564  0.00  0.00     0.278 HD
ENDROOT
BRANCH   1   4
ATOM      4  C11 <0> d          -1.439  -3.531  -0.011  0.00  0.00     0.290 C 
BRANCH   4   5
ATOM      5  C8  <0> d          -0.622  -2.269  -0.115  0.00  0.00     0.042 A 
ATOM      6  N1  <0> d          -1.128  -0.999  -0.051  0.00  0.00    -0.357 N 
ATOM      7  C7  <0> d          -0.108  -0.082  -0.180  0.00  0.00     0.049 A 
ATOM      8  H1  <0> d          -2.064  -0.777   0.066  0.00  0.00     0.166 HD
ATOM      9  C2  <0> d          -0.065   1.308  -0.186  0.00  0.00    -0.034 A 
ATOM     10  C6  <0> d           1.087  -0.810  -0.330  0.00  0.00    -0.001 A 
ATOM     11  C1  <0> d          -1.335   2.104  -0.033  0.00  0.00     0.050 C 
ATOM     12  C3  <0> d           1.142   1.954  -0.338  0.00  0.00     0.009 A 
ATOM     13  C4  <0> d           2.318   1.232  -0.486  0.00  0.00     0.002 A 
ATOM     14  C5  <0> d           2.299  -0.134  -0.483  0.00  0.00     0.014 A 
ATOM     15  C9  <0> d           0.709  -2.224  -0.282  0.00  0.00    -0.025 A 
ATOM     16  C10 <0> d           1.638  -3.405  -0.398  0.00  0.00     0.051 C 
ENDBRANCH   4   5
ENDBRANCH   1   4
BRANCH   1  17
ATOM     17  C12 <0> d          -2.121  -5.305   1.489  0.00  0.00     0.218 C 
ATOM     18  C13 <0> d          -3.574  -4.951   1.811  0.00  0.00     0.045 C 
BRANCH  17  19
ATOM     19  C14 <0> d          -1.549  -6.143   2.604  0.00  0.00     0.015 A 
ATOM     20  C16 <0> d          -1.668  -7.484   2.733  0.00  0.00     0.042 A 
ATOM     21  N3  <0> d          -1.015  -7.849   3.860  0.00  0.00    -0.238 N 
ATOM     22  C17 <0> d          -2.395  -8.407   1.788  0.00  0.00     0.071 C 
ATOM     23  N2  <0> d          -0.486  -6.691   4.444  0.00  0.00    -0.179 NA
ATOM     24  C15 <0> d          -0.806  -5.670   3.691  0.00  0.00     0.150 A 
BRANCH  21  25
ATOM     25  C18 <0> d          -0.894  -9.154   4.358  0.00  0.00     0.058 A 
ATOM     26  C23 <0> d          -0.634 -10.207   3.492  0.00  0.00     0.031 A 
ATOM     27  C22 <0> d          -0.515 -11.492   3.986  0.00  0.00     0.002 A 
ATOM     28  C21 <0> d          -0.655 -11.729   5.341  0.00  0.00     0.000 A 
ATOM     29  C20 <0> d          -0.914 -10.681   6.206  0.00  0.00     0.002 A 
ATOM     30  C19 <0> d          -1.030  -9.394   5.718  0.00  0.00     0.031 A 
ENDBRANCH  21  25
ENDBRANCH  17  19
ENDBRANCH   1  17
TORSDOF 5
