REMARK  2 active torsions:
REMARK  status: ('A' for Active; 'I' for Inactive)
REMARK    1  A    between atoms: C3_3  and  N3_10 
REMARK    2  A    between atoms: C5_6  and  C6_7 
ROOT
ATOM      1  C1  <0> d          -0.017   1.398   0.010  0.00  0.00     0.020 A 
ATOM      2  C2  <0> d           1.189   2.070   0.002  0.00  0.00     0.053 A 
ATOM      3  C3  <0> d           2.374   1.341  -0.013  0.00  0.00     0.149 A 
ATOM      4  N1  <0> d           2.359   0.017  -0.020  0.00  0.00    -0.240 NA
ATOM      5  C4  <0> d           1.233  -0.664  -0.013  0.00  0.00     0.133 A 
ATOM      6  C5  <0> d           0.002  -0.004   0.002  0.00  0.00     0.019 A 
ENDROOT
BRANCH   3   7
ATOM      7  N3  <0> d           3.595   2.015  -0.022  0.00  0.00    -0.226 N 
ATOM      8  N4  <0> d           3.772   3.405  -0.017  0.00  0.00    -0.177 NA
ATOM      9  C9  <0> d           5.056   3.655  -0.026  0.00  0.00     0.160 A 
ATOM     10  C8  <0> d           5.744   2.436  -0.045  0.00  0.00     0.047 A 
ATOM     11  C7  <0> d           4.827   1.440  -0.042  0.00  0.00     0.141 A 
ATOM     12 Br1  <0> d           7.622   2.218  -0.069  0.00  0.00    -0.048 Br
ENDBRANCH   3   7
BRANCH   6  13
ATOM     13  C6  <0> d          -1.258  -0.770   0.010  0.00  0.00     0.106 C 
ATOM     14  S1  <0> d          -2.629  -0.172  -0.823  0.00  0.00    -0.060 SA
ATOM     15  N2  <0> d          -1.331  -1.940   0.674  0.00  0.00    -0.389 N 
ATOM     16  H4  <0> d          -0.554  -2.279   1.147  0.00  0.00     0.157 HD
ATOM     17  H5  <0> d          -2.160  -2.444   0.680  0.00  0.00     0.157 HD
ENDBRANCH   6  13
TORSDOF 2
