REMARK  1 active torsions:
REMARK  status: ('A' for Active; 'I' for Inactive)
REMARK    1  A    between atoms: C6_6  and  O5_23 
ROOT
ATOM      1  C1  <0> d          -2.691  -0.296  -0.952  0.00  0.00     0.037 C 
ATOM      2  C2  <0> d          -2.909   0.367   0.384  0.00  0.00    -0.013 C 
ATOM      3  C3  <0> d          -2.448   1.612   0.600  0.00  0.00     0.035 C 
ATOM      4  C4  <0> d          -1.056   1.991   0.272  0.00  0.00     0.023 C 
ATOM      5  C5  <0> d          -0.130   1.094  -0.012  0.00  0.00    -0.039 C 
ATOM      6  C6  <0> d           1.274   1.586  -0.279  0.00  0.00     0.165 C 
ATOM      7  C7  <0> d           1.570   2.727   0.659  0.00  0.00     0.298 C 
ATOM      8  O1  <0> d           2.693   3.168   0.720  0.00  0.00    -0.261 OA
ATOM      9  O2  <0> d           0.604   3.265   1.432  0.00  0.00    -0.315 OA
ATOM     10  C8  <0> d           1.045   4.329   2.307  0.00  0.00     0.215 C 
ATOM     11  C9  <0> d          -0.058   4.951   3.104  0.00  0.00    -0.025 C 
ATOM     12  C10 <0> d           0.024   5.165   4.404  0.00  0.00     0.008 C 
ATOM     13  C11 <0> d          -1.235   5.870   4.856  0.00  0.00     0.263 C 
ATOM     14  N1  <0> d          -1.794   6.479   3.608  0.00  0.00    -0.057 N 
ATOM     15  C12 <0> d          -1.391   5.444   2.606  0.00  0.00     0.248 C 
ATOM     16  C13 <0> d          -2.435   4.328   2.703  0.00  0.00     0.169 C 
ATOM     17  C14 <0> d          -3.636   4.929   3.457  0.00  0.00     0.062 C 
ATOM     18  C15 <0> d          -3.273   6.401   3.701  0.00  0.00     0.238 C 
ATOM     19  O3  <0> d          -2.849   3.886   1.403  0.00  0.00    -0.309 OA
ATOM     20  C16 <0> d          -3.308   2.664   1.174  0.00  0.00     0.293 C 
ATOM     21  O4  <0> d          -4.464   2.404   1.444  0.00  0.00    -0.259 OA
ATOM     22  C17 <0> d           2.271   0.450  -0.036  0.00  0.00     0.062 C 
ATOM     23  C18 <0> d          -0.442  -0.375  -0.043  0.00  0.00     0.047 C 
ATOM     24  H24 <0> d          -1.485   7.514   3.404  0.00  0.00     0.281 HD
ENDROOT
BRANCH   6  25
ATOM     25  O5  <0> d           1.376   2.037  -1.631  0.00  0.00    -0.375 OA
ATOM     26  H20 <0> d           2.331   2.432  -2.008  0.00  0.00     0.211 HD
ENDBRANCH   6  25
TORSDOF 1
