REMARK  9 active torsions:
REMARK  status: ('A' for Active; 'I' for Inactive)
REMARK    1  A    between atoms: C2_2  and  N1_3 
REMARK    2  A    between atoms: N1_3  and  C3_4 
REMARK    3  A    between atoms: N1_3  and  S1_6 
REMARK    4  A    between atoms: S1_6  and  N2_9 
REMARK    5  A    between atoms: C9_14  and  C11_16 
REMARK    6  A    between atoms: C9_14  and  N8_33 
REMARK    7  A    between atoms: C12_18  and  N7_29 
REMARK    8  A    between atoms: C13_20  and  N6_22 
REMARK    9  A    between atoms: N6_22  and  C14_23 
ROOT
ATOM      1  C11 <0> d           3.833   2.277   0.518  0.00  0.00     0.194 A 
ATOM      2  N3  <0> d           3.899   3.590   0.381  0.00  0.00    -0.044 NA
ATOM      3  C12 <0> d           2.784   4.316   0.363  0.00  0.00     0.737 A 
ATOM      4  N4  <0> d           1.603   3.720   0.485  0.00  0.00     0.130 NA
ATOM      5  C13 <0> d           1.540   2.400   0.623  0.00  0.00     0.744 A 
ATOM      6  N5  <0> d           2.660   1.681   0.645  0.00  0.00    -0.044 NA
ENDROOT
BRANCH   1   7
ATOM      7  C9  <0> d           5.098   1.459   0.538  0.00  0.00     0.256 C 
ATOM      8  C10 <0> d           5.799   1.635   1.886  0.00  0.00     0.049 C 
BRANCH   7   9
ATOM      9  N8  <0> d           5.995   1.938  -0.533  0.00  0.00    -0.057 N 
ATOM     10  C6  <0> d           7.235   1.132  -0.552  0.00  0.00     0.256 C 
ATOM     11  C5  <0> d           8.207   1.747  -1.565  0.00  0.00     0.164 C 
ATOM     12  N2  <0> d           7.525   1.849  -2.864  0.00  0.00    -0.291 N 
ATOM     13  C8  <0> d           6.205   2.495  -2.908  0.00  0.00     0.164 C 
ATOM     14  C7  <0> d           5.312   1.851  -1.842  0.00  0.00     0.256 C 
ATOM     15  H31 <0> d           6.239   2.919  -0.350  0.00  0.00     0.281 HD
BRANCH  12  16
ATOM     16  S1  <0> d           8.226   1.252  -4.240  0.00  0.00     0.319 S 
ATOM     17  O1  <0> d           9.044   0.162  -3.840  0.00  0.00    -0.182 OA
ATOM     18  O2  <0> d           7.185   1.111  -5.197  0.00  0.00    -0.182 OA
BRANCH  16  19
ATOM     19  N1  <0> d           9.245   2.422  -4.819  0.00  0.00    -0.295 N 
BRANCH  19  20
ATOM     20  C2  <0> d          10.613   2.522  -4.303  0.00  0.00     0.132 C 
ATOM     21  C1  <0> d          11.562   1.754  -5.224  0.00  0.00     0.027 C 
ENDBRANCH  19  20
BRANCH  19  22
ATOM     22  C3  <0> d           8.779   3.357  -5.846  0.00  0.00     0.132 C 
ATOM     23  C4  <0> d           8.246   4.625  -5.176  0.00  0.00     0.027 C 
ENDBRANCH  19  22
ENDBRANCH  16  19
ENDBRANCH  12  16
ENDBRANCH   7   9
ENDBRANCH   1   7
BRANCH   5  24
ATOM     24  N6  <0> d           0.315   1.775   0.749  0.00  0.00    -0.188 N 
ATOM     25  H23 <0> d           0.272   0.823   0.927  0.00  0.00     0.184 HD
BRANCH  24  26
ATOM     26  C14 <0> d          -0.865   2.515   0.615  0.00  0.00     0.049 A 
ATOM     27  C19 <0> d          -0.927   3.566  -0.290  0.00  0.00     0.030 A 
ATOM     28  C18 <0> d          -2.094   4.295  -0.420  0.00  0.00     0.002 A 
ATOM     29  C17 <0> d          -3.197   3.979   0.350  0.00  0.00     0.000 A 
ATOM     30  C16 <0> d          -3.138   2.933   1.253  0.00  0.00     0.002 A 
ATOM     31  C15 <0> d          -1.977   2.196   1.384  0.00  0.00     0.030 A 
ENDBRANCH  24  26
ENDBRANCH   5  24
BRANCH   3  32
ATOM     32  N7  <0> d           2.854   5.687   0.219  0.00  0.00    -0.230 N 
ATOM     33  H29 <0> d           2.041   6.215   0.206  0.00  0.00     0.174 HD
ATOM     34  H30 <0> d           3.716   6.122   0.130  0.00  0.00     0.174 HD
ENDBRANCH   3  32
TORSDOF 9
