REMARK  6 active torsions:
REMARK  status: ('A' for Active; 'I' for Inactive)
REMARK    1  A    between atoms: C7_7  and  N1_8 
REMARK       I    between atoms: N1_8  and  C8_9 
REMARK    2  A    between atoms: C8_9  and  C9_11 
REMARK    3  A    between atoms: C9_11  and  N2_13 
REMARK    4  A    between atoms: N2_13  and  C12_15 
REMARK    5  A    between atoms: C12_15  and  C13_16 
REMARK       I    between atoms: C13_16  and  N3_18 
REMARK    6  A    between atoms: N3_18  and  C14_19 
ROOT
ATOM      1  C14 <0> d          -0.120  -1.410  10.780  0.00  0.00     0.036 A 
ATOM      2  C15 <0> d           0.387  -0.964  11.995  0.00  0.00     0.029 A 
ATOM      3  C16 <0> d           0.433  -1.814  13.084  0.00  0.00     0.004 A 
ATOM      4  C17 <0> d          -0.023  -3.111  12.972  0.00  0.00     0.021 A 
ATOM      5  C18 <0> d          -0.534  -3.569  11.757  0.00  0.00     0.019 A 
ATOM      6  C19 <0> d          -0.586  -2.710  10.659  0.00  0.00     0.050 A 
ATOM      7  C20 <0> d          -1.009  -4.915  11.638  0.00  0.00    -0.078 C 
ATOM      8  C21 <0> d          -1.398  -6.018  11.540  0.00  0.00     0.018 C 
ENDROOT
BRANCH   1   9
ATOM      9  N3  <0> d          -0.166  -0.545   9.681  0.00  0.00    -0.326 N 
ATOM     10  C13 <0> d           0.043  -1.024   8.438  0.00  0.00     0.248 C 
ATOM     11  O2  <0> d           0.167  -2.217   8.261  0.00  0.00    -0.271 OA
ATOM     12  H17 <0> d          -0.348   0.398   9.813  0.00  0.00     0.169 HD
BRANCH  10  13
ATOM     13  C12 <0> d           0.122  -0.075   7.269  0.00  0.00     0.338 C 
BRANCH  13  14
ATOM     14  N2  <0> d           0.353  -0.838   6.035  0.00  0.00    -0.054 N 
ATOM     15  C11 <0> d           1.670  -1.486   6.100  0.00  0.00     0.271 C 
ATOM     16  H23 <0> d          -0.363  -1.541   5.935  0.00  0.00     0.281 HD
BRANCH  14  17
ATOM     17  C9  <0> d           0.311   0.072   4.883  0.00  0.00     0.275 C 
ATOM     18  C10 <0> d          -1.050   0.770   4.833  0.00  0.00     0.050 C 
BRANCH  17  19
ATOM     19  C8  <0> d           0.518  -0.715   3.614  0.00  0.00     0.253 C 
ATOM     20  N1  <0> d           0.990  -0.102   2.511  0.00  0.00    -0.325 N 
ATOM     21  H8  <0> d           1.257   0.829   2.550  0.00  0.00     0.169 HD
ATOM     22  O1  <0> d           0.259  -1.900   3.586  0.00  0.00    -0.271 OA
BRANCH  20  23
ATOM     23  C7  <0> d           1.096  -0.810   1.308  0.00  0.00     0.040 A 
ATOM     24  C2  <0> d           0.989  -0.142   0.096  0.00  0.00    -0.034 A 
ATOM     25  C1  <0> d           0.761   1.347   0.073  0.00  0.00     0.050 C 
ATOM     26  C3  <0> d           1.099  -0.842  -1.090  0.00  0.00     0.032 A 
ATOM     27  C4  <0> d           1.309  -2.210  -1.070  0.00  0.00     0.034 A 
ATOM     28  C5  <0> d           1.410  -2.879   0.137  0.00  0.00     0.026 A 
ATOM     29 Cl1  <0> d           1.445  -3.087  -2.562  0.00  0.00    -0.084 Cl
ATOM     30  C6  <0> d           1.301  -2.184   1.325  0.00  0.00     0.032 A 
ENDBRANCH  20  23
ENDBRANCH  17  19
ENDBRANCH  14  17
ENDBRANCH  13  14
ENDBRANCH  10  13
ENDBRANCH   1   9
TORSDOF 6
