REMARK  5 active torsions:
REMARK  status: ('A' for Active; 'I' for Inactive)
REMARK    1  A    between atoms: C2_2  and  N1_3 
REMARK    2  A    between atoms: N2_6  and  C7_9 
REMARK    3  A    between atoms: C7_9  and  C16_18 
REMARK       I    between atoms: C16_18  and  N3_20 
REMARK    4  A    between atoms: N3_20  and  C17_21 
REMARK    5  A    between atoms: C17_21  and  C18_22 
ROOT
ATOM      1  C7  <0> d          -4.831  -2.650   1.179  0.00  0.00     0.246 C 
ATOM      2  C8  <0> d          -5.335  -2.500   2.630  0.00  0.00     0.091 C 
ATOM      3  C9  <0> d          -6.236  -3.694   2.862  0.00  0.00    -0.049 A 
ATOM      4  C10 <0> d          -7.193  -3.921   3.837  0.00  0.00     0.007 A 
ATOM      5  C11 <0> d          -7.904  -5.105   3.852  0.00  0.00     0.001 A 
ATOM      6  C12 <0> d          -7.660  -6.068   2.890  0.00  0.00     0.001 A 
ATOM      7  C13 <0> d          -6.706  -5.844   1.917  0.00  0.00     0.007 A 
ATOM      8  C14 <0> d          -5.992  -4.657   1.901  0.00  0.00    -0.049 A 
ATOM      9  C15 <0> d          -4.911  -4.176   0.957  0.00  0.00     0.091 C 
ENDROOT
BRANCH   1  10
ATOM     10  N2  <0> d          -3.446  -2.177   1.057  0.00  0.00     0.111 N 
ATOM     11  C4  <0> d          -2.561  -2.887   1.992  0.00  0.00     0.301 C 
ATOM     12  C3  <0> d          -1.122  -2.408   1.791  0.00  0.00     0.265 C 
ATOM     13  N1  <0> d          -1.050  -0.960   2.026  0.00  0.00    -0.068 N 
ATOM     14  C6  <0> d          -1.919  -0.263   1.069  0.00  0.00     0.265 C 
ATOM     15  H30 <0> d          -1.355  -0.756   2.966  0.00  0.00     0.280 HD
ATOM     16  C5  <0> d          -3.365  -0.724   1.263  0.00  0.00     0.301 C 
BRANCH  13  17
ATOM     17  C2  <0> d           0.335  -0.504   1.851  0.00  0.00     0.230 C 
ATOM     18  C1  <0> d           1.220  -1.135   2.928  0.00  0.00     0.034 C 
ENDBRANCH  13  17
ENDBRANCH   1  10
BRANCH   1  19
ATOM     19  C16 <0> d          -5.731  -1.921   0.216  0.00  0.00     0.258 C 
ATOM     20  O1  <0> d          -6.867  -1.645   0.538  0.00  0.00    -0.271 OA
ATOM     21  N3  <0> d          -5.274  -1.575  -1.004  0.00  0.00    -0.353 N 
ATOM     22  H22 <0> d          -4.391  -1.859  -1.289  0.00  0.00     0.162 HD
BRANCH  21  23
ATOM     23  C17 <0> d          -6.110  -0.771  -1.898  0.00  0.00     0.183 C 
BRANCH  23  24
ATOM     24  C18 <0> d          -5.372  -0.524  -3.189  0.00  0.00     0.069 A 
ATOM     25  N5  <0> d          -4.523   0.484  -3.283  0.00  0.00    -0.260 NA
ATOM     26  C21 <0> d          -3.872   0.697  -4.413  0.00  0.00     0.143 A 
ATOM     27  C20 <0> d          -4.088  -0.129  -5.502  0.00  0.00     0.048 A 
ATOM     28  N4  <0> d          -4.941  -1.135  -5.410  0.00  0.00    -0.262 NA
ATOM     29  C22 <0> d          -3.350   0.117  -6.792  0.00  0.00     0.072 C 
ATOM     30  C19 <0> d          -5.588  -1.351  -4.278  0.00  0.00     0.145 A 
ENDBRANCH  23  24
ENDBRANCH  21  23
ENDBRANCH   1  19
TORSDOF 5
