REMARK  4 active torsions:
REMARK  status: ('A' for Active; 'I' for Inactive)
REMARK    1  A    between atoms: C4_5  and  C6_7 
REMARK    2  A    between atoms: C4_5  and  N3_9 
REMARK    3  A    between atoms: C6_7  and  N2_8 
REMARK    4  A    between atoms: C9_12  and  N4_14 
ROOT
ATOM      1  N3  <0> d           1.065  -2.897   0.698  0.00  0.00     0.103 N 
ATOM      2  C7  <0> d           0.493  -4.268   0.694  0.00  0.00     0.275 C 
ATOM      3  C8  <0> d           1.715  -5.199   0.538  0.00  0.00     0.065 C 
ATOM      4  C9  <0> d           2.912  -4.381   1.066  0.00  0.00     0.218 C 
ATOM      5  C10 <0> d           2.312  -3.025   1.496  0.00  0.00     0.306 C 
ENDROOT
BRANCH   1   6
ATOM      6  C4  <0> d           0.138  -1.942   1.320  0.00  0.00     0.213 C 
ATOM      7  C3  <0> d          -0.205  -2.387   2.757  0.00  0.00     0.075 C 
ATOM      8  C2  <0> d          -1.733  -2.614   2.753  0.00  0.00     0.274 C 
ATOM      9  N1  <0> d          -2.067  -2.883   1.331  0.00  0.00     0.086 N 
ATOM     10  C1  <0> d          -3.491  -2.632   1.068  0.00  0.00     0.310 C 
ATOM     11  C5  <0> d          -1.211  -1.938   0.569  0.00  0.00     0.315 C 
BRANCH   6  12
ATOM     12  C6  <0> d           0.746  -0.538   1.330  0.00  0.00     0.310 C 
BRANCH  12  13
ATOM     13  N2  <0> d           1.082  -0.141  -0.044  0.00  0.00     0.080 N 
ATOM     14  H13 <0> d           1.514   0.770  -0.061  0.00  0.00     0.312 HD
ATOM     15  H28 <0> d           1.672  -0.830  -0.486  0.00  0.00     0.312 HD
ENDBRANCH  12  13
ENDBRANCH   6  12
ENDBRANCH   1   6
BRANCH   4  16
ATOM     16  N4  <0> d           3.525  -5.058   2.216  0.00  0.00    -0.065 N 
ATOM     17  C14 <0> d           4.650  -4.253   2.741  0.00  0.00     0.235 C 
ATOM     18  C13 <0> d           5.729  -5.243   3.217  0.00  0.00     0.029 C 
ATOM     19  C12 <0> d           5.160  -6.645   2.901  0.00  0.00     0.029 C 
ATOM     20  C11 <0> d           4.116  -6.353   1.793  0.00  0.00     0.235 C 
ATOM     21  H29 <0> d           2.837  -5.207   2.939  0.00  0.00     0.280 HD
ENDBRANCH   4  16
TORSDOF 4
