REMARK  5 active torsions:
REMARK  status: ('A' for Active; 'I' for Inactive)
REMARK    1  A    between atoms: C12_13  and  O5_26 
REMARK    2  A    between atoms: C18_19  and  C19_20 
REMARK    3  A    between atoms: C18_19  and  O4_24 
REMARK    4  A    between atoms: C19_20  and  C20_22 
REMARK    5  A    between atoms: C20_22  and  O3_23 
ROOT
ATOM      1  C1  <0> d          -0.019   1.529   0.010  0.00  0.00     0.020 C 
ATOM      2  C2  <0> d           0.002  -0.004   0.002  0.00  0.00    -0.014 C 
ATOM      3  C3  <0> d           0.716  -0.404  -1.280  0.00  0.00     0.022 C 
ATOM      4  C4  <0> d           2.214  -0.099  -1.217  0.00  0.00     0.084 C 
ATOM      5  C5  <0> d           2.791  -0.820  -0.015  0.00  0.00     0.149 C 
ATOM      6  O1  <0> d           3.866  -1.379  -0.078  0.00  0.00    -0.293 OA
ATOM      7  C6  <0> d           2.008  -0.819   1.223  0.00  0.00     0.053 C 
ATOM      8  C7  <0> d           0.734  -0.422   1.231  0.00  0.00    -0.068 C 
ATOM      9  C8  <0> d           0.019  -0.370   2.567  0.00  0.00     0.035 C 
ATOM     10  C9  <0> d          -1.313  -1.089   2.435  0.00  0.00     0.010 C 
ATOM     11  C10 <0> d          -2.166  -0.551   1.294  0.00  0.00    -0.002 C 
ATOM     12  C11 <0> d          -1.444  -0.425  -0.023  0.00  0.00     0.031 C 
ATOM     13  C12 <0> d          -1.725  -1.604  -0.948  0.00  0.00     0.124 C 
ATOM     14  C13 <0> d          -3.203  -1.612  -1.373  0.00  0.00     0.045 C 
ATOM     15  C14 <0> d          -4.080  -1.232  -0.209  0.00  0.00     0.001 C 
ATOM     16  C15 <0> d          -3.364  -1.481   1.131  0.00  0.00     0.002 C 
ATOM     17  C16 <0> d          -4.485  -1.230   2.156  0.00  0.00     0.009 C 
ATOM     18  C17 <0> d          -5.761  -1.754   1.451  0.00  0.00     0.047 C 
ATOM     19  C18 <0> d          -5.367  -2.048  -0.019  0.00  0.00     0.128 C 
ATOM     20  C21 <0> d          -4.496   0.244  -0.334  0.00  0.00     0.019 C 
ENDROOT
BRANCH  19  21
ATOM     21  C19 <0> d          -5.146  -3.526  -0.194  0.00  0.00     0.184 C 
ATOM     22  O2  <0> d          -4.077  -4.013   0.082  0.00  0.00    -0.292 OA
BRANCH  21  23
ATOM     23  C20 <0> d          -6.261  -4.398  -0.712  0.00  0.00     0.245 C 
BRANCH  23  24
ATOM     24  O3  <0> d          -5.810  -5.752  -0.788  0.00  0.00    -0.393 OA
ATOM     25  H25 <0> d          -6.477  -6.370  -1.115  0.00  0.00     0.209 HD
ENDBRANCH  23  24
ENDBRANCH  21  23
ENDBRANCH  19  21
BRANCH  19  26
ATOM     26  O4  <0> d          -6.385  -1.583  -0.902  0.00  0.00    -0.381 OA
ATOM     27  H26 <0> d          -7.221  -2.063  -0.826  0.00  0.00     0.211 HD
ENDBRANCH  19  26
BRANCH  13  28
ATOM     28  O5  <0> d          -1.392  -2.837  -0.315  0.00  0.00    -0.395 OA
ATOM     29  H30 <0> d          -1.553  -3.617  -0.863  0.00  0.00     0.210 HD
ENDBRANCH  13  28
TORSDOF 5
