REMARK  5 active torsions:
REMARK  status: ('A' for Active; 'I' for Inactive)
REMARK    1  A    between atoms: C3_3  and  C5_6 
REMARK    2  A    between atoms: C5_6  and  C6_7 
REMARK    3  A    between atoms: C6_7  and  N1_8 
REMARK       I    between atoms: N1_8  and  C7_9 
REMARK    4  A    between atoms: C7_9  and  C8_11 
REMARK       I    between atoms: N2_13  and  C16_21 
REMARK    5  A    between atoms: C16_21  and  C17_23 
ROOT
ATOM      1  C8  <0> d           7.419  -0.071   2.678  0.00  0.00     0.106 C 
ATOM      2  C9  <0> d           8.177  -1.214   1.967  0.00  0.00     0.141 C 
ATOM      3  N2  <0> d           9.386  -1.434   2.796  0.00  0.00    -0.346 N 
ATOM      4  C10 <0> d           8.906  -1.292   4.192  0.00  0.00     0.136 C 
ATOM      5  C11 <0> d           7.899  -0.125   4.138  0.00  0.00    -0.007 C 
ATOM      6  C12 <0> d           6.724  -0.400   5.071  0.00  0.00     0.039 C 
ATOM      7  C13 <0> d           7.216  -0.392   6.521  0.00  0.00     0.233 C 
ATOM      8  N3  <0> d           7.817   0.912   6.828  0.00  0.00    -0.075 N 
ATOM      9  C14 <0> d           9.003   1.127   5.990  0.00  0.00     0.233 C 
ATOM     10  C15 <0> d           8.586   1.183   4.517  0.00  0.00     0.039 C 
ATOM     11  C16 <0> d          10.638  -1.702   2.376  0.00  0.00     0.253 C 
ATOM     12  O3  <0> d          10.903  -1.660   1.191  0.00  0.00    -0.267 OA
ATOM     13  H18 <0> d           7.144   1.642   6.649  0.00  0.00     0.277 HD
ATOM     14  H27 <0> d           8.086   0.936   7.801  0.00  0.00     0.277 HD
ENDROOT
BRANCH   1  15
ATOM     15  C7  <0> d           5.932  -0.303   2.606  0.00  0.00     0.224 C 
ATOM     16  N1  <0> d           5.086   0.746   2.585  0.00  0.00    -0.360 N 
ATOM     17  H9  <0> d           5.434   1.651   2.617  0.00  0.00     0.162 HD
ATOM     18  O2  <0> d           5.496  -1.434   2.566  0.00  0.00    -0.273 OA
BRANCH  16  19
ATOM     19  C6  <0> d           3.640   0.520   2.515  0.00  0.00     0.129 C 
BRANCH  19  20
ATOM     20  C5  <0> d           2.913   1.867   2.505  0.00  0.00     0.084 C 
BRANCH  20  21
ATOM     21  C3  <0> d           1.426   1.634   2.433  0.00  0.00     0.054 A 
ATOM     22  C2  <0> d           0.600   1.494   3.486  0.00  0.00     0.034 A 
ATOM     23  C1  <0> d          -0.699   1.296   2.963  0.00  0.00     0.027 A 
ATOM     24  C4  <0> d          -0.589   1.327   1.623  0.00  0.00     0.142 A 
ATOM     25  O1  <0> d           0.701   1.532   1.308  0.00  0.00    -0.327 OA
ENDBRANCH  20  21
ENDBRANCH  19  20
ENDBRANCH  16  19
ENDBRANCH   1  15
BRANCH  11  26
ATOM     26  C17 <0> d          11.688  -2.046   3.357  0.00  0.00     0.032 A 
ATOM     27  C22 <0> d          13.036  -1.909   3.018  0.00  0.00     0.018 A 
ATOM     28  C21 <0> d          14.011  -2.227   3.940  0.00  0.00     0.020 A 
ATOM     29  C20 <0> d          13.657  -2.691   5.196  0.00  0.00     0.011 A 
ATOM     30  C19 <0> d          12.322  -2.834   5.536  0.00  0.00     0.020 A 
ATOM     31 Br1  <0> d          15.001  -3.131   6.451  0.00  0.00    -0.051 Br
ATOM     32  C18 <0> d          11.338  -2.515   4.625  0.00  0.00     0.018 A 
ENDBRANCH  11  26
TORSDOF 5
