REMARK  7 active torsions:
REMARK  status: ('A' for Active; 'I' for Inactive)
REMARK    1  A    between atoms: C2_2  and  N1_3 
REMARK    2  A    between atoms: N1_3  and  C3_4 
REMARK    3  A    between atoms: C3_4  and  C4_5 
REMARK    4  A    between atoms: C7_8  and  S1_11 
REMARK    5  A    between atoms: S1_11  and  N2_14 
REMARK    6  A    between atoms: N2_14  and  C10_15 
REMARK    7  A    between atoms: C10_15  and  C11_16 
ROOT
ATOM      1  C4  <0> d          -2.770  -2.503   0.015  0.00  0.00    -0.033 A 
ATOM      2  C5  <0> d          -3.409  -2.743   1.217  0.00  0.00     0.010 A 
ATOM      3  C6  <0> d          -4.706  -3.222   1.227  0.00  0.00     0.026 A 
ATOM      4  C7  <0> d          -5.364  -3.459   0.035  0.00  0.00     0.079 A 
ATOM      5  C8  <0> d          -4.725  -3.218  -1.167  0.00  0.00     0.026 A 
ATOM      6  C9  <0> d          -3.430  -2.736  -1.177  0.00  0.00     0.010 A 
ENDROOT
BRANCH   4   7
ATOM      7  S1  <0> d          -7.016  -4.071   0.047  0.00  0.00     0.259 S 
ATOM      8  O1  <0> d          -7.217  -4.726  -1.198  0.00  0.00    -0.201 OA
ATOM      9  O2  <0> d          -7.196  -4.730   1.293  0.00  0.00    -0.201 OA
BRANCH   7  10
ATOM     10  N2  <0> d          -8.024  -2.756   0.058  0.00  0.00    -0.311 N 
ATOM     11  H13 <0> d          -8.595  -2.589   0.824  0.00  0.00     0.172 HD
BRANCH  10  12
ATOM     12  C10 <0> d          -8.054  -1.847  -1.091  0.00  0.00     0.173 C 
BRANCH  12  13
ATOM     13  C11 <0> d          -9.278  -0.972  -1.007  0.00  0.00    -0.004 A 
ATOM     14  C13 <0> d          -9.357   0.230  -0.391  0.00  0.00     0.122 A 
ATOM     15  N4  <0> d         -10.617   0.689  -0.544  0.00  0.00    -0.285 N 
ATOM     16  N3  <0> d         -11.339  -0.267  -1.270  0.00  0.00    -0.185 NA
ATOM     17  C14 <0> d         -11.139   1.959  -0.035  0.00  0.00     0.179 C 
ATOM     18  C12 <0> d         -10.535  -1.262  -1.547  0.00  0.00     0.149 A 
ENDBRANCH  12  13
ENDBRANCH  10  12
ENDBRANCH   7  10
ENDBRANCH   4   7
BRANCH   1  19
ATOM     19  C3  <0> d          -1.356  -1.981   0.004  0.00  0.00     0.270 C 
BRANCH  19  20
ATOM     20  N1  <0> d          -1.376  -0.512   0.012  0.00  0.00    -0.072 N 
ATOM     21  H6  <0> d          -1.848  -0.187   0.843  0.00  0.00     0.277 HD
ATOM     22  H21 <0> d          -1.864  -0.178  -0.805  0.00  0.00     0.277 HD
BRANCH  20  23
ATOM     23  C2  <0> d           0.002  -0.004   0.002  0.00  0.00     0.228 C 
ATOM     24  C1  <0> d          -0.019   1.526   0.010  0.00  0.00     0.034 C 
ENDBRANCH  20  23
ENDBRANCH  19  20
ENDBRANCH   1  19
TORSDOF 7
