REMARK  3 active torsions:
REMARK  status: ('A' for Active; 'I' for Inactive)
REMARK       I    between atoms: C2_2  and  N1_4 
REMARK    1  A    between atoms: N1_4  and  C3_5 
REMARK    2  A    between atoms: C3_5  and  C4_6 
REMARK    3  A    between atoms: C4_6  and  N2_7 
ROOT
ATOM      1  N2  <0> d          -2.551  -4.153   0.004  0.00  0.00    -0.288 N 
ATOM      2  C5  <0> d          -2.548  -4.801  -1.174  0.00  0.00     0.263 A 
ATOM      3  O2  <0> d          -2.561  -4.178  -2.220  0.00  0.00    -0.267 OA
ATOM      4  C6  <0> d          -2.528  -6.280  -1.184  0.00  0.00     0.073 A 
ATOM      5  C7  <0> d          -2.522  -7.185  -2.334  0.00  0.00    -0.026 A 
ATOM      6  C8  <0> d          -2.503  -8.496  -2.023  0.00  0.00    -0.008 A 
ATOM      7  S1  <0> d          -2.491  -8.538  -0.254  0.00  0.00    -0.075 SA
ATOM      8  C9  <0> d          -2.513  -6.898   0.065  0.00  0.00     0.093 A 
ATOM      9  N3  <0> d          -2.518  -6.159   1.220  0.00  0.00    -0.326 N 
ATOM     10  C10 <0> d          -2.531  -4.813   1.173  0.00  0.00     0.181 A 
ATOM     11  S2  <0> d          -2.530  -3.925   2.637  0.00  0.00    -0.040 SA
ATOM     12  C11 <0> d          -2.494  -9.649  -2.979  0.00  0.00     0.047 C 
ATOM     13  C12 <0> d          -2.892  -9.125  -4.367  0.00  0.00     0.005 C 
ATOM     14  C13 <0> d          -2.075  -7.868  -4.676  0.00  0.00     0.005 C 
ATOM     15  C14 <0> d          -2.536  -6.714  -3.781  0.00  0.00     0.041 C 
ATOM     16  H17 <0> d          -2.507  -6.609   2.079  0.00  0.00     0.169 HD
ENDROOT
BRANCH   1  17
ATOM     17  C4  <0> d          -2.571  -2.688   0.012  0.00  0.00     0.154 C 
BRANCH  17  18
ATOM     18  C3  <0> d          -1.136  -2.159   0.001  0.00  0.00     0.143 C 
BRANCH  18  19
ATOM     19  N1  <0> d          -1.156  -0.694   0.009  0.00  0.00    -0.360 N 
ATOM     20  C2  <0> d           0.002  -0.004   0.002  0.00  0.00     0.213 C 
ATOM     21  C1  <0> d          -0.018   1.503   0.010  0.00  0.00     0.117 C 
ATOM     22  O1  <0> d           1.060  -0.596  -0.011  0.00  0.00    -0.274 OA
ATOM     23  H4  <0> d          -2.002  -0.220   0.020  0.00  0.00     0.162 HD
ENDBRANCH  18  19
ENDBRANCH  17  18
ENDBRANCH   1  17
TORSDOF 3
