REMARK  5 active torsions:
REMARK  status: ('A' for Active; 'I' for Inactive)
REMARK    1  A    between atoms: O1_2  and  C2_3 
REMARK    2  A    between atoms: C4_5  and  O6_28 
REMARK    3  A    between atoms: C5_6  and  C9_11 
REMARK    4  A    between atoms: C6_7  and  O2_9 
REMARK    5  A    between atoms: N2_18  and  C14_21 
ROOT
ATOM      1  C9  <0> d           1.944   4.739   0.433  0.00  0.00     0.040 C 
ATOM      2  C10 <0> d           2.382   5.280  -0.767  0.00  0.00     0.102 A 
ATOM      3  C11 <0> d           1.581   5.167  -1.999  0.00  0.00     0.265 A 
ATOM      4  O3  <0> d           0.508   4.593  -1.996  0.00  0.00    -0.267 OA
ATOM      5  N1  <0> d           2.069   5.718  -3.129  0.00  0.00    -0.274 N 
ATOM      6  C12 <0> d           3.249   6.353  -3.146  0.00  0.00     0.337 A 
ATOM      7  O4  <0> d           3.632   6.828  -4.197  0.00  0.00    -0.246 OA
ATOM      8  N2  <0> d           4.029   6.494  -2.065  0.00  0.00    -0.229 N 
ATOM      9  C13 <0> d           3.666   5.998  -0.864  0.00  0.00     0.272 A 
ATOM     10  O5  <0> d           4.380   6.136   0.111  0.00  0.00    -0.266 OA
ATOM     11  H10 <0> d           1.554   5.652  -3.949  0.00  0.00     0.173 HD
ENDROOT
BRANCH   1  12
ATOM     12  C5  <0> d           0.784   3.937   0.464  0.00  0.00     0.032 A 
ATOM     13  C4  <0> d          -0.340   4.341   1.216  0.00  0.00     0.083 A 
ATOM     14  C3  <0> d          -1.470   3.548   1.239  0.00  0.00     0.074 A 
ATOM     15  C2  <0> d          -1.501   2.352   0.530  0.00  0.00     0.073 A 
ATOM     16  C7  <0> d          -0.402   1.947  -0.218  0.00  0.00     0.074 A 
ATOM     17  C6  <0> d           0.739   2.724  -0.256  0.00  0.00     0.083 A 
BRANCH  13  18
ATOM     18  O6  <0> d          -0.310   5.504   1.912  0.00  0.00    -0.355 OA
ATOM     19  C20 <0> d          -1.485   5.849   2.649  0.00  0.00     0.210 C 
ENDBRANCH  13  18
BRANCH  15  20
ATOM     20  O1  <0> d          -2.615   1.578   0.564  0.00  0.00    -0.356 OA
ATOM     21  C1  <0> d          -2.583   0.362  -0.185  0.00  0.00     0.210 C 
ENDBRANCH  15  20
BRANCH  17  22
ATOM     22  O2  <0> d           1.812   2.324  -0.982  0.00  0.00    -0.355 OA
ATOM     23  C8  <0> d           1.693   1.085  -1.685  0.00  0.00     0.210 C 
ENDBRANCH  17  22
ENDBRANCH   1  12
BRANCH   8  24
ATOM     24  C14 <0> d           5.248   7.177  -2.183  0.00  0.00     0.047 A 
ATOM     25  C19 <0> d           5.300   8.548  -1.972  0.00  0.00     0.033 A 
ATOM     26  C18 <0> d           6.501   9.219  -2.089  0.00  0.00     0.044 A 
ATOM     27  C17 <0> d           7.654   8.525  -2.417  0.00  0.00     0.116 A 
ATOM     28  C16 <0> d           7.604   7.157  -2.629  0.00  0.00     0.044 A 
ATOM     29  F1  <0> d           8.828   9.183  -2.532  0.00  0.00    -0.206 F 
ATOM     30  C15 <0> d           6.405   6.482  -2.507  0.00  0.00     0.033 A 
ENDBRANCH   8  24
TORSDOF 5
