REMARK  2 active torsions:
REMARK  status: ('A' for Active; 'I' for Inactive)
REMARK    1  A    between atoms: C9_9  and  N2_25 
REMARK    2  A    between atoms: N1_10  and  C14_17 
ROOT
ATOM      1  C1  <0> d           3.378   2.042  -2.329  0.00  0.00     0.001 A 
ATOM      2  C2  <0> d           2.428   3.043  -2.314  0.00  0.00     0.002 A 
ATOM      3  C3  <0> d           1.206   2.885  -1.680  0.00  0.00     0.030 A 
ATOM      4  C4  <0> d           0.967   1.663  -1.050  0.00  0.00     0.043 A 
ATOM      5  C5  <0> d           1.939   0.656  -1.072  0.00  0.00    -0.003 A 
ATOM      6  C6  <0> d           3.152   0.821  -1.705  0.00  0.00     0.011 A 
ATOM      7  C7  <0> d           1.363  -0.499  -0.315  0.00  0.00     0.146 A 
ATOM      8  C8  <0> d           1.240  -1.713  -1.190  0.00  0.00     0.094 C 
ATOM      9  C9  <0> d           2.004  -2.821  -1.018  0.00  0.00     0.125 C 
ATOM     10  N1  <0> d           2.949  -2.912  -0.011  0.00  0.00    -0.298 N 
ATOM     11  C10 <0> d           2.927  -1.968   0.979  0.00  0.00     0.057 A 
ATOM     12  C11 <0> d           2.200  -0.823   0.893  0.00  0.00     0.070 A 
ATOM     13  C12 <0> d           2.378  -0.075   2.066  0.00  0.00     0.293 A 
ATOM     14  O1  <0> d           1.847   0.998   2.287  0.00  0.00    -0.259 OA
ATOM     15  O2  <0> d           3.216  -0.702   2.917  0.00  0.00    -0.311 OA
ATOM     16  C13 <0> d           3.626  -1.935   2.306  0.00  0.00     0.237 A 
ATOM     17  C20 <0> d           0.277  -1.702  -2.249  0.00  0.00     0.101 C 
ATOM     18  N3  <0> d          -0.487  -1.693  -3.090  0.00  0.00    -0.191 NA
ATOM     19  C21 <0> d          -0.007  -0.020   0.114  0.00  0.00     0.246 A 
ATOM     20  O3  <0> d          -0.821  -0.648   0.757  0.00  0.00    -0.271 OA
ATOM     21  N4  <0> d          -0.150   1.238  -0.353  0.00  0.00    -0.325 N 
ATOM     22  H12 <0> d          -1.014   1.909  -0.237  0.00  0.00     0.169 HD
ENDROOT
BRANCH   9  23
ATOM     23  N2  <0> d           1.835  -3.885  -1.869  0.00  0.00    -0.384 N 
ATOM     24  H10 <0> d           2.445  -4.792  -1.745  0.00  0.00     0.157 HD
ATOM     25  H11 <0> d           1.089  -3.831  -2.676  0.00  0.00     0.157 HD
ENDBRANCH   9  23
BRANCH  10  26
ATOM     26  C14 <0> d           3.900  -3.939  -0.006  0.00  0.00     0.044 A 
ATOM     27  C19 <0> d           5.085  -3.793  -0.716  0.00  0.00     0.054 A 
ATOM     28  C18 <0> d           6.022  -4.809  -0.709  0.00  0.00     0.037 A 
ATOM     29  C17 <0> d           5.781  -5.970   0.004  0.00  0.00     0.048 A 
ATOM     30 Cl1  <0> d           7.503  -4.628  -1.596  0.00  0.00    -0.084 Cl
ATOM     31  C16 <0> d           4.601  -6.118   0.712  0.00  0.00     0.037 A 
ATOM     32  C15 <0> d           3.663  -5.103   0.713  0.00  0.00     0.054 A 
ATOM     33 Cl2  <0> d           4.302  -7.577   1.605  0.00  0.00    -0.084 Cl
ENDBRANCH  10  26
TORSDOF 2
