REMARK  2 active torsions:
REMARK  status: ('A' for Active; 'I' for Inactive)
REMARK    1  A    between atoms: C3_3  and  C5_6 
REMARK    2  A    between atoms: C6_10  and  C7_12 
ROOT
ATOM      1  C5  <0> d           3.734   1.822  -0.024  0.00  0.00     0.163 A 
ATOM      2  N1  <0> d           4.122   3.126  -0.015  0.00  0.00    -0.258 N 
ATOM      3  H1  <0> d           3.546   3.906  -0.001  0.00  0.00     0.191 HD
ATOM      4  N2  <0> d           5.527   3.115  -0.032  0.00  0.00    -0.156 NA
ATOM      5  C6  <0> d           5.901   1.863  -0.049  0.00  0.00     0.166 A 
ATOM      6  N3  <0> d           4.826   1.080  -0.039  0.00  0.00    -0.210 NA
ENDROOT
BRANCH   5   7
ATOM      7  C7  <0> d           7.329   1.381  -0.071  0.00  0.00     0.150 A 
ATOM      8  C8  <0> d           7.944   1.568  -1.443  0.00  0.00    -0.001 A 
ATOM      9  C9  <0> d           8.972   2.361  -1.533  0.00  0.00     0.036 A 
ATOM     10  C10 <0> d           9.494   3.035  -0.328  0.00  0.00     0.085 A 
ATOM     11  N4  <0> d          10.505   3.855  -0.230  0.00  0.00    -0.293 NA
ATOM     12  S2  <0> d           8.404   2.456   0.964  0.00  0.00    -0.094 SA
ATOM     13  H7  <0> d          11.019   4.088  -1.019  0.00  0.00     0.187 HD
ENDBRANCH   5   7
BRANCH   1  14
ATOM     14  C3  <0> d           2.347   1.329  -0.013  0.00  0.00     0.052 A 
ATOM     15  C2  <0> d           1.175   2.042   0.002  0.00  0.00     0.023 A 
ATOM     16  C1  <0> d          -0.016   1.355   0.009  0.00  0.00     0.009 A 
ATOM     17  C4  <0> d           0.002  -0.004   0.002  0.00  0.00     0.050 A 
ATOM     18  S1  <0> d           1.752  -0.355  -0.017  0.00  0.00    -0.098 SA
ENDBRANCH   1  14
TORSDOF 2
