REMARK  6 active torsions:
REMARK  status: ('A' for Active; 'I' for Inactive)
REMARK    1  A    between atoms: C2_2  and  C3_3 
REMARK    2  A    between atoms: C2_2  and  N3_16 
REMARK       I    between atoms: C3_3  and  N1_5 
REMARK    3  A    between atoms: N1_5  and  C4_6 
REMARK    4  A    between atoms: C4_6  and  C5_7 
REMARK    5  A    between atoms: C5_7  and  N2_10 
REMARK    6  A    between atoms: N3_16  and  S1_17 
ROOT
ATOM      1  C3  <0> d          -4.099  -0.534  -1.387  0.00  0.00     0.240 C 
ATOM      2  O1  <0> d          -3.120  -1.223  -1.580  0.00  0.00    -0.271 OA
ATOM      3  N1  <0> d          -4.471  -0.228  -0.128  0.00  0.00    -0.357 N 
ATOM      4  H5  <0> d          -5.254   0.323   0.026  0.00  0.00     0.162 HD
ENDROOT
BRANCH   3   5
ATOM      5  C4  <0> d          -3.692  -0.728   1.008  0.00  0.00     0.161 C 
BRANCH   5   6
ATOM      6  C5  <0> d          -4.245  -0.135   2.305  0.00  0.00     0.136 C 
ATOM      7  C6  <0> d          -5.665  -0.654   2.539  0.00  0.00     0.048 C 
ATOM      8  C7  <0> d          -3.351  -0.549   3.476  0.00  0.00     0.048 C 
BRANCH   6   9
ATOM      9  N2  <0> d          -4.270   1.330   2.203  0.00  0.00    -0.061 N 
ATOM     10  C12 <0> d          -4.768   1.899   3.461  0.00  0.00     0.236 C 
ATOM     11  C11 <0> d          -4.873   3.420   3.331  0.00  0.00     0.028 C 
ATOM     12  C10 <0> d          -3.489   3.997   3.021  0.00  0.00     0.003 C 
ATOM     13  C9  <0> d          -2.947   3.342   1.746  0.00  0.00     0.028 C 
ATOM     14  C8  <0> d          -2.914   1.824   1.935  0.00  0.00     0.236 C 
ATOM     15  H28 <0> d          -4.880   1.603   1.447  0.00  0.00     0.280 HD
ENDBRANCH   6   9
ENDBRANCH   5   6
ENDBRANCH   3   5
BRANCH   1  16
ATOM     16  C2  <0> d          -4.901  -0.019  -2.555  0.00  0.00     0.180 C 
ATOM     17  C1  <0> d          -6.336  -0.539  -2.457  0.00  0.00     0.043 C 
BRANCH  16  18
ATOM     18  N3  <0> d          -4.296  -0.487  -3.805  0.00  0.00    -0.306 N 
ATOM     19  H24 <0> d          -3.883  -1.363  -3.846  0.00  0.00     0.173 HD
BRANCH  18  20
ATOM     20  S1  <0> d          -4.319   0.482  -5.149  0.00  0.00     0.223 S 
ATOM     21  O2  <0> d          -3.680  -0.286  -6.160  0.00  0.00    -0.206 OA
ATOM     22  O3  <0> d          -5.676   0.877  -5.288  0.00  0.00    -0.206 OA
ATOM     23  C13 <0> d          -3.293   1.912  -4.709  0.00  0.00     0.185 C 
ENDBRANCH  18  20
ENDBRANCH  16  18
ENDBRANCH   1  16
TORSDOF 6
