REMARK  4 active torsions:
REMARK  status: ('A' for Active; 'I' for Inactive)
REMARK    1  A    between atoms: C5_5  and  N1_8 
REMARK    2  A    between atoms: C8_10  and  C9_13 
REMARK    3  A    between atoms: C9_13  and  C10_14 
REMARK    4  A    between atoms: C10_14  and  O1_15 
ROOT
ATOM      1  C1  <0> d          -0.017   1.379   0.010  0.00  0.00     0.087 A 
ATOM      2  C2  <0> d           1.173   2.088   0.002  0.00  0.00     0.120 A 
ATOM      3  C3  <0> d           2.383   1.415  -0.014  0.00  0.00     0.064 A 
ATOM      4  C4  <0> d           2.407   0.033  -0.021  0.00  0.00     0.045 A 
ATOM      5  C5  <0> d           1.216  -0.681  -0.013  0.00  0.00     0.115 A 
ATOM      6  C6  <0> d           0.002  -0.004   0.002  0.00  0.00     0.149 A 
ATOM      7  F1  <0> d          -1.158  -0.696   0.010  0.00  0.00    -0.203 F 
ATOM      8 Br1  <0> d           4.060  -0.884  -0.043  0.00  0.00    -0.048 Br
ATOM      9  F2  <0> d           1.152   3.439   0.009  0.00  0.00    -0.206 F 
ENDROOT
BRANCH   5  10
ATOM     10  N1  <0> d           1.238  -2.085  -0.021  0.00  0.00    -0.220 N 
ATOM     11  N3  <0> d           2.292  -2.824  -0.037  0.00  0.00    -0.061 NA
ATOM     12  N2  <0> d           1.964  -4.067  -0.037  0.00  0.00    -0.135 NA
ATOM     13  C8  <0> d           0.630  -4.167  -0.031  0.00  0.00     0.078 A 
ATOM     14  C7  <0> d           0.149  -2.901  -0.021  0.00  0.00     0.149 A 
BRANCH  13  15
ATOM     15  C9  <0> d          -0.179  -5.438  -0.034  0.00  0.00     0.088 C 
BRANCH  15  16
ATOM     16  C10 <0> d           0.238  -6.305  -1.223  0.00  0.00     0.170 C 
BRANCH  16  17
ATOM     17  O1  <0> d          -0.529  -7.511  -1.226  0.00  0.00    -0.400 OA
ATOM     18  H8  <0> d          -0.317  -8.110  -1.954  0.00  0.00     0.209 HD
ENDBRANCH  16  17
ENDBRANCH  15  16
ENDBRANCH  13  15
ENDBRANCH   5  10
TORSDOF 4
