REMARK  7 active torsions:
REMARK  status: ('A' for Active; 'I' for Inactive)
REMARK    1  A    between atoms: C2_2  and  C3_3 
REMARK    2  A    between atoms: C2_2  and  N6_37 
REMARK    3  A    between atoms: C4_6  and  S1_15 
REMARK    4  A    between atoms: N3_7  and  C5_8 
REMARK    5  A    between atoms: S1_15  and  C11_16 
REMARK    6  A    between atoms: C11_16  and  C12_17 
REMARK    7  A    between atoms: C11_16  and  C18_23 
REMARK       I    between atoms: C18_23  and  N4_25 
REMARK       I    between atoms: N4_25  and  C19_26 
REMARK       I    between atoms: C19_26  and  N5_28 
ROOT
ATOM      1  C3  <0> d           3.943   0.916   4.607  0.00  0.00     0.166 A 
ATOM      2  N1  <0> d           3.878   0.056   3.630  0.00  0.00    -0.131 NA
ATOM      3  N2  <0> d           3.809   0.670   2.503  0.00  0.00    -0.122 NA
ATOM      4  C4  <0> d           3.835   1.968   2.699  0.00  0.00     0.197 A 
ATOM      5  N3  <0> d           3.918   2.167   4.050  0.00  0.00    -0.274 N 
ENDROOT
BRANCH   4   6
ATOM      6  S1  <0> d           3.768   3.217   1.458  0.00  0.00    -0.070 SA
BRANCH   6   7
ATOM      7  C11 <0> d           3.672   2.182  -0.024  0.00  0.00     0.180 C 
BRANCH   7   8
ATOM      8  C12 <0> d           2.377   1.411  -0.015  0.00  0.00    -0.035 A 
ATOM      9  C17 <0> d           2.396   0.029  -0.022  0.00  0.00     0.009 A 
ATOM     10  C16 <0> d           1.208  -0.679  -0.013  0.00  0.00     0.001 A 
ATOM     11  C15 <0> d           0.002  -0.004   0.002  0.00  0.00     0.000 A 
ATOM     12  C14 <0> d          -0.017   1.378   0.010  0.00  0.00     0.001 A 
ATOM     13  C13 <0> d           1.171   2.086   0.002  0.00  0.00     0.009 A 
ENDBRANCH   7   8
BRANCH   7  14
ATOM     14  C18 <0> d           3.728   3.055  -1.251  0.00  0.00     0.244 C 
ATOM     15  O1  <0> d           3.461   4.235  -1.168  0.00  0.00    -0.271 OA
ATOM     16  N4  <0> d           4.074   2.525  -2.441  0.00  0.00    -0.278 N 
ATOM     17  C19 <0> d           4.124   3.305  -3.538  0.00  0.00     0.320 C 
ATOM     18  H15 <0> d           4.288   1.581  -2.507  0.00  0.00     0.173 HD
ATOM     19  O2  <0> d           3.857   4.488  -3.455  0.00  0.00    -0.247 OA
ATOM     20  N5  <0> d           4.471   2.775  -4.728  0.00  0.00    -0.352 N 
ATOM     21  H16 <0> d           4.684   1.831  -4.794  0.00  0.00     0.160 HD
ATOM     22  H17 <0> d           4.507   3.337  -5.517  0.00  0.00     0.160 HD
ENDBRANCH   7  14
ENDBRANCH   6   7
ENDBRANCH   4   6
BRANCH   5  23
ATOM     23  C5  <0> d           3.967   3.397   4.724  0.00  0.00     0.043 A 
ATOM     24  C10 <0> d           2.879   4.258   4.680  0.00  0.00     0.033 A 
ATOM     25  C9  <0> d           2.929   5.467   5.344  0.00  0.00     0.044 A 
ATOM     26  C8  <0> d           4.063   5.822   6.054  0.00  0.00     0.116 A 
ATOM     27  C7  <0> d           5.150   4.965   6.100  0.00  0.00     0.044 A 
ATOM     28  F1  <0> d           4.111   7.006   6.704  0.00  0.00    -0.206 F 
ATOM     29  C6  <0> d           5.101   3.752   5.441  0.00  0.00     0.033 A 
ENDBRANCH   5  23
BRANCH   1  30
ATOM     30  C2  <0> d           4.030   0.595   6.076  0.00  0.00     0.255 C 
ATOM     31  C1  <0> d           5.443   0.112   6.410  0.00  0.00     0.049 C 
BRANCH  30  32
ATOM     32  N6  <0> d           3.070  -0.484   6.388  0.00  0.00    -0.060 N 
ATOM     33  C20 <0> d           1.703  -0.071   6.005  0.00  0.00     0.236 C 
ATOM     34  C21 <0> d           0.748  -1.245   6.227  0.00  0.00     0.028 C 
ATOM     35  C22 <0> d           0.770  -1.643   7.705  0.00  0.00     0.003 C 
ATOM     36  C23 <0> d           2.204  -1.997   8.109  0.00  0.00     0.028 C 
ATOM     37  C24 <0> d           3.118  -0.801   7.832  0.00  0.00     0.236 C 
ATOM     38  H28 <0> d           3.326  -1.323   5.855  0.00  0.00     0.280 HD
ENDBRANCH  30  32
ENDBRANCH   1  30
TORSDOF 7
