REMARK  5 active torsions:
REMARK  status: ('A' for Active; 'I' for Inactive)
REMARK       I    between atoms: N1_5  and  C9_11 
REMARK    1  A    between atoms: C9_11  and  C10_13 
REMARK    2  A    between atoms: C10_13  and  C11_14 
REMARK    3  A    between atoms: C11_14  and  C12_15 
REMARK    4  A    between atoms: C12_15  and  C13_16 
REMARK    5  A    between atoms: C13_16  and  C14_17 
ROOT
ATOM      1  C10 <0> d           5.371  -2.767  -0.538  0.00  0.00     0.103 C 
ENDROOT
BRANCH   1   2
ATOM      2  C9  <0> d           4.889  -1.390  -0.162  0.00  0.00     0.219 C 
ATOM      3  N1  <0> d           4.027  -0.734  -0.964  0.00  0.00    -0.350 N 
ATOM      4  C4  <0> d           3.566   0.622  -0.574  0.00  0.00     0.159 C 
ATOM      5  C5  <0> d           3.579  -1.370  -2.180  0.00  0.00     0.127 C 
ATOM      6  C3  <0> d           2.076   0.773  -0.875  0.00  0.00     0.206 C 
ATOM      7  C2  <0> d           1.490   1.911  -0.002  0.00  0.00     0.036 C 
ATOM      8  N2  <0> d           1.312  -0.405  -0.548  0.00  0.00    -0.065 N 
ATOM      9  C1  <0> d          -0.019   1.542   0.011  0.00  0.00     0.030 C 
ATOM     10  C8  <0> d           0.002  -0.004   0.002  0.00  0.00     0.235 C 
ATOM     11  C7  <0> d           1.136  -1.272  -1.705  0.00  0.00     0.237 C 
ATOM     12  H31 <0> d           1.806  -0.918   0.167  0.00  0.00     0.280 HD
ATOM     13  C6  <0> d           2.293  -2.179  -1.917  0.00  0.00     0.048 C 
ATOM     14  O1  <0> d           5.277  -0.871   0.864  0.00  0.00    -0.273 OA
ENDBRANCH   1   2
BRANCH   1  15
ATOM     15  C11 <0> d           6.333  -3.282   0.534  0.00  0.00     0.009 C 
BRANCH  15  16
ATOM     16  C12 <0> d           6.822  -4.680   0.152  0.00  0.00     0.002 C 
BRANCH  16  17
ATOM     17  C13 <0> d           7.784  -5.195   1.225  0.00  0.00     0.017 C 
BRANCH  17  18
ATOM     18  C14 <0> d           8.273  -6.593   0.843  0.00  0.00     0.072 C 
ATOM     19  S1  <0> d           6.912  -7.832   0.979  0.00  0.00    -0.160 SA
ATOM     20  C17 <0> d           7.943  -9.283   1.425  0.00  0.00     0.101 C 
ATOM     21  C16 <0> d           9.102  -8.619   2.199  0.00  0.00     0.119 A 
ATOM     22  C15 <0> d           9.281  -7.131   1.881  0.00  0.00     0.123 A 
ATOM     23  N3  <0> d           8.786  -8.641   3.636  0.00  0.00    -0.336 N 
ATOM     24  N4  <0> d           9.042  -6.467   3.172  0.00  0.00    -0.335 N 
ATOM     25  C18 <0> d           8.777  -7.384   4.101  0.00  0.00     0.316 A 
ATOM     26  H30 <0> d           9.074  -5.510   3.328  0.00  0.00     0.164 HD
ATOM     27  O2  <0> d           8.543  -7.108   5.261  0.00  0.00    -0.247 OA
ATOM     28  H29 <0> d           8.612  -9.438   4.162  0.00  0.00     0.164 HD
ENDBRANCH  17  18
ENDBRANCH  16  17
ENDBRANCH  15  16
ENDBRANCH   1  15
TORSDOF 5
