REMARK  2 active torsions:
REMARK  status: ('A' for Active; 'I' for Inactive)
REMARK    1  A    between atoms: C2_2  and  C3_3 
REMARK       I    between atoms: C3_3  and  N1_5 
REMARK    2  A    between atoms: C14_17  and  C15_18 
ROOT
ATOM      1  C3  <0> d           0.805  -0.518  -1.349  0.00  0.00     0.220 C 
ATOM      2  O1  <0> d           1.346   0.183  -2.179  0.00  0.00    -0.273 OA
ATOM      3  N1  <0> d           0.876  -1.860  -1.452  0.00  0.00    -0.330 N 
ATOM      4  C4  <0> d           1.615  -2.468  -2.569  0.00  0.00     0.111 C 
ATOM      5  C5  <0> d           2.735  -3.330  -1.977  0.00  0.00     0.134 A 
ATOM      6  C6  <0> d           2.094  -4.199  -0.903  0.00  0.00    -0.041 A 
ATOM      7  C7  <0> d           2.375  -5.457  -1.221  0.00  0.00    -0.005 A 
ATOM      8  C8  <0> d           2.090  -6.728  -0.535  0.00  0.00     0.014 A 
ATOM      9  C9  <0> d           2.520  -7.856  -1.159  0.00  0.00     0.001 A 
ATOM     10  C10 <0> d           3.197  -7.847  -2.383  0.00  0.00     0.002 A 
ATOM     11  C11 <0> d           3.506  -6.725  -3.081  0.00  0.00     0.030 A 
ATOM     12  C12 <0> d           3.109  -5.475  -2.523  0.00  0.00     0.039 A 
ATOM     13  N2  <0> d           3.299  -4.246  -2.970  0.00  0.00    -0.379 N 
ATOM     14  C13 <0> d           1.257  -3.622   0.212  0.00  0.00     0.073 C 
ATOM     15  C14 <0> d           0.220  -2.700  -0.444  0.00  0.00     0.192 C 
ATOM     16  C16 <0> d           0.672  -3.340  -3.400  0.00  0.00     0.035 C 
ATOM     17  H18 <0> d           3.726  -3.989  -3.802  0.00  0.00     0.160 HD
ENDROOT
BRANCH   1  18
ATOM     18  C2  <0> d           0.055   0.113  -0.204  0.00  0.00     0.098 C 
ATOM     19  C1  <0> d           0.129   1.636  -0.323  0.00  0.00     0.014 C 
ENDBRANCH   1  18
BRANCH  15  20
ATOM     20  C15 <0> d          -0.845  -3.537  -1.105  0.00  0.00     0.197 C 
ATOM     21  O2  <0> d          -1.122  -4.637  -0.655  0.00  0.00    -0.646 OA
ATOM     22  O3  <0> d          -1.430  -3.115  -2.087  0.00  0.00    -0.646 OA
ENDBRANCH  15  20
TORSDOF 2
