REMARK  3 active torsions:
REMARK  status: ('A' for Active; 'I' for Inactive)
REMARK    1  A    between atoms: C11_14  and  C16_21 
REMARK    2  A    between atoms: N4_17  and  C13_18 
REMARK    3  A    between atoms: C13_18  and  C14_19 
REMARK       I    between atoms: C16_21  and  N5_23 
ROOT
ATOM      1  C1  <0> d           0.225   1.068  -0.024  0.00  0.00     0.052 C 
ATOM      2  C2  <0> d           0.108  -0.435  -0.043  0.00  0.00    -0.015 A 
ATOM      3  C3  <0> d           1.229  -1.210  -0.077  0.00  0.00     0.012 A 
ATOM      4  C4  <0> d           1.105  -2.606  -0.094  0.00  0.00     0.018 A 
ATOM      5  C5  <0> d          -0.121  -3.177  -0.077  0.00  0.00     0.102 A 
ATOM      6  N1  <0> d          -1.247  -2.411  -0.044  0.00  0.00    -0.272 N 
ATOM      7  C6  <0> d          -1.159  -1.047  -0.021  0.00  0.00     0.145 A 
ATOM      8  N2  <0> d          -2.248  -0.278   0.017  0.00  0.00    -0.211 NA
ATOM      9  C7  <0> d          -3.468  -0.799   0.040  0.00  0.00     0.149 A 
ATOM     10  C8  <0> d          -3.620  -2.205   0.024  0.00  0.00     0.080 A 
ATOM     11  C9  <0> d          -2.456  -3.015  -0.028  0.00  0.00     0.267 A 
ATOM     12  O1  <0> d          -2.544  -4.230  -0.044  0.00  0.00    -0.267 OA
ATOM     13  C10 <0> d          -4.895  -2.788   0.048  0.00  0.00     0.042 A 
ATOM     14  C11 <0> d          -6.018  -1.972   0.087  0.00  0.00     0.076 A 
ATOM     15  C12 <0> d          -5.839  -0.512   0.103  0.00  0.00     0.118 A 
ATOM     16  N3  <0> d          -6.883   0.277   0.140  0.00  0.00    -0.384 N 
ATOM     17  N4  <0> d          -4.568   0.021   0.079  0.00  0.00    -0.313 N 
ATOM     18  H8  <0> d          -6.747   1.369   0.152  0.00  0.00     0.157 HD
ATOM     19  H18 <0> d          -7.896  -0.151   0.159  0.00  0.00     0.157 HD
ENDROOT
BRANCH  14  20
ATOM     20  C16 <0> d          -7.362  -2.558   0.112  0.00  0.00     0.255 C 
ATOM     21  O2  <0> d          -8.341  -1.838   0.041  0.00  0.00    -0.268 OA
ATOM     22  N5  <0> d          -7.514  -3.894   0.213  0.00  0.00    -0.361 N 
ATOM     23  C17 <0> d          -8.857  -4.479   0.237  0.00  0.00     0.149 C 
ATOM     24  H14 <0> d          -6.630  -4.544   0.277  0.00  0.00     0.162 HD
ENDBRANCH  14  20
BRANCH  17  25
ATOM     25  C13 <0> d          -4.390   1.475   0.096  0.00  0.00     0.158 C 
BRANCH  25  26
ATOM     26  C14 <0> d          -4.364   1.994  -1.319  0.00  0.00    -0.017 C 
ATOM     27  C15 <0> d          -5.195   2.938  -1.686  0.00  0.00     0.008 C 
ENDBRANCH  25  26
ENDBRANCH  17  25
TORSDOF 3
