REMARK  6 active torsions:
REMARK  status: ('A' for Active; 'I' for Inactive)
REMARK    1  A    between atoms: C6_6  and  O1_7 
REMARK    2  A    between atoms: O1_7  and  C7_8 
REMARK    3  A    between atoms: C7_8  and  C8_9 
REMARK       I    between atoms: C8_9  and  N1_11 
REMARK    4  A    between atoms: N1_11  and  C9_12 
REMARK    5  A    between atoms: C9_12  and  C10_13 
REMARK    6  A    between atoms: C10_13  and  N2_14 
ROOT
ATOM      1  C8  <0> d          -3.555  -0.877   0.032  0.00  0.00     0.241 C 
ATOM      2  O2  <0> d          -3.378  -2.077   0.023  0.00  0.00    -0.271 OA
ATOM      3  N1  <0> d          -4.809  -0.381   0.046  0.00  0.00    -0.358 N 
ATOM      4  H6  <0> d          -4.950   0.578   0.053  0.00  0.00     0.162 HD
ENDROOT
BRANCH   1   5
ATOM      5  C7  <0> d          -2.374   0.059   0.025  0.00  0.00     0.278 C 
BRANCH   5   6
ATOM      6  O1  <0> d          -1.164  -0.701   0.009  0.00  0.00    -0.342 OA
BRANCH   6   7
ATOM      7  C6  <0> d           0.002  -0.004   0.002  0.00  0.00     0.069 A 
ATOM      8  C1  <0> d          -0.017   1.383   0.010  0.00  0.00     0.037 A 
ATOM      9  C2  <0> d           1.171   2.087   0.002  0.00  0.00     0.010 A 
ATOM     10  C3  <0> d           2.381   1.414  -0.014  0.00  0.00    -0.052 A 
ATOM     11  C16 <0> d           3.798   1.947  -0.025  0.00  0.00     0.039 C 
ATOM     12  C4  <0> d           2.403   0.031  -0.021  0.00  0.00    -0.049 A 
ATOM     13  C15 <0> d           4.673   0.760  -0.481  0.00  0.00     0.009 C 
ATOM     14  C14 <0> d           3.835  -0.458  -0.039  0.00  0.00     0.039 C 
ATOM     15  C5  <0> d           1.214  -0.677  -0.013  0.00  0.00     0.044 A 
ENDBRANCH   6   7
ENDBRANCH   5   6
ENDBRANCH   1   5
BRANCH   3  16
ATOM     16  C9  <0> d          -5.957  -1.291   0.052  0.00  0.00     0.143 C 
BRANCH  16  17
ATOM     17  C10 <0> d          -7.252  -0.478   0.069  0.00  0.00     0.155 C 
BRANCH  17  18
ATOM     18  N2  <0> d          -8.400  -1.388   0.075  0.00  0.00    -0.277 N 
ATOM     19  C13 <0> d          -8.888  -1.790   1.263  0.00  0.00     0.289 A 
ATOM     20  S1  <0> d         -10.250  -2.861   0.825  0.00  0.00    -0.059 SA
ATOM     21  O4  <0> d          -8.495  -1.494   2.375  0.00  0.00    -0.260 OA
ATOM     22  C12 <0> d         -10.090  -2.719  -1.004  0.00  0.00     0.187 A 
ATOM     23  C11 <0> d          -8.899  -1.774  -1.087  0.00  0.00     0.236 A 
ATOM     24  O3  <0> d          -8.440  -1.402  -2.145  0.00  0.00    -0.272 OA
ENDBRANCH  17  18
ENDBRANCH  16  17
ENDBRANCH   3  16
TORSDOF 6
