REMARK  6 active torsions:
REMARK  status: ('A' for Active; 'I' for Inactive)
REMARK    1  A    between atoms: C2_2  and  N1_3 
REMARK    2  A    between atoms: N1_3  and  C3_4 
REMARK    3  A    between atoms: N1_3  and  C10_11 
REMARK    4  A    between atoms: C3_4  and  C4_5 
REMARK    5  A    between atoms: C13_14  and  C16_17 
REMARK    6  A    between atoms: N2_18  and  N3_19 
REMARK       I    between atoms: N3_19  and  C17_20 
REMARK       I    between atoms: C17_20  and  N4_21 
ROOT
ATOM      1  C10 <0> d           1.603   0.002  -0.012  0.00  0.00     0.030 A 
ATOM      2  C11 <0> d           2.966  -0.274  -0.021  0.00  0.00     0.030 A 
ATOM      3  C12 <0> d           3.880   0.757  -0.029  0.00  0.00     0.015 A 
ATOM      4  C13 <0> d           3.436   2.082  -0.018  0.00  0.00    -0.017 A 
ATOM      5  C14 <0> d           2.065   2.356  -0.004  0.00  0.00     0.015 A 
ATOM      6  C15 <0> d           1.157   1.320  -0.000  0.00  0.00     0.030 A 
ENDROOT
BRANCH   4   7
ATOM      7  C16 <0> d           4.410   3.188  -0.022  0.00  0.00     0.150 C 
ATOM      8  N2  <0> d           5.683   2.932  -0.035  0.00  0.00    -0.172 NA
BRANCH   8   9
ATOM      9  N3  <0> d           6.609   3.982  -0.039  0.00  0.00    -0.110 N 
ATOM     10  C17 <0> d           7.958   3.711  -0.053  0.00  0.00     0.685 C 
ATOM     11  N4  <0> d           8.867   4.743  -0.057  0.00  0.00    -0.234 N 
ATOM     12  N5  <0> d           8.316   2.435  -0.063  0.00  0.00    -0.234 N 
ATOM     13  H20 <0> d           8.558   5.662  -0.050  0.00  0.00     0.174 HD
ATOM     14  H21 <0> d           9.818   4.551  -0.067  0.00  0.00     0.174 HD
ATOM     15  H19 <0> d           9.304   2.182  -0.074  0.00  0.00     0.174 HD
ATOM     16  H22 <0> d           7.598   1.700  -0.060  0.00  0.00     0.174 HD
ATOM     17  H18 <0> d           6.299   4.902  -0.032  0.00  0.00     0.208 HD
ENDBRANCH   8   9
ENDBRANCH   4   7
BRANCH   1  18
ATOM     18  N1  <0> d           0.681  -1.044  -0.008  0.00  0.00    -0.377 N 
BRANCH  18  19
ATOM     19  C2  <0> d          -0.755  -0.755   0.001  0.00  0.00     0.119 C 
ATOM     20  C1  <0> d          -1.248  -0.664   1.447  0.00  0.00     0.026 C 
ENDBRANCH  18  19
BRANCH  18  21
ATOM     21  C3  <0> d           1.148  -2.433  -0.020  0.00  0.00     0.161 C 
BRANCH  21  22
ATOM     22  C4  <0> d           1.322  -2.917   1.396  0.00  0.00    -0.040 A 
ATOM     23  C9  <0> d           0.268  -3.520   2.055  0.00  0.00     0.009 A 
ATOM     24  C8  <0> d           0.428  -3.964   3.354  0.00  0.00     0.001 A 
ATOM     25  C7  <0> d           1.642  -3.804   3.995  0.00  0.00     0.000 A 
ATOM     26  C6  <0> d           2.697  -3.200   3.336  0.00  0.00     0.001 A 
ATOM     27  C5  <0> d           2.538  -2.761   2.035  0.00  0.00     0.009 A 
ENDBRANCH  21  22
ENDBRANCH  18  21
ENDBRANCH   1  18
TORSDOF 6
