REMARK  2 active torsions:
REMARK  status: ('A' for Active; 'I' for Inactive)
REMARK    1  A    between atoms: C4_4  and  N1_9 
REMARK    2  A    between atoms: C22_28  and  C23_29 
ROOT
ATOM      1  N1  <0> d          -5.105   2.802   2.880  0.00  0.00    -0.337 N 
ATOM      2  C9  <0> d          -4.544   1.503   3.213  0.00  0.00     0.229 A 
ATOM      3  C10 <0> d          -3.671   0.972   2.123  0.00  0.00     0.239 A 
ATOM      4  O1  <0> d          -3.128  -0.098   2.304  0.00  0.00    -0.271 OA
ATOM      5  N2  <0> d          -3.461   1.591   0.975  0.00  0.00    -0.323 N 
ATOM      6  C11 <0> d          -4.104   2.847   0.591  0.00  0.00     0.185 A 
ATOM      7  C12 <0> d          -4.913   3.413   1.712  0.00  0.00     0.244 A 
ATOM      8  O2  <0> d          -5.428   4.500   1.549  0.00  0.00    -0.271 OA
ATOM      9  C13 <0> d          -5.009   2.598  -0.624  0.00  0.00     0.076 C 
ATOM     10  C14 <0> d          -4.256   1.763  -1.628  0.00  0.00    -0.018 A 
ATOM     11  C15 <0> d          -4.548   1.569  -3.034  0.00  0.00    -0.001 A 
ATOM     12  C16 <0> d          -5.556   2.060  -3.869  0.00  0.00     0.014 A 
ATOM     13  C17 <0> d          -5.525   1.657  -5.182  0.00  0.00     0.001 A 
ATOM     14  C18 <0> d          -4.546   0.806  -5.668  0.00  0.00     0.002 A 
ATOM     15  C19 <0> d          -3.537   0.305  -4.863  0.00  0.00     0.030 A 
ATOM     16  C20 <0> d          -3.544   0.696  -3.526  0.00  0.00     0.043 A 
ATOM     17  N3  <0> d          -2.718   0.397  -2.480  0.00  0.00    -0.356 N 
ATOM     18  H2  <0> d          -1.942  -0.183  -2.530  0.00  0.00     0.166 HD
ATOM     19  C21 <0> d          -3.150   1.040  -1.351  0.00  0.00     0.045 A 
ATOM     20  C22 <0> d          -2.514   0.980   0.019  0.00  0.00     0.172 C 
ENDROOT
BRANCH   1  21
ATOM     21  C4  <0> d          -5.929   3.479   3.889  0.00  0.00     0.092 C 
ATOM     22  C3  <0> d          -7.133   2.600   4.227  0.00  0.00     0.063 C 
ATOM     23  C2  <0> d          -7.998   3.272   5.291  0.00  0.00     0.121 C 
ATOM     24  C1  <0> d          -8.796   4.416   4.655  0.00  0.00     0.046 C 
ATOM     25  C29 <0> d          -9.018   2.224   5.790  0.00  0.00     0.046 C 
ATOM     26  N4  <0> d          -7.261   3.728   6.500  0.00  0.00    -0.059 N 
ATOM     27  C6  <0> d          -5.944   4.366   6.235  0.00  0.00     0.121 C 
ATOM     28  H34 <0> d          -7.104   2.912   7.104  0.00  0.00     0.279 HD
ATOM     29  H35 <0> d          -7.851   4.410   6.993  0.00  0.00     0.279 HD
ATOM     30  C5  <0> d          -5.104   3.683   5.159  0.00  0.00     0.063 C 
ATOM     31  C7  <0> d          -6.098   5.854   5.898  0.00  0.00     0.046 C 
ATOM     32  C8  <0> d          -5.159   4.277   7.563  0.00  0.00     0.046 C 
ENDBRANCH   1  21
BRANCH  20  33
ATOM     33  C23 <0> d          -1.219   1.751   0.017  0.00  0.00    -0.029 A 
ATOM     34  C28 <0> d          -1.128   2.950   0.699  0.00  0.00     0.009 A 
ATOM     35  C27 <0> d           0.058   3.660   0.692  0.00  0.00     0.001 A 
ATOM     36  C26 <0> d           1.155   3.168   0.009  0.00  0.00     0.000 A 
ATOM     37  C25 <0> d           1.065   1.966  -0.668  0.00  0.00     0.001 A 
ATOM     38  C24 <0> d          -0.121   1.256  -0.661  0.00  0.00     0.009 A 
ENDBRANCH  20  33
TORSDOF 2
