REMARK  8 active torsions:
REMARK  status: ('A' for Active; 'I' for Inactive)
REMARK    1  A    between atoms: C2_2  and  C3_3 
REMARK    2  A    between atoms: C3_3  and  C4_4 
REMARK    3  A    between atoms: C3_3  and  N1_12 
REMARK    4  A    between atoms: N1_12  and  C10_13 
REMARK    5  A    between atoms: C10_13  and  C11_14 
REMARK    6  A    between atoms: C10_13  and  C15_18 
REMARK    7  A    between atoms: C11_14  and  C12_15 
REMARK    8  A    between atoms: C15_18  and  N2_19 
ROOT
ATOM      1  N1  <0> d          -2.679   0.312   1.263  0.00  0.00    -0.061 N 
ATOM      2  H11 <0> d          -2.265   0.400   0.347  0.00  0.00     0.278 HD
ATOM      3  H29 <0> d          -3.565  -0.165   1.188  0.00  0.00     0.278 HD
ENDROOT
BRANCH   1   4
ATOM      4  C3  <0> d          -1.781  -0.458   2.134  0.00  0.00     0.219 C 
BRANCH   4   5
ATOM      5  C2  <0> d          -1.902  -1.947   1.803  0.00  0.00     0.033 C 
ATOM      6  C1  <0> d          -3.307  -2.436   2.161  0.00  0.00     0.007 C 
ENDBRANCH   4   5
BRANCH   4   7
ATOM      7  C4  <0> d          -0.359  -0.008   1.913  0.00  0.00    -0.026 A 
ATOM      8  C9  <0> d           0.435   0.327   2.993  0.00  0.00     0.034 A 
ATOM      9  C8  <0> d           1.741   0.735   2.791  0.00  0.00     0.056 A 
ATOM     10  C7  <0> d           2.249   0.816   1.506  0.00  0.00     0.055 A 
ATOM     11 Cl1  <0> d           2.741   1.149   4.148  0.00  0.00    -0.083 Cl
ATOM     12  C6  <0> d           1.451   0.485   0.425  0.00  0.00     0.026 A 
ATOM     13 Cl2  <0> d           3.886   1.333   1.250  0.00  0.00    -0.083 Cl
ATOM     14  C5  <0> d           0.148   0.074   0.629  0.00  0.00     0.011 A 
ENDBRANCH   4   7
ENDBRANCH   1   4
BRANCH   1  15
ATOM     15  C10 <0> d          -2.889   1.648   1.835  0.00  0.00     0.212 C 
BRANCH  15  16
ATOM     16  C11 <0> d          -3.341   1.514   3.291  0.00  0.00     0.038 C 
BRANCH  16  17
ATOM     17  C12 <0> d          -4.654   0.732   3.347  0.00  0.00    -0.021 C 
ATOM     18  C13 <0> d          -5.042   0.490   4.808  0.00  0.00     0.009 C 
ATOM     19  C14 <0> d          -5.757   1.536   2.654  0.00  0.00     0.009 C 
ENDBRANCH  16  17
ENDBRANCH  15  16
BRANCH  15  20
ATOM     20  C15 <0> d          -1.581   2.439   1.778  0.00  0.00     0.266 C 
BRANCH  20  21
ATOM     21  N2  <0> d          -1.164   2.595   0.378  0.00  0.00    -0.077 N 
ATOM     22  C16 <0> d          -2.144   3.427  -0.335  0.00  0.00     0.269 C 
ATOM     23  C17 <0> d           0.154   3.242   0.328  0.00  0.00     0.269 C 
ATOM     24  H30 <0> d          -1.111   1.688  -0.061  0.00  0.00     0.279 HD
ENDBRANCH  20  21
ENDBRANCH  15  20
ENDBRANCH   1  15
TORSDOF 8
