REMARK  4 active torsions:
REMARK  status: ('A' for Active; 'I' for Inactive)
REMARK    1  A    between atoms: C4_4  and  O1_7 
REMARK    2  A    between atoms: O1_7  and  S1_8 
REMARK    3  A    between atoms: S1_8  and  P1_11 
REMARK    4  A    between atoms: C11_19  and  O6_26 
ROOT
ATOM      1  P1  <0> d           3.000  -2.544   2.135  0.00  0.00     0.454 P 
ATOM      2  O4  <0> d           3.152  -3.748   1.288  0.00  0.00    -0.245 OA
ATOM      3  N1  <0> d           3.464  -2.869   3.685  0.00  0.00    -0.162 N 
ATOM      4  N2  <0> d           2.583  -3.559   4.490  0.00  0.00     0.019 N 
ATOM      5  C7  <0> d           3.200  -3.601   5.826  0.00  0.00     0.268 C 
ATOM      6  C8  <0> d           2.320  -4.358   6.811  0.00  0.00     0.029 C 
ATOM      7  C9  <0> d           2.119  -5.804   6.342  0.00  0.00     0.093 C 
ATOM      8  C10 <0> d           1.305  -6.509   7.408  0.00  0.00     0.182 C 
ATOM      9  C11 <0> d           0.196  -5.767   8.026  0.00  0.00     0.108 C 
ATOM     10  C12 <0> d           0.039  -4.465   7.804  0.00  0.00     0.019 C 
ATOM     11  C13 <0> d           0.953  -3.678   6.908  0.00  0.00     0.019 C 
ATOM     12  C14 <0> d           0.344  -3.602   5.507  0.00  0.00     0.046 C 
ATOM     13  C15 <0> d           1.291  -2.871   4.547  0.00  0.00     0.238 C 
ATOM     14  C16 <0> d           0.607  -2.844   3.174  0.00  0.00     0.214 C 
ATOM     15  O5  <0> d           1.431  -2.123   2.240  0.00  0.00    -0.303 OA
ATOM     16  O7  <0> d           1.560  -7.648   7.741  0.00  0.00    -0.290 OA
ATOM     17  H9  <0> d           4.329  -2.584   4.019  0.00  0.00     0.198 HD
ATOM     18  H20 <0> d           2.455  -4.494   4.131  0.00  0.00     0.309 HD
ENDROOT
BRANCH   1  19
ATOM     19  S1  <0> d           4.140  -0.941   1.346  0.00  0.00     0.372 S 
ATOM     20  O2  <0> d           5.458  -1.436   1.154  0.00  0.00    -0.186 OA
ATOM     21  O3  <0> d           3.863   0.192   2.158  0.00  0.00    -0.186 OA
BRANCH  19  22
ATOM     22  O1  <0> d           3.586  -0.632  -0.037  0.00  0.00    -0.225 OA
BRANCH  22  23
ATOM     23  C4  <0> d           2.399   0.030  -0.021  0.00  0.00     0.089 A 
ATOM     24  C3  <0> d           2.377   1.417  -0.013  0.00  0.00     0.038 A 
ATOM     25  C2  <0> d           1.170   2.088   0.002  0.00  0.00     0.003 A 
ATOM     26  C1  <0> d          -0.017   1.378   0.010  0.00  0.00     0.000 A 
ATOM     27  C6  <0> d           0.002  -0.004   0.002  0.00  0.00     0.003 A 
ATOM     28  C5  <0> d           1.207  -0.680  -0.013  0.00  0.00     0.038 A 
ENDBRANCH  22  23
ENDBRANCH  19  22
ENDBRANCH   1  19
BRANCH   9  29
ATOM     29  O6  <0> d          -0.681  -6.421   8.834  0.00  0.00    -0.357 OA
ATOM     30  H18 <0> d          -0.492  -7.363   8.939  0.00  0.00     0.217 HD
ENDBRANCH   9  29
TORSDOF 4
