REMARK  5 active torsions:
REMARK  status: ('A' for Active; 'I' for Inactive)
REMARK    1  A    between atoms: C7_7  and  C10_11 
REMARK    2  A    between atoms: C7_7  and  N1_14 
REMARK    3  A    between atoms: N1_14  and  C11_15 
REMARK    4  A    between atoms: C11_15  and  C12_16 
REMARK    5  A    between atoms: C12_16  and  N2_17 
ROOT
ATOM      1  C1  <0> d           4.897  -3.111   0.065  0.00  0.00     0.001 A 
ATOM      2  C2  <0> d           4.887  -3.987   1.135  0.00  0.00     0.003 A 
ATOM      3  C3  <0> d           3.708  -4.240   1.807  0.00  0.00     0.037 A 
ATOM      4  C4  <0> d           2.529  -3.618   1.411  0.00  0.00     0.078 A 
ATOM      5  C5  <0> d           2.541  -2.745   0.337  0.00  0.00     0.022 A 
ATOM      6  C6  <0> d           3.727  -2.492  -0.332  0.00  0.00     0.013 A 
ATOM      7  C7  <0> d           1.283  -2.058  -0.132  0.00  0.00     0.243 C 
ATOM      8  C8  <0> d           0.221  -2.119   0.969  0.00  0.00     0.082 C 
ATOM      9  C9  <0> d           0.143  -3.562   1.484  0.00  0.00     0.179 C 
ATOM     10  O1  <0> d           1.390  -3.888   2.100  0.00  0.00    -0.350 OA
ENDROOT
BRANCH   7  11
ATOM     11  C10 <0> d           1.589  -0.619  -0.456  0.00  0.00     0.215 C 
ATOM     12  O2  <0> d           1.552  -0.232  -1.611  0.00  0.00    -0.646 OA
ATOM     13  O3  <0> d           1.872   0.160   0.439  0.00  0.00    -0.646 OA
ENDBRANCH   7  11
BRANCH   7  14
ATOM     14  N1  <0> d           0.779  -2.732  -1.336  0.00  0.00    -0.050 N 
ATOM     15  H9  <0> d           1.438  -2.612  -2.090  0.00  0.00     0.279 HD
ATOM     16  H22 <0> d           0.661  -3.716  -1.146  0.00  0.00     0.279 HD
BRANCH  14  17
ATOM     17  C11 <0> d          -0.515  -2.150  -1.718  0.00  0.00     0.262 C 
BRANCH  17  18
ATOM     18  C12 <0> d          -1.004  -2.800  -3.013  0.00  0.00     0.262 C 
BRANCH  18  19
ATOM     19  N2  <0> d          -2.298  -2.217  -3.395  0.00  0.00    -0.070 N 
ATOM     20  C16 <0> d          -2.843  -2.916  -4.578  0.00  0.00     0.235 C 
ATOM     21  C15 <0> d          -3.568  -1.860  -5.433  0.00  0.00     0.029 C 
ATOM     22  C14 <0> d          -3.371  -0.526  -4.678  0.00  0.00     0.029 C 
ATOM     23  C13 <0> d          -2.120  -0.801  -3.808  0.00  0.00     0.235 C 
ATOM     24  H23 <0> d          -2.947  -2.277  -2.625  0.00  0.00     0.279 HD
ENDBRANCH  18  19
ENDBRANCH  17  18
ENDBRANCH  14  17
ENDBRANCH   7  14
TORSDOF 5
