REMARK  3 active torsions:
REMARK  status: ('A' for Active; 'I' for Inactive)
REMARK    1  A    between atoms: N1_2  and  C2_3 
REMARK       I    between atoms: N1_2  and  C9_15 
REMARK    2  A    between atoms: C2_3  and  C3_4 
REMARK    3  A    between atoms: C9_15  and  C10_17 
ROOT
ATOM      1  C1  <0> d          -0.018   1.461   0.010  0.00  0.00     0.153 C 
ATOM      2  N1  <0> d           0.002  -0.004   0.002  0.00  0.00    -0.347 N 
ATOM      3  C9  <0> d           0.000  -0.672  -1.169  0.00  0.00     0.250 C 
ATOM      4  O2  <0> d           0.017  -1.884  -1.175  0.00  0.00    -0.270 OA
ENDROOT
BRANCH   2   5
ATOM      5  C2  <0> d           0.024  -0.743   1.267  0.00  0.00     0.203 C 
BRANCH   5   6
ATOM      6  C3  <0> d          -1.389  -1.016   1.714  0.00  0.00     0.125 A 
ATOM      7  N3  <0> d          -2.362  -0.591   0.973  0.00  0.00    -0.232 NA
ATOM      8  C6  <0> d          -3.677  -0.804   1.308  0.00  0.00     0.082 A 
ATOM      9  C5  <0> d          -3.901  -1.501   2.508  0.00  0.00     0.101 A 
ATOM     10  C7  <0> d          -4.829  -0.413   0.612  0.00  0.00     0.040 A 
ATOM     11  C4  <0> d          -2.842  -1.948   3.298  0.00  0.00     0.266 A 
ATOM     12  S1  <0> d          -5.669  -1.580   2.614  0.00  0.00    -0.094 SA
ATOM     13  N2  <0> d          -1.579  -1.692   2.877  0.00  0.00    -0.309 N 
ATOM     14  O1  <0> d          -3.046  -2.551   4.338  0.00  0.00    -0.267 OA
ATOM     15  H1  <0> d          -0.819  -1.988   3.402  0.00  0.00     0.170 HD
ATOM     16  C8  <0> d          -6.052  -0.708   1.103  0.00  0.00     0.053 A 
ENDBRANCH   5   6
ENDBRANCH   2   5
BRANCH   3  17
ATOM     17  C10 <0> d          -0.023   0.089  -2.470  0.00  0.00     0.238 C 
ATOM     18  O3  <0> d          -0.136  -0.831  -3.559  0.00  0.00    -0.373 OA
ATOM     19  C13 <0> d          -0.115  -0.204  -4.844  0.00  0.00     0.196 C 
ATOM     20  C12 <0> d           1.181   0.596  -4.996  0.00  0.00     0.258 C 
ATOM     21  N4  <0> d           1.274   1.583  -3.912  0.00  0.00    -0.070 N 
ATOM     22  C11 <0> d           1.274   0.889  -2.617  0.00  0.00     0.274 C 
ATOM     23  H12 <0> d           0.484   2.209  -3.958  0.00  0.00     0.277 HD
ATOM     24  H17 <0> d           2.128   2.112  -4.010  0.00  0.00     0.277 HD
ENDBRANCH   3  17
TORSDOF 3
