REMARK  5 active torsions:
REMARK  status: ('A' for Active; 'I' for Inactive)
REMARK    1  A    between atoms: C2_2  and  C3_3 
REMARK    2  A    between atoms: C2_2  and  N1_7 
REMARK    3  A    between atoms: C3_3  and  O2_5 
REMARK    4  A    between atoms: N1_7  and  S1_8 
REMARK    5  A    between atoms: S1_8  and  C5_11 
ROOT
ATOM      1  C5  <0> d          -1.242  -2.272  -2.098  0.00  0.00     0.080 A 
ATOM      2  C6  <0> d          -0.176  -2.053  -2.951  0.00  0.00     0.027 A 
ATOM      3  C7  <0> d           0.515  -3.117  -3.491  0.00  0.00     0.032 A 
ATOM      4  C8  <0> d           0.143  -4.424  -3.181  0.00  0.00     0.043 A 
ATOM      5  C9  <0> d          -0.929  -4.631  -2.323  0.00  0.00    -0.021 A 
ATOM      6  C10 <0> d          -1.615  -3.567  -1.781  0.00  0.00     0.035 A 
ATOM      7  C11 <0> d          -1.082  -6.128  -2.187  0.00  0.00     0.144 A 
ATOM      8  C12 <0> d           0.020  -6.691  -3.060  0.00  0.00     0.228 A 
ATOM      9  O5  <0> d           0.265  -7.865  -3.243  0.00  0.00    -0.273 OA
ATOM     10  N2  <0> d           0.674  -5.646  -3.593  0.00  0.00    -0.322 N 
ATOM     11  C13 <0> d           1.816  -5.776  -4.502  0.00  0.00     0.159 C 
ENDROOT
BRANCH   1  12
ATOM     12  S1  <0> d          -2.119  -0.907  -1.411  0.00  0.00     0.259 S 
ATOM     13  O3  <0> d          -3.414  -1.386  -1.071  0.00  0.00    -0.201 OA
ATOM     14  O4  <0> d          -1.920   0.189  -2.293  0.00  0.00    -0.201 OA
BRANCH  12  15
ATOM     15  N1  <0> d          -1.372  -0.511   0.012  0.00  0.00    -0.301 N 
ATOM     16  H8  <0> d          -1.845  -0.615   0.853  0.00  0.00     0.173 HD
BRANCH  15  17
ATOM     17  C2  <0> d           0.002  -0.004   0.002  0.00  0.00     0.188 C 
ATOM     18  C1  <0> d          -0.019   1.526   0.010  0.00  0.00     0.043 C 
BRANCH  17  19
ATOM     19  C3  <0> d           0.731  -0.503   1.223  0.00  0.00     0.281 C 
ATOM     20  O1  <0> d           0.161  -1.210   2.020  0.00  0.00    -0.263 OA
BRANCH  19  21
ATOM     21  O2  <0> d           2.014  -0.163   1.425  0.00  0.00    -0.325 OA
ATOM     22  C4  <0> d           2.642  -0.672   2.603  0.00  0.00     0.213 C 
ENDBRANCH  19  21
ENDBRANCH  17  19
ENDBRANCH  15  17
ENDBRANCH  12  15
ENDBRANCH   1  12
TORSDOF 5
