REMARK  1 active torsions:
REMARK  status: ('A' for Active; 'I' for Inactive)
REMARK    1  A    between atoms: N4_20  and  C14_21 
ROOT
ATOM      1  C1  <0> d          -0.017   1.375   0.010  0.00  0.00     0.002 A 
ATOM      2  C2  <0> d           1.161   2.116   0.002  0.00  0.00     0.011 A 
ATOM      3  C3  <0> d           2.345   1.411  -0.013  0.00  0.00    -0.006 A 
ATOM      4  C4  <0> d           2.378   0.011  -0.021  0.00  0.00     0.064 A 
ATOM      5  C5  <0> d           1.190  -0.722  -0.013  0.00  0.00     0.061 A 
ATOM      6  C6  <0> d           0.002  -0.004   0.002  0.00  0.00     0.026 A 
ATOM      7 Cl1  <0> d           1.197  -2.458  -0.022  0.00  0.00    -0.082 Cl
ATOM      8  N1  <0> d           3.687  -0.439  -0.036  0.00  0.00    -0.324 N 
ATOM      9  C7  <0> d           4.572   0.580  -0.041  0.00  0.00     0.240 A 
ATOM     10  O1  <0> d           5.781   0.486  -0.056  0.00  0.00    -0.272 OA
ATOM     11  C8  <0> d           3.769   1.863  -0.026  0.00  0.00     0.111 A 
ATOM     12  C9  <0> d           4.077   2.691  -1.272  0.00  0.00     0.132 C 
ATOM     13  C10 <0> d           3.619   4.113  -1.108  0.00  0.00     0.225 C 
ATOM     14  O2  <0> d           3.149   4.693  -2.064  0.00  0.00    -0.273 OA
ATOM     15  N2  <0> d           3.716   4.767   0.069  0.00  0.00    -0.311 N 
ATOM     16  C11 <0> d           4.065   4.039   1.205  0.00  0.00     0.141 A 
ATOM     17  C12 <0> d           4.102   2.667   1.200  0.00  0.00     0.030 A 
ATOM     18  C13 <0> d           4.480   2.246   2.466  0.00  0.00     0.152 A 
ATOM     19  N3  <0> d           4.657   3.307   3.219  0.00  0.00    -0.177 NA
ATOM     20  N4  <0> d           4.394   4.450   2.446  0.00  0.00    -0.217 N 
ATOM     21  H4  <0> d           3.939  -1.376  -0.042  0.00  0.00     0.169 HD
ATOM     22  H7  <0> d           3.547   5.721   0.123  0.00  0.00     0.170 HD
ENDROOT
BRANCH  20  23
ATOM     23  C14 <0> d           4.461   5.780   2.886  0.00  0.00     0.060 A 
ATOM     24  C19 <0> d           4.094   6.101   4.186  0.00  0.00     0.033 A 
ATOM     25  C18 <0> d           4.166   7.411   4.619  0.00  0.00     0.026 A 
ATOM     26  C17 <0> d           4.592   8.404   3.754  0.00  0.00     0.034 A 
ATOM     27  C16 <0> d           4.953   8.087   2.457  0.00  0.00     0.026 A 
ATOM     28 Cl2  <0> d           4.675  10.050   4.299  0.00  0.00    -0.084 Cl
ATOM     29  C15 <0> d           4.888   6.778   2.021  0.00  0.00     0.033 A 
ENDBRANCH  20  23
TORSDOF 1
