REMARK  2 active torsions:
REMARK  status: ('A' for Active; 'I' for Inactive)
REMARK    1  A    between atoms: C5_7  and  C6_8 
REMARK       I    between atoms: C6_8  and  N1_10 
REMARK    2  A    between atoms: N1_10  and  C7_11 
ROOT
ATOM      1  C7  <0> d          -3.662  -0.789   0.127  0.00  0.00     0.036 A 
ATOM      2  C8  <0> d          -3.655  -2.178   0.224  0.00  0.00     0.039 A 
ATOM      3  C9  <0> d          -4.831  -2.879   0.337  0.00  0.00    -0.028 A 
ATOM      4  C10 <0> d          -6.011  -2.131   0.364  0.00  0.00     0.050 A 
ATOM      5  C11 <0> d          -6.030  -0.751   0.242  0.00  0.00    -0.027 A 
ATOM      6  C12 <0> d          -4.846  -0.046   0.133  0.00  0.00     0.039 A 
ATOM      7  C13 <0> d          -7.464  -0.314   0.246  0.00  0.00     0.061 A 
ATOM      8  C14 <0> d          -8.275  -1.622   0.402  0.00  0.00     0.137 A 
ATOM      9  N2  <0> d          -7.282  -2.684   0.519  0.00  0.00    -0.317 N 
ATOM     10  C15 <0> d          -7.423  -4.002   0.783  0.00  0.00     0.224 C 
ATOM     11  O4  <0> d          -8.507  -4.540   0.697  0.00  0.00    -0.273 OA
ATOM     12  C16 <0> d          -6.199  -4.787   1.187  0.00  0.00     0.108 C 
ATOM     13  C17 <0> d          -4.951  -4.371   0.411  0.00  0.00     0.050 C 
ENDROOT
BRANCH   1  14
ATOM     14  N1  <0> d          -2.441  -0.112   0.026  0.00  0.00    -0.323 N 
ATOM     15  C6  <0> d          -2.354   1.016  -0.707  0.00  0.00     0.258 C 
ATOM     16  O3  <0> d          -3.309   1.393  -1.358  0.00  0.00    -0.267 OA
ATOM     17  H4  <0> d          -1.657  -0.455   0.483  0.00  0.00     0.169 HD
BRANCH  15  18
ATOM     18  C5  <0> d          -1.100   1.792  -0.720  0.00  0.00     0.054 A 
ATOM     19  C1  <0> d           0.018   1.357   0.037  0.00  0.00     0.025 A 
ATOM     20  C2  <0> d           1.160   2.094   0.004  0.00  0.00     0.084 A 
ATOM     21  C3  <0> d           1.203   3.265  -0.777  0.00  0.00     0.287 A 
ATOM     22  O1  <0> d           2.223   3.932  -0.812  0.00  0.00    -0.260 OA
ATOM     23  O2  <0> d           0.128   3.653  -1.484  0.00  0.00    -0.287 OA
ATOM     24  C4  <0> d          -1.005   2.944  -1.467  0.00  0.00     0.163 A 
ENDBRANCH  15  18
ENDBRANCH   1  14
TORSDOF 2
