REMARK  4 active torsions:
REMARK  status: ('A' for Active; 'I' for Inactive)
REMARK    1  A    between atoms: C3_3  and  C12_14 
REMARK    2  A    between atoms: N1_5  and  C5_7 
REMARK    3  A    between atoms: C12_14  and  C13_15 
REMARK       I    between atoms: C13_15  and  N3_17 
REMARK    4  A    between atoms: N3_17  and  C14_18 
ROOT
ATOM      1  C1  <0> d          -0.340   1.478   0.029  0.00  0.00     0.073 C 
ATOM      2  C2  <0> d          -0.137  -0.015   0.010  0.00  0.00     0.060 A 
ATOM      3  C3  <0> d          -0.127  -0.827  -1.129  0.00  0.00     0.001 A 
ATOM      4  C4  <0> d           0.084  -2.102  -0.730  0.00  0.00     0.041 A 
ATOM      5  N1  <0> d           0.204  -2.097   0.617  0.00  0.00    -0.238 N 
ATOM      6  N2  <0> d           0.067  -0.774   1.056  0.00  0.00    -0.172 NA
ATOM      7  C11 <0> d           0.170  -3.312  -1.625  0.00  0.00     0.071 C 
ENDROOT
BRANCH   3   8
ATOM      8  C12 <0> d          -0.319  -0.363  -2.550  0.00  0.00     0.145 C 
BRANCH   8   9
ATOM      9  C13 <0> d           1.019  -0.015  -3.150  0.00  0.00     0.222 C 
ATOM     10  O1  <0> d           2.029  -0.133  -2.489  0.00  0.00    -0.273 OA
ATOM     11  N3  <0> d           1.093   0.426  -4.422  0.00  0.00    -0.355 N 
ATOM     12  H15 <0> d           0.285   0.520  -4.950  0.00  0.00     0.162 HD
BRANCH  11  13
ATOM     13  C14 <0> d           2.393   0.764  -5.005  0.00  0.00     0.099 C 
ATOM     14  C17 <0> d           2.196   1.804  -6.133  0.00  0.00     0.165 C 
ATOM     15  S1  <0> d           3.549   1.391  -7.308  0.00  0.00     0.146 S 
ATOM     16  C16 <0> d           4.254  -0.082  -6.453  0.00  0.00     0.142 C 
ATOM     17  O2  <0> d           4.510   2.437  -7.295  0.00  0.00    -0.228 OA
ATOM     18  O3  <0> d           2.979   0.979  -8.543  0.00  0.00    -0.228 OA
ATOM     19  C15 <0> d           3.043  -0.508  -5.575  0.00  0.00     0.041 C 
ENDBRANCH  11  13
ENDBRANCH   8   9
ENDBRANCH   3   8
BRANCH   5  20
ATOM     20  C5  <0> d           0.430  -3.217   1.429  0.00  0.00     0.058 A 
ATOM     21  C10 <0> d          -0.259  -3.359   2.626  0.00  0.00     0.031 A 
ATOM     22  C9  <0> d          -0.038  -4.466   3.422  0.00  0.00     0.002 A 
ATOM     23  C8  <0> d           0.877  -5.427   3.033  0.00  0.00     0.000 A 
ATOM     24  C7  <0> d           1.569  -5.286   1.844  0.00  0.00     0.002 A 
ATOM     25  C6  <0> d           1.348  -4.184   1.041  0.00  0.00     0.031 A 
ENDBRANCH   5  20
TORSDOF 4
