REMARK  6 active torsions:
REMARK  status: ('A' for Active; 'I' for Inactive)
REMARK    1  A    between atoms: C2_2  and  N1_3 
REMARK    2  A    between atoms: N2_6  and  C7_9 
REMARK    3  A    between atoms: C7_9  and  C8_10 
REMARK    4  A    between atoms: C9_11  and  O3_29 
REMARK    5  A    between atoms: C14_16  and  C17_20 
REMARK       I    between atoms: C17_20  and  N3_22 
REMARK    6  A    between atoms: N3_22  and  C18_23 
ROOT
ATOM      1  C8  <0> d           1.671  -1.265   1.185  0.00  0.00     0.017 A 
ATOM      2  C9  <0> d           1.745   0.064   1.563  0.00  0.00     0.074 A 
ATOM      3  C10 <0> d           0.606   0.861   1.535  0.00  0.00     0.040 A 
ATOM      4  C11 <0> d          -0.605   0.341   1.134  0.00  0.00     0.041 A 
ATOM      5  C12 <0> d          -0.698  -0.992   0.751  0.00  0.00     0.087 A 
ATOM      6  C13 <0> d           0.451  -1.796   0.778  0.00  0.00     0.027 A 
ATOM      7  C14 <0> d           0.010  -3.128   0.320  0.00  0.00     0.075 A 
ATOM      8  C15 <0> d          -1.322  -3.009   0.067  0.00  0.00     0.066 A 
ATOM      9  O1  <0> d          -1.723  -1.758   0.323  0.00  0.00    -0.314 OA
ATOM     10  C16 <0> d          -2.213  -4.120  -0.426  0.00  0.00     0.078 C 
ENDROOT
BRANCH   1  11
ATOM     11  C7  <0> d           2.903  -2.132   1.213  0.00  0.00     0.315 C 
BRANCH  11  12
ATOM     12  N2  <0> d           2.999  -2.804   2.516  0.00  0.00     0.096 N 
ATOM     13  C4  <0> d           4.026  -3.855   2.491  0.00  0.00     0.300 C 
ATOM     14  C3  <0> d           4.040  -4.582   3.838  0.00  0.00     0.265 C 
ATOM     15  N1  <0> d           4.306  -3.615   4.912  0.00  0.00    -0.068 N 
ATOM     16  C6  <0> d           3.279  -2.564   4.936  0.00  0.00     0.265 C 
ATOM     17  H34 <0> d           5.275  -3.138   4.707  0.00  0.00     0.280 HD
ATOM     18  C5  <0> d           3.265  -1.836   3.589  0.00  0.00     0.300 C 
BRANCH  15  19
ATOM     19  C2  <0> d           4.402  -4.287   6.214  0.00  0.00     0.230 C 
ATOM     20  C1  <0> d           4.921  -3.299   7.261  0.00  0.00     0.034 C 
ENDBRANCH  15  19
ENDBRANCH  11  12
ENDBRANCH   1  11
BRANCH   2  21
ATOM     21  O3  <0> d           2.934   0.590   1.961  0.00  0.00    -0.360 OA
ATOM     22  H33 <0> d           2.994   1.647   2.262  0.00  0.00     0.217 HD
ENDBRANCH   2  21
BRANCH   7  23
ATOM     23  C17 <0> d           0.838  -4.334   0.169  0.00  0.00     0.255 C 
ATOM     24  O2  <0> d           1.071  -5.037   1.134  0.00  0.00    -0.268 OA
ATOM     25  N3  <0> d           1.337  -4.661  -1.040  0.00  0.00    -0.352 N 
ATOM     26  H21 <0> d           1.197  -3.983  -1.895  0.00  0.00     0.163 HD
BRANCH  25  27
ATOM     27  C18 <0> d           2.067  -5.920  -1.215  0.00  0.00     0.084 C 
ATOM     28  C23 <0> d           1.641  -6.578  -2.528  0.00  0.00     0.025 C 
ATOM     29  C22 <0> d           2.402  -7.892  -2.711  0.00  0.00     0.002 C 
ATOM     30  C21 <0> d           3.906  -7.609  -2.746  0.00  0.00     0.000 C 
ATOM     31  C20 <0> d           4.332  -6.951  -1.433  0.00  0.00     0.002 C 
ATOM     32  C19 <0> d           3.570  -5.637  -1.250  0.00  0.00     0.025 C 
ENDBRANCH  25  27
ENDBRANCH   7  23
TORSDOF 6
