REMARK  5 active torsions:
REMARK  status: ('A' for Active; 'I' for Inactive)
REMARK    1  A    between atoms: C2_2  and  N1_3 
REMARK    2  A    between atoms: C17_22  and  N2_29 
REMARK    3  A    between atoms: C18_23  and  C19_24 
REMARK    4  A    between atoms: C19_24  and  O6_26 
REMARK    5  A    between atoms: O6_26  and  C20_27 
ROOT
ATOM      1  N1  <0> d           0.527  -0.483  -1.288  0.00  0.00    -0.316 N 
ATOM      2  C3  <0> d          -0.176  -0.646  -2.469  0.00  0.00     0.045 A 
ATOM      3  C4  <0> d          -1.526  -0.414  -2.735  0.00  0.00     0.031 A 
ATOM      4  C5  <0> d          -1.970  -0.665  -4.024  0.00  0.00     0.021 A 
ATOM      5  C6  <0> d          -1.123  -1.126  -5.013  0.00  0.00     0.011 A 
ATOM      6  C7  <0> d           0.225  -1.360  -4.760  0.00  0.00     0.030 A 
ATOM      7  C8  <0> d           0.673  -1.111  -3.480  0.00  0.00    -0.002 A 
ATOM      8  C9  <0> d           2.031  -1.242  -2.863  0.00  0.00     0.143 A 
ATOM      9  C10 <0> d           1.830  -0.806  -1.426  0.00  0.00     0.247 A 
ATOM     10  O1  <0> d           2.680  -0.757  -0.562  0.00  0.00    -0.271 OA
ATOM     11  C11 <0> d           2.510  -2.664  -2.909  0.00  0.00     0.079 A 
ATOM     12  C12 <0> d           3.519  -3.036  -3.774  0.00  0.00     0.094 A 
ATOM     13  C13 <0> d           3.936  -4.386  -3.780  0.00  0.00     0.070 A 
ATOM     14  C14 <0> d           3.346  -5.267  -2.951  0.00  0.00     0.056 A 
ATOM     15  O2  <0> d           2.367  -4.906  -2.115  0.00  0.00    -0.280 OA
ATOM     16  C15 <0> d           1.941  -3.634  -2.076  0.00  0.00     0.299 A 
ATOM     17  O3  <0> d           1.048  -3.320  -1.306  0.00  0.00    -0.259 OA
ATOM     18  C16 <0> d           3.802  -6.704  -2.966  0.00  0.00     0.077 C 
ATOM     19  O4  <0> d           4.100  -2.140  -4.597  0.00  0.00    -0.293 OA
ATOM     20  C17 <0> d           3.981  -0.824  -4.353  0.00  0.00     0.156 C 
ATOM     21  C18 <0> d           3.015  -0.330  -3.537  0.00  0.00     0.095 C 
ATOM     22 Br1  <0> d          -1.810  -1.446  -6.745  0.00  0.00    -0.051 Br
ENDROOT
BRANCH  21  23
ATOM     23  C19 <0> d           2.936   1.054  -3.318  0.00  0.00     0.295 C 
ATOM     24  O5  <0> d           2.107   1.718  -3.914  0.00  0.00    -0.259 OA
BRANCH  23  25
ATOM     25  O6  <0> d           3.780   1.649  -2.448  0.00  0.00    -0.318 OA
BRANCH  25  26
ATOM     26  C20 <0> d           3.570   3.038  -2.188  0.00  0.00     0.174 C 
ATOM     27  C21 <0> d           4.682   3.561  -1.277  0.00  0.00     0.034 C 
ENDBRANCH  25  26
ENDBRANCH  23  25
ENDBRANCH  21  23
BRANCH  20  28
ATOM     28  N2  <0> d           4.859   0.044  -4.945  0.00  0.00    -0.379 N 
ATOM     29  H18 <0> d           5.506  -0.285  -5.589  0.00  0.00     0.158 HD
ATOM     30  H19 <0> d           4.835   0.987  -4.721  0.00  0.00     0.158 HD
ENDBRANCH  20  28
BRANCH   1  31
ATOM     31  C2  <0> d          -0.071  -0.011  -0.037  0.00  0.00     0.128 C 
ATOM     32  C1  <0> d          -0.085   1.519  -0.024  0.00  0.00     0.027 C 
ENDBRANCH   1  31
TORSDOF 5
