REMARK  2 active torsions:
REMARK  status: ('A' for Active; 'I' for Inactive)
REMARK    1  A    between atoms: C3_3  and  C6_8 
REMARK       I    between atoms: C6_8  and  N2_10 
REMARK    2  A    between atoms: N2_10  and  C7_11 
ROOT
ATOM      1  C7  <0> d          -0.013  -0.682  -4.902  0.00  0.00     0.160 A 
ATOM      2  C8  <0> d          -0.013  -1.484  -6.040  0.00  0.00     0.036 A 
ATOM      3  C9  <0> d          -0.036  -0.663  -7.135  0.00  0.00     0.136 A 
ATOM      4  N3  <0> d          -0.039   0.609  -6.693  0.00  0.00    -0.256 N 
ATOM      5  N4  <0> d          -0.033   0.576  -5.289  0.00  0.00    -0.152 NA
ATOM      6  C10 <0> d          -0.051   1.813  -7.528  0.00  0.00     0.182 C 
ATOM      7  N5  <0> d          -0.064  -1.168  -8.434  0.00  0.00    -0.311 N 
ATOM      8  C11 <0> d          -0.270  -2.492  -8.598  0.00  0.00     0.227 C 
ATOM      9  O2  <0> d          -0.110  -2.981  -9.696  0.00  0.00    -0.273 OA
ATOM     10  C12 <0> d          -0.690  -3.381  -7.461  0.00  0.00     0.079 C 
ATOM     11  C13 <0> d           0.014  -2.987  -6.158  0.00  0.00     0.060 C 
ATOM     12  C14 <0> d          -2.203  -3.264  -7.266  0.00  0.00     0.020 C 
ATOM     13  H12 <0> d           0.061  -0.585  -9.199  0.00  0.00     0.170 HD
ENDROOT
BRANCH   1  14
ATOM     14  N2  <0> d          -0.000  -1.135  -3.577  0.00  0.00    -0.305 N 
ATOM     15  C6  <0> d          -0.007  -0.248  -2.562  0.00  0.00     0.266 C 
ATOM     16  O1  <0> d          -0.025   0.946  -2.797  0.00  0.00    -0.267 OA
ATOM     17  H8  <0> d           0.013  -2.086  -3.389  0.00  0.00     0.170 HD
BRANCH  15  18
ATOM     18  C3  <0> d           0.006  -0.722  -1.174  0.00  0.00     0.099 A 
ATOM     19  C2  <0> d           0.002  -0.004   0.002  0.00  0.00     0.054 A 
ATOM     20  C1  <0> d          -0.018   1.503   0.010  0.00  0.00     0.072 C 
ATOM     21  N1  <0> d           0.022  -0.699   1.113  0.00  0.00    -0.250 NA
ATOM     22  C4  <0> d           0.035  -2.012   1.103  0.00  0.00     0.072 A 
ATOM     23  S1  <0> d           0.032  -2.390  -0.537  0.00  0.00    -0.068 SA
ATOM     24  C5  <0> d           0.053  -2.955   2.278  0.00  0.00     0.078 C 
ENDBRANCH  15  18
ENDBRANCH   1  14
TORSDOF 2
