REMARK  4 active torsions:
REMARK  status: ('A' for Active; 'I' for Inactive)
REMARK    1  A    between atoms: C5_5  and  N4_12 
REMARK       I    between atoms: N4_12  and  C9_13 
REMARK    2  A    between atoms: C9_13  and  C10_15 
REMARK    3  A    between atoms: C10_15  and  O2_16 
REMARK    4  A    between atoms: O2_16  and  C11_17 
ROOT
ATOM      1  C1  <0> d           2.321  -4.913  -0.878  0.00  0.00     0.073 C 
ATOM      2  C2  <0> d           1.390  -3.783  -0.521  0.00  0.00     0.065 A 
ATOM      3  C3  <0> d           0.751  -2.866  -1.458  0.00  0.00     0.040 A 
ATOM      4  C4  <0> d           0.770  -2.724  -2.851  0.00  0.00     0.048 A 
ATOM      5  C5  <0> d           0.015  -1.707  -3.412  0.00  0.00     0.053 A 
ATOM      6  C6  <0> d          -0.729  -0.870  -2.581  0.00  0.00     0.148 A 
ATOM      7  N1  <0> d          -0.731  -1.024  -1.276  0.00  0.00    -0.239 NA
ATOM      8  C7  <0> d          -0.026  -1.981  -0.685  0.00  0.00     0.157 A 
ATOM      9  N2  <0> d           0.145  -2.353   0.622  0.00  0.00    -0.256 N 
ATOM     10  N3  <0> d           1.006  -3.453   0.679  0.00  0.00    -0.175 NA
ATOM     11  C8  <0> d          -0.480  -1.705   1.778  0.00  0.00     0.182 C 
ENDROOT
BRANCH   5  12
ATOM     12  N4  <0> d           0.000  -1.520  -4.801  0.00  0.00    -0.324 N 
ATOM     13  C9  <0> d           0.113  -2.581  -5.625  0.00  0.00     0.245 C 
ATOM     14  O1  <0> d           0.131  -3.704  -5.168  0.00  0.00    -0.271 OA
ATOM     15  H9  <0> d          -0.091  -0.628  -5.170  0.00  0.00     0.169 HD
BRANCH  13  16
ATOM     16  C10 <0> d           0.216  -2.372  -7.114  0.00  0.00     0.271 C 
BRANCH  16  17
ATOM     17  O2  <0> d           0.325  -3.638  -7.766  0.00  0.00    -0.377 OA
BRANCH  17  18
ATOM     18  C11 <0> d           0.429  -3.552  -9.189  0.00  0.00     0.122 C 
ATOM     19  C15 <0> d           1.252  -4.734  -9.730  0.00  0.00     0.032 C 
ATOM     20  C14 <0> d           0.323  -5.519 -10.680  0.00  0.00     0.002 C 
ATOM     21  C13 <0> d          -0.735  -4.478 -11.122  0.00  0.00     0.002 C 
ATOM     22  C12 <0> d          -0.971  -3.659  -9.829  0.00  0.00     0.032 C 
ENDBRANCH  17  18
ENDBRANCH  16  17
ENDBRANCH  13  16
ENDBRANCH   5  12
TORSDOF 4
