REMARK  3 active torsions:
REMARK  status: ('A' for Active; 'I' for Inactive)
REMARK    1  A    between atoms: C4_4  and  C6_8 
REMARK       I    between atoms: C6_8  and  N3_10 
REMARK    2  A    between atoms: C7_11  and  C11_16 
REMARK    3  A    between atoms: C7_11  and  O2_20 
ROOT
ATOM      1  C6  <0> d           3.486   1.188  -0.025  0.00  0.00     0.297 C 
ATOM      2  O1  <0> d           4.257   0.251   0.052  0.00  0.00    -0.264 OA
ATOM      3  N3  <0> d           2.156   0.969  -0.012  0.00  0.00    -0.187 N 
ATOM      4  C7  <0> d           1.504  -0.351  -0.019  0.00  0.00     0.261 A 
ATOM      5  C8  <0> d           0.001  -0.003   0.002  0.00  0.00     0.129 A 
ATOM      6  C9  <0> d          -0.019   1.509   0.018  0.00  0.00     0.034 A 
ATOM      7  N4  <0> d           1.170   1.954   0.009  0.00  0.00    -0.176 NA
ATOM      8  C10 <0> d          -1.263   2.359   0.035  0.00  0.00     0.067 C 
ENDROOT
BRANCH   1   9
ATOM      9  C4  <0> d           4.003   2.560  -0.134  0.00  0.00     0.145 A 
ATOM     10  C3  <0> d           4.472   3.357   0.898  0.00  0.00     0.093 A 
ATOM     11  C2  <0> d           4.849   4.560   0.295  0.00  0.00     0.075 A 
ATOM     12 Cl1  <0> d           4.570   2.948   2.583  0.00  0.00    -0.079 Cl
ATOM     13  C1  <0> d           5.426   5.762   0.997  0.00  0.00     0.074 C 
ATOM     14  N2  <0> d           4.613   4.457  -0.988  0.00  0.00    -0.176 NA
ATOM     15  N1  <0> d           4.125   3.304  -1.275  0.00  0.00    -0.267 N 
ATOM     16  C5  <0> d           3.752   2.856  -2.619  0.00  0.00     0.180 C 
ENDBRANCH   1   9
BRANCH   4  17
ATOM     17  C11 <0> d           1.861  -1.123  -1.290  0.00  0.00     0.440 C 
ATOM     18  F1  <0> d           1.563  -0.341  -2.411  0.00  0.00    -0.166 F 
ATOM     19  F2  <0> d           3.227  -1.426  -1.283  0.00  0.00    -0.166 F 
ATOM     20  F3  <0> d           1.121  -2.310  -1.339  0.00  0.00    -0.166 F 
ENDBRANCH   4  17
BRANCH   4  21
ATOM     21  O2  <0> d           1.864  -1.097   1.145  0.00  0.00    -0.362 OA
ATOM     22  H12 <0> d           2.799  -1.342   1.181  0.00  0.00     0.213 HD
ENDBRANCH   4  21
TORSDOF 3
