REMARK  6 active torsions:
REMARK  status: ('A' for Active; 'I' for Inactive)
REMARK    1  A    between atoms: C6_7  and  C9_10 
REMARK    2  A    between atoms: C9_10  and  N2_11 
REMARK    3  A    between atoms: C13_15  and  C15_17 
REMARK    4  A    between atoms: C15_17  and  N3_18 
REMARK    5  A    between atoms: C17_20  and  C18_23 
REMARK    6  A    between atoms: C18_23  and  O1_28 
ROOT
ATOM      1  N2  <0> d           0.371  -3.559  -1.408  0.00  0.00    -0.067 N 
ATOM      2  C10 <0> d           1.561  -4.138  -2.044  0.00  0.00     0.235 C 
ATOM      3  C11 <0> d           1.258  -4.454  -3.510  0.00  0.00     0.028 C 
ATOM      4  C12 <0> d           0.102  -5.455  -3.582  0.00  0.00     0.010 C 
ATOM      5  C13 <0> d          -1.111  -4.872  -2.851  0.00  0.00     0.031 C 
ATOM      6  C14 <0> d          -0.720  -4.540  -1.409  0.00  0.00     0.241 C 
ATOM      7  H31 <0> d           0.085  -2.738  -1.920  0.00  0.00     0.280 HD
ENDROOT
BRANCH   5   8
ATOM      8  C15 <0> d          -2.248  -5.896  -2.850  0.00  0.00     0.158 C 
BRANCH   8   9
ATOM      9  N3  <0> d          -2.699  -6.127  -4.225  0.00  0.00    -0.260 N 
ATOM     10  N5  <0> d          -3.094  -5.222  -5.051  0.00  0.00    -0.066 NA
ATOM     11  N4  <0> d          -3.417  -5.758  -6.175  0.00  0.00    -0.132 NA
ATOM     12  C17 <0> d          -3.237  -7.081  -6.091  0.00  0.00     0.109 A 
ATOM     13  C16 <0> d          -2.776  -7.328  -4.843  0.00  0.00     0.146 A 
BRANCH  12  14
ATOM     14  C18 <0> d          -3.497  -8.097  -7.174  0.00  0.00     0.105 C 
ATOM     15  C22 <0> d          -4.016  -7.395  -8.441  0.00  0.00     0.044 C 
ATOM     16  C21 <0> d          -2.997  -7.695  -9.560  0.00  0.00     0.004 C 
ATOM     17  C20 <0> d          -2.299  -8.998  -9.098  0.00  0.00     0.004 C 
ATOM     18  C19 <0> d          -2.180  -8.799  -7.567  0.00  0.00     0.044 C 
BRANCH  14  19
ATOM     19  O1  <0> d          -4.450  -9.060  -6.722  0.00  0.00    -0.383 OA
ATOM     20  H29 <0> d          -4.176  -9.545  -5.931  0.00  0.00     0.211 HD
ENDBRANCH  14  19
ENDBRANCH  12  14
ENDBRANCH   8   9
ENDBRANCH   5   8
BRANCH   1  21
ATOM     21  C9  <0> d           0.691  -3.186  -0.024  0.00  0.00     0.271 C 
BRANCH  21  22
ATOM     22  C6  <0> d           1.709  -2.075  -0.025  0.00  0.00    -0.024 A 
ATOM     23  C5  <0> d           1.438  -0.593  -0.164  0.00  0.00     0.156 A 
ATOM     24  N1  <0> d           2.749   0.062  -0.105  0.00  0.00    -0.385 N 
ATOM     25  C4  <0> d           3.671  -0.858   0.045  0.00  0.00     0.038 A 
ATOM     26  H30 <0> d           2.908   1.018  -0.166  0.00  0.00     0.160 HD
ATOM     27  C3  <0> d           5.086  -0.772   0.159  0.00  0.00     0.030 A 
ATOM     28  C7  <0> d           3.050  -2.201   0.098  0.00  0.00    -0.004 A 
ATOM     29  C2  <0> d           5.827  -1.889   0.310  0.00  0.00     0.002 A 
ATOM     30  C1  <0> d           5.263  -3.171   0.362  0.00  0.00     0.001 A 
ATOM     31  C8  <0> d           3.928  -3.365   0.264  0.00  0.00     0.014 A 
ENDBRANCH  21  22
ENDBRANCH   1  21
TORSDOF 6
