REMARK  5 active torsions:
REMARK  status: ('A' for Active; 'I' for Inactive)
REMARK    1  A    between atoms: O1_2  and  C2_3 
REMARK    2  A    between atoms: C2_3  and  C3_5 
REMARK       I    between atoms: N1_8  and  C8_11 
REMARK    3  A    between atoms: C8_11  and  C9_13 
REMARK    4  A    between atoms: C9_13  and  N2_14 
REMARK    5  A    between atoms: N2_14  and  C10_15 
ROOT
ATOM      1  C3  <0> d          -1.244  -2.135   0.003  0.00  0.00     0.088 C 
ATOM      2  C4  <0> d          -0.553  -2.666  -1.256  0.00  0.00     0.034 C 
ATOM      3  C5  <0> d          -0.584  -4.198  -1.243  0.00  0.00     0.126 C 
ATOM      4  N1  <0> d          -1.976  -4.641  -1.086  0.00  0.00    -0.351 N 
ATOM      5  C6  <0> d          -2.761  -4.120   0.041  0.00  0.00     0.126 C 
ATOM      6  C7  <0> d          -2.705  -2.589   0.014  0.00  0.00     0.034 C 
ATOM      7  C8  <0> d          -2.522  -5.510  -1.960  0.00  0.00     0.239 C 
ATOM      8  O3  <0> d          -1.864  -5.933  -2.886  0.00  0.00    -0.271 OA
ENDROOT
BRANCH   7   9
ATOM      9  C9  <0> d          -3.951  -5.956  -1.785  0.00  0.00     0.254 C 
BRANCH   9  10
ATOM     10  N2  <0> d          -4.305  -6.892  -2.854  0.00  0.00    -0.260 NA
BRANCH  10  11
ATOM     11  C10 <0> d          -5.564  -7.435  -2.903  0.00  0.00     0.177 C 
ATOM     12  C13 <0> d          -6.006  -8.384  -3.942  0.00  0.00     0.129 C 
ATOM     13  C12 <0> d          -7.468  -8.382  -4.387  0.00  0.00     0.289 C 
ATOM     14  N5  <0> d          -5.451  -9.323  -4.609  0.00  0.00    -0.239 NA
ATOM     15  N4  <0> d          -8.239  -8.316  -3.146  0.00  0.00    -0.226 NA
ATOM     16  N6  <0> d          -7.593  -9.644  -5.112  0.00  0.00    -0.249 NA
ATOM     17  C11 <0> d          -7.734  -7.721  -2.108  0.00  0.00     0.223 C 
ATOM     18  N3  <0> d          -6.524  -7.156  -2.017  0.00  0.00    -0.197 NA
ATOM     19 Cl1  <0> d          -8.733  -7.652  -0.690  0.00  0.00    -0.041 Cl
ATOM     20  C14 <0> d          -6.369 -10.103  -5.216  0.00  0.00     0.230 C 
ENDBRANCH  10  11
ENDBRANCH   9  10
ENDBRANCH   7   9
BRANCH   1  21
ATOM     21  C2  <0> d          -1.185  -0.630   0.010  0.00  0.00     0.262 C 
ATOM     22  O2  <0> d          -2.208   0.015   0.023  0.00  0.00    -0.265 OA
BRANCH  21  23
ATOM     23  O1  <0> d           0.002  -0.004   0.002  0.00  0.00    -0.326 OA
ATOM     24  C1  <0> d          -0.017   1.425   0.010  0.00  0.00     0.213 C 
ENDBRANCH  21  23
ENDBRANCH   1  21
TORSDOF 5
