REMARK  2 active torsions:
REMARK  status: ('A' for Active; 'I' for Inactive)
REMARK    1  A    between atoms: C4_4  and  C9_12 
REMARK       I    between atoms: C9_12  and  N3_14 
REMARK    2  A    between atoms: C12_17  and  C15_20 
ROOT
ATOM      1  C9  <0> d          -0.017  -2.808  -2.458  0.00  0.00     0.254 C 
ATOM      2  O2  <0> d           0.074  -4.019  -2.459  0.00  0.00    -0.267 OA
ATOM      3  N3  <0> d          -0.143  -2.140  -3.622  0.00  0.00    -0.348 N 
ATOM      4  C10 <0> d          -0.160  -0.671  -3.645  0.00  0.00     0.127 C 
ATOM      5  C11 <0> d          -1.414  -0.204  -4.390  0.00  0.00     0.029 C 
ATOM      6  C12 <0> d          -1.451  -0.855  -5.775  0.00  0.00     0.020 C 
ATOM      7  C13 <0> d          -1.518  -2.376  -5.624  0.00  0.00     0.029 C 
ATOM      8  C14 <0> d          -0.259  -2.868  -4.893  0.00  0.00     0.127 C 
ENDROOT
BRANCH   1   9
ATOM      9  C4  <0> d           0.010  -2.064  -1.177  0.00  0.00     0.046 A 
ATOM     10  C3  <0> d           0.915  -1.015  -0.971  0.00  0.00     0.044 A 
ATOM     11  C2  <0> d           0.899  -0.351   0.239  0.00  0.00     0.034 A 
ATOM     12  C1  <0> d           1.865   0.782   0.473  0.00  0.00     0.070 C 
ATOM     13  N1  <0> d           0.061  -0.692   1.196  0.00  0.00    -0.228 NA
ATOM     14  C6  <0> d          -0.816  -1.677   1.051  0.00  0.00     0.194 A 
ATOM     15  C5  <0> d          -0.864  -2.386  -0.144  0.00  0.00     0.032 A 
ATOM     16  O1  <0> d          -1.736  -2.171   1.924  0.00  0.00    -0.243 OA
ATOM     17  C7  <0> d          -1.956  -3.425  -0.014  0.00  0.00     0.118 C 
ATOM     18  N2  <0> d          -2.727  -2.948   1.162  0.00  0.00    -0.189 NA
ATOM     19  C8  <0> d          -2.835  -3.446  -1.266  0.00  0.00     0.033 C 
ATOM     20  H6  <0> d          -3.074  -3.724   1.706  0.00  0.00     0.155 HD
ENDBRANCH   1   9
BRANCH   6  21
ATOM     21  C15 <0> d          -2.666  -0.371  -6.524  0.00  0.00    -0.046 A 
ATOM     22  C22 <0> d          -4.112  -0.535  -6.114  0.00  0.00     0.155 A 
ATOM     23  N4  <0> d          -4.905   0.105  -7.169  0.00  0.00    -0.385 N 
ATOM     24  C21 <0> d          -4.087   0.575  -8.080  0.00  0.00     0.038 A 
ATOM     25  H25 <0> d          -5.873   0.167  -7.192  0.00  0.00     0.160 HD
ATOM     26  C16 <0> d          -2.684   0.292  -7.703  0.00  0.00    -0.005 A 
ATOM     27  C20 <0> d          -4.324   1.272  -9.296  0.00  0.00     0.030 A 
ATOM     28  C17 <0> d          -1.618   0.745  -8.605  0.00  0.00     0.014 A 
ATOM     29  C18 <0> d          -1.954   1.401  -9.739  0.00  0.00     0.001 A 
ATOM     30  C19 <0> d          -3.290   1.658 -10.074  0.00  0.00     0.002 A 
ENDBRANCH   6  21
TORSDOF 2
