REMARK  4 active torsions:
REMARK  status: ('A' for Active; 'I' for Inactive)
REMARK    1  A    between atoms: C6_6  and  N1_8 
REMARK    2  A    between atoms: C13_17  and  S2_18 
REMARK    3  A    between atoms: S2_18  and  C14_19 
REMARK    4  A    between atoms: C14_19  and  C16_21 
REMARK       I    between atoms: C16_21  and  N3_23 
ROOT
ATOM      1  N1  <0> d           2.149   3.429  -0.006  0.00  0.00    -0.256 N 
ATOM      2  C8  <0> d           3.463   3.719  -0.013  0.00  0.00     0.268 A 
ATOM      3  O1  <0> d           3.840   4.878  -0.011  0.00  0.00    -0.267 OA
ATOM      4  C9  <0> d           4.411   2.648  -0.026  0.00  0.00     0.076 A 
ATOM      5  C10 <0> d           5.873   2.732  -0.039  0.00  0.00    -0.026 A 
ATOM      6  C11 <0> d           6.552   1.567  -0.051  0.00  0.00    -0.008 A 
ATOM      7  S1  <0> d           5.306   0.307  -0.046  0.00  0.00    -0.073 SA
ATOM      8  C12 <0> d           3.871   1.351  -0.028  0.00  0.00     0.117 A 
ATOM      9  N2  <0> d           2.561   1.131  -0.016  0.00  0.00    -0.216 NA
ATOM     10  C13 <0> d           1.708   2.135  -0.003  0.00  0.00     0.178 A 
ATOM     11  C17 <0> d           8.040   1.384  -0.065  0.00  0.00     0.051 C 
ATOM     12  C18 <0> d           8.689   2.724  -0.438  0.00  0.00    -0.014 C 
ATOM     13  C19 <0> d           8.055   3.831   0.410  0.00  0.00     0.009 C 
ATOM     14  C20 <0> d           6.613   4.067  -0.039  0.00  0.00     0.041 C 
ATOM     15  C21 <0> d          10.193   2.660  -0.163  0.00  0.00     0.010 C 
ENDROOT
BRANCH   1  16
ATOM     16  C6  <0> d           1.214   4.473   0.004  0.00  0.00     0.051 A 
ATOM     17  C5  <0> d           0.744   4.997  -1.193  0.00  0.00    -0.035 A 
ATOM     18  C4  <0> d          -0.181   6.022  -1.181  0.00  0.00     0.009 A 
ATOM     19  C22 <0> d           1.238   4.442  -2.505  0.00  0.00     0.050 C 
ATOM     20  C3  <0> d          -0.630   6.535   0.022  0.00  0.00     0.007 A 
ATOM     21  C2  <0> d          -0.160   6.020   1.216  0.00  0.00    -0.060 A 
ATOM     22  C1  <0> d          -0.652   6.582   2.524  0.00  0.00     0.048 C 
ATOM     23  C7  <0> d           0.761   4.991   1.210  0.00  0.00     0.037 A 
ENDBRANCH   1  16
BRANCH  10  24
ATOM     24  S2  <0> d          -0.022   1.806   0.012  0.00  0.00    -0.077 SA
BRANCH  24  25
ATOM     25  C14 <0> d           0.002  -0.004   0.002  0.00  0.00     0.143 C 
ATOM     26  C15 <0> d           0.606  -0.499  -1.314  0.00  0.00     0.031 C 
BRANCH  25  27
ATOM     27  C16 <0> d          -1.405  -0.526   0.137  0.00  0.00     0.229 C 
ATOM     28  O2  <0> d          -2.342   0.158  -0.216  0.00  0.00    -0.272 OA
ATOM     29  N3  <0> d          -1.622  -1.754   0.648  0.00  0.00    -0.369 N 
ATOM     30  H12 <0> d          -0.873  -2.302   0.930  0.00  0.00     0.159 HD
ATOM     31  H13 <0> d          -2.528  -2.090   0.735  0.00  0.00     0.159 HD
ENDBRANCH  25  27
ENDBRANCH  24  25
ENDBRANCH  10  24
TORSDOF 4
