REMARK  4 active torsions:
REMARK  status: ('A' for Active; 'I' for Inactive)
REMARK    1  A    between atoms: C4_4  and  N3_23 
REMARK    2  A    between atoms: C8_8  and  N1_11 
REMARK       I    between atoms: N1_11  and  C11_12 
REMARK    3  A    between atoms: C11_12  and  C12_14 
REMARK    4  A    between atoms: C17_19  and  N2_20 
ROOT
ATOM      1  C1  <0> d           5.880   3.827  -2.497  0.00  0.00     0.049 C 
ATOM      2  C2  <0> d           5.983   2.349  -2.221  0.00  0.00    -0.046 A 
ATOM      3  C3  <0> d           7.173   1.696  -2.346  0.00  0.00     0.050 A 
ATOM      4  C4  <0> d           7.245   0.321  -2.083  0.00  0.00     0.083 A 
ATOM      5  C5  <0> d           4.990   0.219  -1.575  0.00  0.00     0.044 A 
ATOM      6  C6  <0> d           4.852   1.606  -1.826  0.00  0.00    -0.001 A 
ATOM      7  C7  <0> d           3.598   2.217  -1.679  0.00  0.00     0.043 A 
ATOM      8  C8  <0> d           2.514   1.459  -1.291  0.00  0.00     0.035 A 
ATOM      9  C9  <0> d           2.659   0.090  -1.040  0.00  0.00     0.032 A 
ATOM     10  C10 <0> d           3.864  -0.524  -1.181  0.00  0.00     0.033 A 
ATOM     11  N4  <0> d           6.192  -0.443  -1.702  0.00  0.00    -0.346 N 
ATOM     12  H24 <0> d           6.284  -1.449  -1.518  0.00  0.00     0.167 HD
ENDROOT
BRANCH   8  13
ATOM     13  N1  <0> d           1.262   2.063  -1.143  0.00  0.00    -0.323 N 
ATOM     14  C11 <0> d           0.141   1.373  -1.436  0.00  0.00     0.258 C 
ATOM     15  O1  <0> d           0.222   0.260  -1.919  0.00  0.00    -0.267 OA
ATOM     16  H8  <0> d           1.199   2.978  -0.828  0.00  0.00     0.169 HD
BRANCH  14  17
ATOM     17  C12 <0> d          -1.185   1.972  -1.177  0.00  0.00     0.065 A 
ATOM     18  C17 <0> d          -2.124   1.288  -0.404  0.00  0.00     0.118 A 
ATOM     19  C16 <0> d          -3.360   1.853  -0.166  0.00  0.00     0.037 A 
ATOM     20  C15 <0> d          -3.669   3.095  -0.692  0.00  0.00     0.002 A 
ATOM     21  C14 <0> d          -2.743   3.779  -1.460  0.00  0.00     0.001 A 
ATOM     22  C13 <0> d          -1.501   3.227  -1.700  0.00  0.00     0.020 A 
BRANCH  18  23
ATOM     23  N2  <0> d          -1.795  -0.040   0.160  0.00  0.00    -0.115 N 
ATOM     24  O2  <0> d          -2.653  -0.689   0.731  0.00  0.00    -0.532 OA
ATOM     25  O3  <0> d          -0.665  -0.484   0.054  0.00  0.00    -0.532 OA
ENDBRANCH  18  23
ENDBRANCH  14  17
ENDBRANCH   8  13
BRANCH   4  26
ATOM     26  N3  <0> d           8.463  -0.331  -2.215  0.00  0.00    -0.266 NA
ATOM     27  C21 <0> d           8.333  -1.760  -1.898  0.00  0.00     0.124 C 
ATOM     28  C20 <0> d           9.710  -2.425  -1.977  0.00  0.00     0.249 C 
ATOM     29  N5  <0> d          10.247  -2.246  -3.343  0.00  0.00    -0.073 N 
ATOM     30  C19 <0> d          10.395  -0.807  -3.642  0.00  0.00     0.249 C 
ATOM     31  C22 <0> d          11.554  -2.925  -3.464  0.00  0.00     0.269 C 
ATOM     32  H25 <0> d           9.592  -2.661  -4.016  0.00  0.00     0.279 HD
ATOM     33  C18 <0> d           9.019  -0.142  -3.563  0.00  0.00     0.124 C 
ENDBRANCH   4  26
TORSDOF 4
