REMARK  7 active torsions:
REMARK  status: ('A' for Active; 'I' for Inactive)
REMARK    1  A    between atoms: N1_2  and  C3_4 
REMARK    2  A    between atoms: C6_7  and  N3_22 
REMARK    3  A    between atoms: C8_9  and  C9_10 
REMARK    4  A    between atoms: C9_10  and  N2_11 
REMARK    5  A    between atoms: N2_11  and  C10_12 
REMARK    6  A    between atoms: N2_11  and  S1_18 
REMARK    7  A    between atoms: C10_12  and  C11_13 
ROOT
ATOM      1  C3  <0> d           0.937  -0.593   1.529  0.00  0.00     0.018 A 
ATOM      2  C4  <0> d           1.324  -0.734   2.856  0.00  0.00     0.026 A 
ATOM      3  C5  <0> d           1.137   0.307   3.744  0.00  0.00     0.031 A 
ATOM      4  C6  <0> d           0.566   1.496   3.309  0.00  0.00     0.026 A 
ATOM      5  C7  <0> d           0.184   1.639   1.982  0.00  0.00     0.039 A 
ATOM      6  C8  <0> d           0.371   0.598   1.094  0.00  0.00    -0.016 A 
ENDROOT
BRANCH   6   7
ATOM      7  C9  <0> d          -0.045   0.752  -0.346  0.00  0.00     0.175 C 
BRANCH   7   8
ATOM      8  N2  <0> d          -0.761   2.019  -0.514  0.00  0.00    -0.304 N 
BRANCH   8   9
ATOM      9  C10 <0> d          -0.015   3.258  -0.744  0.00  0.00     0.167 C 
BRANCH   9  10
ATOM     10  C11 <0> d           0.290   3.401  -2.237  0.00  0.00     0.140 C 
ATOM     11  O1  <0> d           1.117   2.310  -2.673  0.00  0.00    -0.384 OA
ATOM     12  C14 <0> d           1.996   2.830  -3.694  0.00  0.00     0.168 C 
ATOM     13  C13 <0> d           2.391   4.228  -3.154  0.00  0.00     0.029 C 
ATOM     14  C12 <0> d           1.075   4.702  -2.489  0.00  0.00     0.036 C 
ENDBRANCH   9  10
ENDBRANCH   8   9
BRANCH   8  15
ATOM     15  S1  <0> d          -2.416   2.049  -0.451  0.00  0.00     0.225 S 
ATOM     16  O2  <0> d          -2.793   3.100  -1.330  0.00  0.00    -0.206 OA
ATOM     17  O3  <0> d          -2.813   0.710  -0.712  0.00  0.00    -0.206 OA
ATOM     18  C15 <0> d          -2.809   2.495   1.262  0.00  0.00     0.186 C 
ENDBRANCH   8  15
ENDBRANCH   7   8
ENDBRANCH   6   7
BRANCH   1  19
ATOM     19  N1  <0> d           1.121  -1.650   0.630  0.00  0.00    -0.291 NA
ATOM     20  C1  <0> d           2.543  -2.005   0.520  0.00  0.00     0.116 C 
ATOM     21  C2  <0> d           0.316  -2.816   1.016  0.00  0.00     0.116 C 
ENDBRANCH   1  19
BRANCH   4  22
ATOM     22  N3  <0> d           0.377   2.551   4.210  0.00  0.00    -0.399 N 
ATOM     23  H24 <0> d          -0.022   3.382   3.907  0.00  0.00     0.156 HD
ATOM     24  H25 <0> d           0.644   2.451   5.137  0.00  0.00     0.156 HD
ENDBRANCH   4  22
TORSDOF 7
