REMARK  4 active torsions:
REMARK  status: ('A' for Active; 'I' for Inactive)
REMARK    1  A    between atoms: C4_4  and  N2_7 
REMARK       I    between atoms: N2_7  and  C5_8 
REMARK    2  A    between atoms: C5_8  and  C6_10 
REMARK       I    between atoms: N3_13  and  C11_16 
REMARK    3  A    between atoms: C11_16  and  C12_18 
REMARK    4  A    between atoms: C12_18  and  C13_19 
ROOT
ATOM      1  C6  <0> d           4.013  -4.843  -2.062  0.00  0.00     0.081 C 
ATOM      2  C7  <0> d           2.823  -5.469  -2.792  0.00  0.00     0.034 C 
ATOM      3  C8  <0> d           3.286  -6.730  -3.529  0.00  0.00     0.126 C 
ATOM      4  N3  <0> d           3.943  -7.625  -2.567  0.00  0.00    -0.352 N 
ATOM      5  C9  <0> d           5.042  -7.097  -1.747  0.00  0.00     0.126 C 
ATOM      6  C10 <0> d           4.559  -5.832  -1.030  0.00  0.00     0.034 C 
ATOM      7  C11 <0> d           3.545  -8.906  -2.439  0.00  0.00     0.220 C 
ATOM      8  O3  <0> d           2.637  -9.330  -3.121  0.00  0.00    -0.273 OA
ENDROOT
BRANCH   7   9
ATOM      9  C12 <0> d           4.229  -9.812  -1.448  0.00  0.00     0.121 C 
BRANCH   9  10
ATOM     10  C13 <0> d           3.703 -11.239  -1.613  0.00  0.00     0.110 A 
ATOM     11  C21 <0> d           4.284 -12.080  -0.499  0.00  0.00     0.230 A 
ATOM     12  N4  <0> d           5.005 -13.149  -0.790  0.00  0.00    -0.326 N 
ATOM     13  O4  <0> d           4.088 -11.774   0.662  0.00  0.00    -0.272 OA
ATOM     14  C20 <0> d           5.256 -13.539  -2.040  0.00  0.00     0.044 A 
ATOM     15  H25 <0> d           5.368 -13.674  -0.060  0.00  0.00     0.169 HD
ATOM     16  C15 <0> d           4.744 -12.799  -3.206  0.00  0.00    -0.012 A 
ATOM     17  C19 <0> d           6.031 -14.689  -2.275  0.00  0.00     0.030 A 
ATOM     18  C14 <0> d           3.986 -11.678  -3.037  0.00  0.00     0.001 A 
ATOM     19  C16 <0> d           5.065 -13.292  -4.546  0.00  0.00     0.013 A 
ATOM     20  C17 <0> d           5.822 -14.413  -4.666  0.00  0.00     0.001 A 
ATOM     21  C18 <0> d           6.295 -15.095  -3.545  0.00  0.00     0.002 A 
ENDBRANCH   9  10
ENDBRANCH   7   9
BRANCH   1  22
ATOM     22  C5  <0> d           3.568  -3.584  -1.364  0.00  0.00     0.227 C 
ATOM     23  N2  <0> d           3.049  -2.565  -2.078  0.00  0.00    -0.313 N 
ATOM     24  H8  <0> d           2.962  -2.642  -3.041  0.00  0.00     0.170 HD
ATOM     25  O2  <0> d           3.677  -3.487  -0.160  0.00  0.00    -0.273 OA
BRANCH  23  26
ATOM     26  C4  <0> d           2.641  -1.410  -1.437  0.00  0.00     0.136 C 
ATOM     27  C3  <0> d           2.042  -0.187  -2.106  0.00  0.00     0.115 C 
ATOM     28  C2  <0> d           1.427   0.582  -0.912  0.00  0.00     0.158 C 
ATOM     29  C1  <0> d           1.605   2.092  -1.083  0.00  0.00     0.042 C 
ATOM     30  O1  <0> d           2.216   0.090   0.190  0.00  0.00    -0.249 OA
ATOM     31  N1  <0> d           2.704  -1.187  -0.170  0.00  0.00    -0.120 NA
ENDBRANCH  23  26
ENDBRANCH   1  22
TORSDOF 4
