REMARK  6 active torsions:
REMARK  status: ('A' for Active; 'I' for Inactive)
REMARK    1  A    between atoms: C2_2  and  O2_4 
REMARK    2  A    between atoms: O2_4  and  C3_5 
REMARK    3  A    between atoms: C6_8  and  N1_11 
REMARK    4  A    between atoms: C11_15  and  C22_30 
REMARK    5  A    between atoms: C22_30  and  C23_31 
REMARK    6  A    between atoms: C26_34  and  O6_37 
ROOT
ATOM      1  N1  <0> d          -0.007  -6.446  -1.932  0.00  0.00    -0.252 N 
ATOM      2  C9  <0> d           0.456  -7.073  -0.845  0.00  0.00     0.238 A 
ATOM      3  O3  <0> d           0.914  -6.528   0.136  0.00  0.00    -0.272 OA
ATOM      4  C10 <0> d           0.318  -8.567  -1.029  0.00  0.00     0.129 A 
ATOM      5  C11 <0> d          -0.735  -9.108  -0.040  0.00  0.00     0.240 C 
ATOM      6  N2  <0> d          -2.036  -8.954  -0.744  0.00  0.00     0.114 N 
ATOM      7  C12 <0> d          -1.729  -9.293  -2.146  0.00  0.00     0.279 A 
ATOM      8  C13 <0> d          -0.329  -8.697  -2.436  0.00  0.00     0.147 A 
ATOM      9  C14 <0> d          -0.475  -7.260  -2.885  0.00  0.00     0.239 A 
ATOM     10  O4  <0> d          -0.940  -6.902  -3.946  0.00  0.00    -0.272 OA
ATOM     11  C15 <0> d          -2.769  -8.753  -3.085  0.00  0.00     0.017 A 
ATOM     12  C16 <0> d          -3.230  -7.486  -3.363  0.00  0.00     0.012 A 
ATOM     13  C17 <0> d          -4.226  -7.302  -4.306  0.00  0.00     0.001 A 
ATOM     14  C18 <0> d          -4.757  -8.394  -4.968  0.00  0.00     0.002 A 
ATOM     15  C19 <0> d          -4.297  -9.665  -4.694  0.00  0.00     0.030 A 
ATOM     16  C20 <0> d          -3.295  -9.859  -3.747  0.00  0.00     0.044 A 
ATOM     17  N3  <0> d          -2.672 -11.028  -3.303  0.00  0.00    -0.324 N 
ATOM     18  C21 <0> d          -1.739 -10.782  -2.364  0.00  0.00     0.267 A 
ATOM     19  O5  <0> d          -1.043 -11.601  -1.802  0.00  0.00    -0.270 OA
ATOM     20  H11 <0> d          -2.729  -9.581  -0.364  0.00  0.00     0.318 HD
ATOM     21  H16 <0> d          -2.888 -11.915  -3.634  0.00  0.00     0.169 HD
ENDROOT
BRANCH   1  22
ATOM     22  C6  <0> d          -0.008  -5.049  -2.060  0.00  0.00     0.045 A 
ATOM     23  C5  <0> d          -0.819  -4.277  -1.239  0.00  0.00     0.033 A 
ATOM     24  C4  <0> d          -0.819  -2.902  -1.364  0.00  0.00     0.039 A 
ATOM     25  C3  <0> d          -0.009  -2.292  -2.311  0.00  0.00     0.079 A 
ATOM     26  C8  <0> d           0.797  -3.063  -3.135  0.00  0.00     0.039 A 
ATOM     27  C7  <0> d           0.802  -4.437  -3.007  0.00  0.00     0.033 A 
BRANCH  25  28
ATOM     28  O2  <0> d          -0.010  -0.938  -2.434  0.00  0.00    -0.279 OA
BRANCH  28  29
ATOM     29  C2  <0> d           0.691  -0.223  -1.539  0.00  0.00     0.260 C 
ATOM     30  C1  <0> d           0.812   1.271  -1.697  0.00  0.00     0.126 C 
ATOM     31  O1  <0> d           1.224  -0.777  -0.608  0.00  0.00    -0.265 OA
ENDBRANCH  28  29
ENDBRANCH  25  28
ENDBRANCH   1  22
BRANCH   5  32
ATOM     32  C22 <0> d          -0.467 -10.582   0.270  0.00  0.00     0.075 C 
BRANCH  32  33
ATOM     33  C23 <0> d           0.394 -10.688   1.502  0.00  0.00    -0.056 A 
ATOM     34  C28 <0> d          -0.195 -10.772   2.750  0.00  0.00     0.010 A 
ATOM     35  C27 <0> d           0.592 -10.875   3.881  0.00  0.00     0.037 A 
ATOM     36  C26 <0> d           1.975 -10.883   3.764  0.00  0.00     0.065 A 
ATOM     37  C25 <0> d           2.563 -10.793   2.511  0.00  0.00     0.037 A 
ATOM     38  C24 <0> d           1.772 -10.695   1.383  0.00  0.00     0.010 A 
BRANCH  36  39
ATOM     39  O6  <0> d           2.751 -10.979   4.875  0.00  0.00    -0.361 OA
ATOM     40  H23 <0> d           2.987 -10.126   5.266  0.00  0.00     0.217 HD
ENDBRANCH  36  39
ENDBRANCH  32  33
ENDBRANCH   5  32
TORSDOF 6
