REMARK  7 active torsions:
REMARK  status: ('A' for Active; 'I' for Inactive)
REMARK    1  A    between atoms: C2_2  and  C3_3 
REMARK    2  A    between atoms: C3_3  and  C4_4 
REMARK    3  A    between atoms: C4_4  and  N1_5 
REMARK    4  A    between atoms: C9_11  and  C10_14 
REMARK    5  A    between atoms: C12_16  and  O4_24 
REMARK    6  A    between atoms: C13_17  and  O3_22 
REMARK    7  A    between atoms: C14_18  and  O2_20 
ROOT
ATOM      1  N1  <0> d           5.502  -7.458  -2.534  0.00  0.00    -0.288 N 
ATOM      2  C5  <0> d           4.807  -6.753  -1.618  0.00  0.00     0.267 A 
ATOM      3  O1  <0> d           4.663  -7.172  -0.485  0.00  0.00    -0.267 OA
ATOM      4  C6  <0> d           4.226  -5.462  -2.027  0.00  0.00     0.126 A 
ATOM      5  C7  <0> d           3.502  -4.685  -1.143  0.00  0.00     0.044 C 
ATOM      6  C8  <0> d           2.861  -3.343  -1.451  0.00  0.00     0.085 C 
ATOM      7  C9  <0> d           2.548  -2.797  -0.037  0.00  0.00     0.115 C 
ATOM      8  N2  <0> d           2.471  -4.042   0.762  0.00  0.00    -0.231 NA
ATOM      9  N3  <0> d           3.240  -4.983   0.144  0.00  0.00    -0.324 N 
ATOM     10  C19 <0> d           4.446  -5.038  -3.422  0.00  0.00     0.287 A 
ATOM     11  O5  <0> d           3.993  -3.988  -3.834  0.00  0.00    -0.265 OA
ATOM     12  N4  <0> d           5.168  -5.845  -4.226  0.00  0.00    -0.180 NA
ATOM     13  C20 <0> d           5.668  -7.009  -3.786  0.00  0.00     0.206 A 
ATOM     14  S1  <0> d           6.565  -7.971  -4.881  0.00  0.00    -0.038 SA
ATOM     15  H13 <0> d           1.517  -4.356   0.851  0.00  0.00     0.147 HD
ATOM     16  H14 <0> d           3.576  -5.870   0.700  0.00  0.00     0.180 HD
ENDROOT
BRANCH   7  17
ATOM     17  C10 <0> d           1.232  -2.064  -0.021  0.00  0.00    -0.033 A 
ATOM     18  C15 <0> d           1.212  -0.682  -0.013  0.00  0.00     0.048 A 
ATOM     19  C14 <0> d           0.002  -0.004   0.002  0.00  0.00     0.104 A 
ATOM     20  C13 <0> d          -1.191  -0.716   0.015  0.00  0.00     0.135 A 
ATOM     21  C12 <0> d          -1.167  -2.106   0.002  0.00  0.00     0.104 A 
ATOM     22  C11 <0> d           0.047  -2.776  -0.013  0.00  0.00     0.048 A 
BRANCH  19  23
ATOM     23  O2  <0> d          -0.016   1.356   0.009  0.00  0.00    -0.353 OA
ATOM     24  C16 <0> d           1.248   2.022   0.001  0.00  0.00     0.210 C 
ENDBRANCH  19  23
BRANCH  20  25
ATOM     25  O3  <0> d          -2.380  -0.055   0.036  0.00  0.00    -0.351 OA
ATOM     26  C17 <0> d          -2.966   0.268  -1.227  0.00  0.00     0.210 C 
ENDBRANCH  20  25
BRANCH  21  27
ATOM     27  O4  <0> d          -2.332  -2.807   0.010  0.00  0.00    -0.353 OA
ATOM     28  C18 <0> d          -2.231  -4.233   0.001  0.00  0.00     0.210 C 
ENDBRANCH  21  27
ENDBRANCH   7  17
BRANCH   1  29
ATOM     29  C4  <0> d           6.089  -8.745  -2.153  0.00  0.00     0.135 C 
BRANCH  29  30
ATOM     30  C3  <0> d           5.082  -9.865  -2.422  0.00  0.00     0.020 C 
BRANCH  30  31
ATOM     31  C2  <0> d           5.695 -11.209  -2.023  0.00  0.00    -0.003 C 
ATOM     32  C1  <0> d           4.688 -12.329  -2.293  0.00  0.00     0.005 C 
ENDBRANCH  30  31
ENDBRANCH  29  30
ENDBRANCH   1  29
TORSDOF 7
