REMARK  5 active torsions:
REMARK  status: ('A' for Active; 'I' for Inactive)
REMARK    1  A    between atoms: C6_6  and  C7_7 
REMARK    2  A    between atoms: C7_7  and  C8_8 
REMARK    3  A    between atoms: C8_8  and  C9_9 
REMARK    4  A    between atoms: C8_8  and  N1_16 
REMARK    5  A    between atoms: C9_9  and  C10_10 
ROOT
ATOM      1  C8  <0> d          -1.745  -1.028  -1.429  0.00  0.00     0.192 C 
ENDROOT
BRANCH   1   2
ATOM      2  C7  <0> d          -1.293  -0.775   0.010  0.00  0.00     0.071 C 
BRANCH   2   3
ATOM      3  C6  <0> d           0.002  -0.004   0.002  0.00  0.00    -0.056 A 
ATOM      4  C1  <0> d          -0.017   1.378   0.010  0.00  0.00     0.008 A 
ATOM      5  C2  <0> d           1.171   2.086   0.002  0.00  0.00     0.019 A 
ATOM      6  C3  <0> d           2.378   1.411  -0.013  0.00  0.00     0.011 A 
ATOM      7  C4  <0> d           2.396   0.027  -0.021  0.00  0.00     0.019 A 
ATOM      8 Br2  <0> d           4.003   2.378  -0.024  0.00  0.00    -0.051 Br
ATOM      9  C5  <0> d           1.208  -0.679  -0.013  0.00  0.00     0.008 A 
ENDBRANCH   2   3
ENDBRANCH   1   2
BRANCH   1  10
ATOM     10  C9  <0> d          -2.991  -1.916  -1.424  0.00  0.00     0.079 C 
BRANCH  10  11
ATOM     11  C10 <0> d          -3.364  -2.267  -2.841  0.00  0.00    -0.014 A 
ATOM     12  S1  <0> d          -4.447  -1.400  -3.966  0.00  0.00    -0.105 SA
ATOM     13  C13 <0> d          -4.292  -2.501  -5.363  0.00  0.00     0.069 A 
ATOM     14  C12 <0> d          -3.445  -3.444  -4.884  0.00  0.00     0.018 A 
ATOM     15  C11 <0> d          -2.969  -3.324  -3.591  0.00  0.00     0.034 A 
ATOM     16 Br1  <0> d          -2.921  -4.903  -5.968  0.00  0.00    -0.051 Br
ENDBRANCH  10  11
ENDBRANCH   1  10
BRANCH   1  17
ATOM     17  N1  <0> d          -2.059   0.253  -2.076  0.00  0.00    -0.074 N 
ATOM     18  H12 <0> d          -1.238   0.838  -2.080  0.00  0.00     0.274 HD
ATOM     19  H13 <0> d          -2.357   0.086  -3.026  0.00  0.00     0.274 HD
ATOM     20  H14 <0> d          -2.799   0.714  -1.568  0.00  0.00     0.274 HD
ENDBRANCH   1  17
TORSDOF 5
