REMARK  3 active torsions:
REMARK  status: ('A' for Active; 'I' for Inactive)
REMARK    1  A    between atoms: C7_7  and  N1_8 
REMARK       I    between atoms: N1_8  and  C8_9 
REMARK    2  A    between atoms: C8_9  and  C9_11 
REMARK    3  A    between atoms: C9_11  and  N2_13 
ROOT
ATOM      1  C9  <0> d           4.979  -1.388   2.753  0.00  0.00     0.275 C 
ATOM      2  C10 <0> d           5.019  -1.140   4.262  0.00  0.00     0.050 C 
ENDROOT
BRANCH   1   3
ATOM      3  C8  <0> d           6.379  -1.332   2.197  0.00  0.00     0.253 C 
ATOM      4  N1  <0> d           7.285  -2.263   2.557  0.00  0.00    -0.325 N 
ATOM      5  H8  <0> d           6.984  -3.102   3.203  0.00  0.00     0.169 HD
ATOM      6  O1  <0> d           6.690  -0.450   1.426  0.00  0.00    -0.271 OA
BRANCH   4   7
ATOM      7  C7  <0> d           8.607  -2.163   2.110  0.00  0.00     0.040 A 
ATOM      8  C2  <0> d           9.651  -2.571   2.929  0.00  0.00    -0.034 A 
ATOM      9  C1  <0> d           9.361  -3.124   4.301  0.00  0.00     0.050 C 
ATOM     10  C3  <0> d          10.955  -2.476   2.483  0.00  0.00     0.032 A 
ATOM     11  C4  <0> d          11.222  -1.963   1.226  0.00  0.00     0.034 A 
ATOM     12  C5  <0> d          10.183  -1.550   0.410  0.00  0.00     0.026 A 
ATOM     13 Cl1  <0> d          12.862  -1.838   0.672  0.00  0.00    -0.084 Cl
ATOM     14  C6  <0> d           8.878  -1.649   0.849  0.00  0.00     0.032 A 
ENDBRANCH   4   7
ENDBRANCH   1   3
BRANCH   1  15
ATOM     15  N2  <0> d           4.155  -0.356   2.109  0.00  0.00    -0.058 N 
ATOM     16  C15 <0> d           2.727  -0.601   2.345  0.00  0.00     0.241 C 
ATOM     17  C14 <0> d           1.897   0.398   1.532  0.00  0.00     0.096 C 
ATOM     18  C13 <0> d           2.281   1.819   1.934  0.00  0.00     0.167 C 
ATOM     19  C12 <0> d           3.780   2.038   1.751  0.00  0.00     0.096 C 
ATOM     20  O3  <0> d           1.907   2.066   3.301  0.00  0.00    -0.353 OA
ATOM     21  O2  <0> d           1.540   2.774   1.156  0.00  0.00    -0.353 OA
ATOM     22  C11 <0> d           4.548   0.986   2.556  0.00  0.00     0.241 C 
ATOM     23  C17 <0> d           1.803   3.503   3.394  0.00  0.00     0.197 C 
ATOM     24  C16 <0> d           1.555   3.980   1.949  0.00  0.00     0.197 C 
ATOM     25  H24 <0> d           4.328  -0.410   1.024  0.00  0.00     0.280 HD
ENDBRANCH   1  15
TORSDOF 3
