REMARK  3 active torsions:
REMARK  status: ('A' for Active; 'I' for Inactive)
REMARK    1  A    between atoms: C6_7  and  N2_9 
REMARK       I    between atoms: N2_9  and  C8_10 
REMARK    2  A    between atoms: C8_10  and  C9_12 
REMARK    3  A    between atoms: C14_17  and  C15_18 
ROOT
ATOM      1  N2  <0> d           0.213   0.049   2.487  0.00  0.00    -0.354 N 
ATOM      2  C8  <0> d           0.259  -0.697   3.608  0.00  0.00     0.223 C 
ATOM      3  O1  <0> d           0.863  -1.749   3.612  0.00  0.00    -0.273 OA
ATOM      4  H15 <0> d          -0.270   0.891   2.484  0.00  0.00     0.162 HD
ENDROOT
BRANCH   1   5
ATOM      5  C6  <0> d           0.891  -0.410   1.272  0.00  0.00     0.114 C 
ATOM      6  C5  <0> d           0.219   0.212   0.041  0.00  0.00     0.013 C 
ATOM      7  C1  <0> d           0.349   1.738   0.138  0.00  0.00     0.034 C 
ATOM      8  C4  <0> d           0.970  -0.260  -1.210  0.00  0.00     0.034 C 
ATOM      9  C2  <0> d           1.834   2.103   0.207  0.00  0.00     0.235 C 
ATOM     10  N1  <0> d           2.652   0.888   0.160  0.00  0.00    -0.069 N 
ATOM     11  C7  <0> d           2.358   0.024   1.306  0.00  0.00     0.260 C 
ATOM     12  C3  <0> d           2.435   0.169  -1.098  0.00  0.00     0.235 C 
ATOM     13  H22 <0> d           3.624   1.156   0.203  0.00  0.00     0.280 HD
ENDBRANCH   1   5
BRANCH   2  14
ATOM     14  C9  <0> d          -0.439  -0.224   4.857  0.00  0.00     0.096 C 
ATOM     15  C14 <0> d          -1.863  -0.792   4.899  0.00  0.00     0.103 C 
ATOM     16  C13 <0> d          -1.780  -2.312   4.708  0.00  0.00     0.043 C 
ATOM     17  C12 <0> d          -0.754  -2.898   5.634  0.00  0.00    -0.030 C 
ATOM     18  C11 <0> d           0.162  -2.206   6.232  0.00  0.00    -0.030 C 
ATOM     19  C10 <0> d           0.321  -0.720   6.090  0.00  0.00     0.042 C 
BRANCH  15  20
ATOM     20  C15 <0> d          -2.685  -0.180   3.794  0.00  0.00     0.178 C 
ATOM     21  O2  <0> d          -3.595  -0.814   3.288  0.00  0.00    -0.648 OA
ATOM     22  O3  <0> d          -2.440   0.950   3.407  0.00  0.00    -0.648 OA
ENDBRANCH  15  20
ENDBRANCH   2  14
TORSDOF 3
