REMARK  6 active torsions:
REMARK  status: ('A' for Active; 'I' for Inactive)
REMARK    1  A    between atoms: C2_2  and  C3_3 
REMARK    2  A    between atoms: C2_2  and  N3_14 
REMARK       I    between atoms: C3_3  and  N1_5 
REMARK       I    between atoms: N1_5  and  C4_6 
REMARK       I    between atoms: C4_6  and  N2_8 
REMARK    3  A    between atoms: N2_8  and  C5_9 
REMARK    4  A    between atoms: C5_9  and  C6_10 
REMARK    5  A    between atoms: C9_17  and  C12_20 
REMARK       I    between atoms: C12_20  and  N4_22 
REMARK    6  A    between atoms: N4_22  and  C13_23 
ROOT
ATOM      1  C1  <0> d           0.013   1.317   0.773  0.00  0.00     0.050 C 
ATOM      2  C2  <0> d           0.002  -0.004   0.002  0.00  0.00     0.275 C 
ENDROOT
BRANCH   2   3
ATOM      3  C3  <0> d          -1.363  -0.635   0.105  0.00  0.00     0.256 C 
ATOM      4  O1  <0> d          -1.596  -1.435   0.985  0.00  0.00    -0.271 OA
ATOM      5  N1  <0> d          -2.324  -0.308  -0.782  0.00  0.00    -0.278 N 
ATOM      6  C4  <0> d          -3.545  -0.873  -0.690  0.00  0.00     0.323 C 
ATOM      7  H5  <0> d          -2.138   0.332  -1.486  0.00  0.00     0.173 HD
ATOM      8  O2  <0> d          -3.779  -1.675   0.192  0.00  0.00    -0.247 OA
ATOM      9  N2  <0> d          -4.506  -0.546  -1.577  0.00  0.00    -0.334 N 
ATOM     10  H6  <0> d          -4.320   0.094  -2.280  0.00  0.00     0.164 HD
BRANCH   9  11
ATOM     11  C5  <0> d          -5.833  -1.159  -1.477  0.00  0.00     0.241 C 
BRANCH  11  12
ATOM     12  C6  <0> d          -6.729  -0.621  -2.594  0.00  0.00     0.403 C 
ATOM     13  F1  <0> d          -6.164  -0.932  -3.836  0.00  0.00    -0.169 F 
ATOM     14  F2  <0> d          -7.996  -1.207  -2.499  0.00  0.00    -0.169 F 
ATOM     15  F3  <0> d          -6.846   0.767  -2.470  0.00  0.00    -0.169 F 
ENDBRANCH  11  12
ENDBRANCH   9  11
ENDBRANCH   2   3
BRANCH   2  16
ATOM     16  N3  <0> d           1.005  -0.912   0.573  0.00  0.00    -0.059 N 
ATOM     17  C11 <0> d           1.018  -2.167  -0.189  0.00  0.00     0.236 C 
ATOM     18  C10 <0> d           2.004  -3.147   0.451  0.00  0.00     0.042 C 
ATOM     19  C9  <0> d           3.405  -2.530   0.445  0.00  0.00     0.081 C 
ATOM     20  C8  <0> d           3.364  -1.186   1.179  0.00  0.00     0.042 C 
ATOM     21  C7  <0> d           2.328  -0.279   0.512  0.00  0.00     0.236 C 
ATOM     22  H24 <0> d           0.772  -1.107   1.536  0.00  0.00     0.280 HD
BRANCH  19  23
ATOM     23  C12 <0> d           4.367  -3.456   1.144  0.00  0.00     0.222 C 
ATOM     24  O3  <0> d           4.961  -3.081   2.132  0.00  0.00    -0.273 OA
ATOM     25  N4  <0> d           4.566  -4.703   0.671  0.00  0.00    -0.356 N 
ATOM     26  H18 <0> d           4.090  -5.003  -0.119  0.00  0.00     0.162 HD
BRANCH  25  27
ATOM     27  C13 <0> d           5.500  -5.603   1.351  0.00  0.00     0.084 A 
ATOM     28  C15 <0> d           5.281  -7.108   1.181  0.00  0.00     0.027 A 
ATOM     29  C14 <0> d           6.453  -6.422   0.478  0.00  0.00     0.027 A 
ENDBRANCH  25  27
ENDBRANCH  19  23
ENDBRANCH   2  16
TORSDOF 6
