REMARK  5 active torsions:
REMARK  status: ('A' for Active; 'I' for Inactive)
REMARK    1  A    between atoms: C2_2  and  C3_3 
REMARK    2  A    between atoms: C3_3  and  N1_4 
REMARK    3  A    between atoms: N1_4  and  C4_5 
REMARK    4  A    between atoms: C4_5  and  C5_6 
REMARK    5  A    between atoms: C4_5  and  C14_18 
ROOT
ATOM      1  C5  <0> d           1.555  -3.941  -2.422  0.00  0.00    -0.013 A 
ATOM      2  C6  <0> d           2.724  -4.547  -2.848  0.00  0.00     0.049 A 
ATOM      3  C7  <0> d           2.839  -5.926  -2.799  0.00  0.00     0.104 A 
ATOM      4  C8  <0> d           1.786  -6.695  -2.325  0.00  0.00     0.119 A 
ATOM      5  C9  <0> d           0.617  -6.086  -1.900  0.00  0.00     0.047 A 
ATOM      6  C10 <0> d           0.508  -4.706  -1.945  0.00  0.00     0.032 A 
ATOM      7 Br1  <0> d          -0.819  -7.132  -1.254  0.00  0.00    -0.048 Br
ATOM      8  O1  <0> d           1.910  -8.054  -2.280  0.00  0.00    -0.347 OA
ATOM      9  C11 <0> d           1.964  -8.718  -3.545  0.00  0.00     0.178 C 
ATOM     10  C12 <0> d           3.382  -8.718  -4.093  0.00  0.00     0.053 C 
ATOM     11  C13 <0> d           3.882  -7.316  -4.408  0.00  0.00     0.178 C 
ATOM     12  O2  <0> d           3.986  -6.536  -3.215  0.00  0.00    -0.348 OA
ENDROOT
BRANCH   1  13
ATOM     13  C4  <0> d           1.426  -2.440  -2.474  0.00  0.00     0.318 C 
BRANCH  13  14
ATOM     14  N1  <0> d           0.738  -1.966  -1.265  0.00  0.00    -0.057 N 
ATOM     15  H9  <0> d           1.226  -2.301  -0.447  0.00  0.00     0.278 HD
ATOM     16  H18 <0> d          -0.208  -2.316  -1.258  0.00  0.00     0.278 HD
BRANCH  14  17
ATOM     17  C3  <0> d           0.718  -0.497  -1.257  0.00  0.00     0.233 C 
BRANCH  17  18
ATOM     18  C2  <0> d           0.002  -0.004   0.002  0.00  0.00     0.023 C 
ATOM     19  C1  <0> d          -0.019   1.526   0.010  0.00  0.00     0.007 C 
ENDBRANCH  17  18
ENDBRANCH  14  17
ENDBRANCH  13  14
BRANCH  13  20
ATOM     20  C14 <0> d           0.630  -2.045  -3.691  0.00  0.00     0.209 C 
ATOM     21  O3  <0> d           1.200  -1.828  -4.747  0.00  0.00    -0.646 OA
ATOM     22  O4  <0> d          -0.583  -1.943  -3.620  0.00  0.00    -0.646 OA
ENDBRANCH  13  20
ENDBRANCH   1  13
TORSDOF 5
