REMARK  4 active torsions:
REMARK  status: ('A' for Active; 'I' for Inactive)
REMARK    1  A    between atoms: C2_2  and  C4_4 
REMARK    2  A    between atoms: C10_10  and  N2_21 
REMARK    3  A    between atoms: C11_11  and  C13_14 
REMARK    4  A    between atoms: C13_14  and  N1_15 
ROOT
ATOM      1  C4  <0> d          -1.403  -0.182  -0.408  0.00  0.00    -0.054 A 
ATOM      2  C5  <0> d          -2.196   0.137   0.678  0.00  0.00     0.010 A 
ATOM      3  C6  <0> d          -3.459  -0.406   0.792  0.00  0.00     0.038 A 
ATOM      4  C7  <0> d          -3.938  -1.276  -0.182  0.00  0.00     0.077 A 
ATOM      5  C8  <0> d          -3.141  -1.597  -1.267  0.00  0.00     0.009 A 
ATOM      6  C9  <0> d          -1.877  -1.041  -1.380  0.00  0.00     0.019 A 
ATOM      7  C10 <0> d          -3.616  -2.543  -2.339  0.00  0.00     0.261 C 
ATOM      8  C11 <0> d          -5.139  -2.681  -2.267  0.00  0.00     0.073 C 
ATOM      9  C12 <0> d          -5.532  -2.940  -0.807  0.00  0.00     0.184 C 
ATOM     10  O1  <0> d          -5.189  -1.787  -0.037  0.00  0.00    -0.350 OA
ENDROOT
BRANCH   8  11
ATOM     11  C13 <0> d          -5.593  -3.853  -3.140  0.00  0.00     0.244 C 
BRANCH  11  12
ATOM     12  N1  <0> d          -7.061  -3.901  -3.170  0.00  0.00    -0.071 N 
ATOM     13  C18 <0> d          -7.574  -2.712  -3.860  0.00  0.00     0.235 C 
ATOM     14  C17 <0> d          -9.104  -2.716  -3.823  0.00  0.00     0.028 C 
ATOM     15  C16 <0> d          -9.622  -3.977  -4.522  0.00  0.00     0.003 C 
ATOM     16  C15 <0> d          -9.021  -5.210  -3.840  0.00  0.00     0.028 C 
ATOM     17  C14 <0> d          -7.495  -5.112  -3.877  0.00  0.00     0.235 C 
ATOM     18  H29 <0> d          -7.415  -3.920  -2.226  0.00  0.00     0.279 HD
ENDBRANCH  11  12
ENDBRANCH   8  11
BRANCH   7  19
ATOM     19  N2  <0> d          -3.235  -2.020  -3.658  0.00  0.00     0.087 N 
ATOM     20  H27 <0> d          -2.233  -1.923  -3.732  0.00  0.00     0.313 HD
ATOM     21  H28 <0> d          -3.598  -2.603  -4.397  0.00  0.00     0.313 HD
ENDBRANCH   7  19
BRANCH   1  22
ATOM     22  C2  <0> d          -0.024   0.413  -0.535  0.00  0.00     0.010 C 
ATOM     23  C1  <0> d          -0.129   1.938  -0.584  0.00  0.00     0.015 C 
ATOM     24  C3  <0> d           0.823  -0.003   0.669  0.00  0.00     0.015 C 
ENDBRANCH   1  22
TORSDOF 4
