REMARK  7 active torsions:
REMARK  status: ('A' for Active; 'I' for Inactive)
REMARK    1  A    between atoms: N1_15  and  C20_26 
REMARK    2  A    between atoms: C12_16  and  C13_17 
REMARK    3  A    between atoms: C16_20  and  O5_25 
REMARK    4  A    between atoms: C17_21  and  O4_23 
REMARK    5  A    between atoms: C20_26  and  C21_27 
REMARK    6  A    between atoms: C21_27  and  C22_28 
REMARK    7  A    between atoms: C22_28  and  N2_32 
ROOT
ATOM      1  C1  <0> d           3.908  -5.385  10.172  0.00  0.00     0.048 C 
ATOM      2  C2  <0> d           3.877  -4.912   8.742  0.00  0.00    -0.061 A 
ATOM      3  C3  <0> d           5.057  -4.831   8.016  0.00  0.00     0.009 A 
ATOM      4  C4  <0> d           5.052  -4.401   6.707  0.00  0.00     0.039 A 
ATOM      5  C5  <0> d           3.852  -4.042   6.099  0.00  0.00     0.090 A 
ATOM      6  C6  <0> d           2.662  -4.127   6.843  0.00  0.00     0.049 A 
ATOM      7  C7  <0> d           2.686  -4.564   8.166  0.00  0.00     0.025 A 
ATOM      8  C8  <0> d           1.401  -3.742   6.181  0.00  0.00     0.196 A 
ATOM      9  O1  <0> d           0.332  -3.791   6.763  0.00  0.00    -0.287 OA
ATOM     10  C9  <0> d           1.498  -3.298   4.787  0.00  0.00     0.060 A 
ATOM     11  C10 <0> d           2.706  -3.259   4.174  0.00  0.00     0.156 A 
ATOM     12  O2  <0> d           3.831  -3.620   4.822  0.00  0.00    -0.303 OA
ATOM     13  C11 <0> d           2.508  -2.783   2.782  0.00  0.00     0.279 A 
ATOM     14  O3  <0> d           3.395  -2.640   1.964  0.00  0.00    -0.265 OA
ATOM     15  N1  <0> d           1.207  -2.530   2.558  0.00  0.00    -0.333 N 
ATOM     16  C12 <0> d           0.469  -2.835   3.789  0.00  0.00     0.161 A 
ENDROOT
BRANCH  16  17
ATOM     17  C13 <0> d          -0.227  -1.598   4.297  0.00  0.00    -0.028 A 
ATOM     18  C18 <0> d          -1.504  -1.690   4.819  0.00  0.00     0.049 A 
ATOM     19  C17 <0> d          -2.144  -0.553   5.286  0.00  0.00     0.101 A 
ATOM     20  C16 <0> d          -1.499   0.679   5.229  0.00  0.00     0.099 A 
ATOM     21  C15 <0> d          -0.219   0.763   4.705  0.00  0.00     0.040 A 
ATOM     22  C14 <0> d           0.416  -0.375   4.245  0.00  0.00     0.012 A 
BRANCH  19  23
ATOM     23  O4  <0> d          -3.400  -0.641   5.799  0.00  0.00    -0.353 OA
ATOM     24  C19 <0> d          -4.001  -1.938   5.825  0.00  0.00     0.210 C 
ENDBRANCH  19  23
BRANCH  20  25
ATOM     25  O5  <0> d          -2.123   1.797   5.686  0.00  0.00    -0.358 OA
ATOM     26  H14 <0> d          -1.965   1.980   6.622  0.00  0.00     0.217 HD
ENDBRANCH  20  25
ENDBRANCH  16  17
BRANCH  15  27
ATOM     27  C20 <0> d           0.628  -2.043   1.303  0.00  0.00     0.129 C 
BRANCH  27  28
ATOM     28  C21 <0> d           0.607  -0.513   1.312  0.00  0.00     0.048 C 
BRANCH  28  29
ATOM     29  C22 <0> d           0.002  -0.004   0.002  0.00  0.00     0.235 C 
BRANCH  29  30
ATOM     30  N2  <0> d          -0.030   1.473   0.034  0.00  0.00    -0.079 N 
ATOM     31  C23 <0> d           1.346   2.010  -0.000  0.00  0.00     0.269 C 
ATOM     32  C24 <0> d          -0.802   1.987  -1.117  0.00  0.00     0.269 C 
ATOM     33  H27 <0> d          -0.486   1.778   0.903  0.00  0.00     0.278 HD
ENDBRANCH  29  30
ENDBRANCH  28  29
ENDBRANCH  27  28
ENDBRANCH  15  27
TORSDOF 7
