REMARK  5 active torsions:
REMARK  status: ('A' for Active; 'I' for Inactive)
REMARK    1  A    between atoms: C3_3  and  C5_5 
REMARK    2  A    between atoms: C5_5  and  N5_25 
REMARK    3  A    between atoms: C9_11  and  C12_15 
REMARK    4  A    between atoms: C12_15  and  N4_16 
REMARK       I    between atoms: N4_16  and  C13_17 
REMARK    5  A    between atoms: C13_17  and  C14_19 
ROOT
ATOM      1  C6  <0> d           7.819  -3.671   3.627  0.00  0.00     0.243 C 
ATOM      2  C7  <0> d           8.385  -3.985   2.239  0.00  0.00     0.108 C 
ATOM      3  C8  <0> d           7.535  -3.300   1.200  0.00  0.00     0.131 A 
ATOM      4  N1  <0> d           7.070  -3.802   0.094  0.00  0.00    -0.135 NA
ATOM      5  N2  <0> d           6.408  -2.900  -0.543  0.00  0.00    -0.133 NA
ATOM      6  C9  <0> d           6.420  -1.782   0.135  0.00  0.00     0.148 A 
ATOM      7  N3  <0> d           7.127  -2.008   1.262  0.00  0.00    -0.317 N 
ATOM      8  C10 <0> d           7.382  -1.077   2.362  0.00  0.00     0.159 C 
ATOM      9  C11 <0> d           8.689  -1.470   3.058  0.00  0.00     0.255 C 
ATOM     10  N5  <0> d           8.441  -2.436   4.153  0.00  0.00    -0.066 N 
ATOM     11  H28 <0> d           9.339  -2.678   4.589  0.00  0.00     0.280 HD
ENDROOT
BRANCH   6  12
ATOM     12  C12 <0> d           5.770  -0.484  -0.268  0.00  0.00     0.203 C 
BRANCH  12  13
ATOM     13  N4  <0> d           4.399  -0.442   0.247  0.00  0.00    -0.353 N 
ATOM     14  C13 <0> d           3.621   0.632   0.007  0.00  0.00     0.224 C 
ATOM     15  O1  <0> d           4.056   1.564  -0.635  0.00  0.00    -0.273 OA
ATOM     16  H21 <0> d           4.051  -1.188   0.760  0.00  0.00     0.162 HD
BRANCH  14  17
ATOM     17  C14 <0> d           2.211   0.674   0.537  0.00  0.00     0.103 C 
ATOM     18  C17 <0> d           1.358  -0.476  -0.054  0.00  0.00     0.181 C 
ATOM     19  O2  <0> d           0.002  -0.004   0.002  0.00  0.00    -0.390 OA
ATOM     20  C16 <0> d          -0.017   1.428   0.010  0.00  0.00     0.168 C 
ATOM     21  C15 <0> d           1.448   1.915  -0.002  0.00  0.00     0.042 C 
ENDBRANCH  14  17
ENDBRANCH  12  13
ENDBRANCH   6  12
BRANCH  10  22
ATOM     22  C5  <0> d           7.566  -1.827   5.171  0.00  0.00     0.268 C 
BRANCH  22  23
ATOM     23  C3  <0> d           7.537  -2.728   6.379  0.00  0.00    -0.062 C 
ATOM     24  C2  <0> d           8.365  -2.518   7.372  0.00  0.00    -0.027 C 
ATOM     25  C1  <0> d           8.336  -3.419   8.580  0.00  0.00     0.036 C 
ATOM     26  C4  <0> d           6.554  -3.869   6.445  0.00  0.00     0.044 C 
ENDBRANCH  22  23
ENDBRANCH  10  22
TORSDOF 5
