REMARK  5 active torsions:
REMARK  status: ('A' for Active; 'I' for Inactive)
REMARK    1  A    between atoms: C5_5  and  C9_9 
REMARK    2  A    between atoms: C10_10  and  C12_14 
REMARK    3  A    between atoms: C12_14  and  N3_15 
REMARK    4  A    between atoms: N3_15  and  C13_16 
REMARK    5  A    between atoms: C13_16  and  C14_17 
ROOT
ATOM      1  C12 <0> d          -2.588  -4.650   0.476  0.00  0.00     0.270 C 
ENDROOT
BRANCH   1   2
ATOM      2  C10 <0> d          -1.322  -4.829  -0.322  0.00  0.00    -0.007 A 
ATOM      3  C9  <0> d           0.059  -4.275  -0.021  0.00  0.00     0.166 A 
ATOM      4  N2  <0> d           0.873  -4.780  -1.141  0.00  0.00    -0.301 N 
ATOM      5  N1  <0> d           0.128  -5.440  -1.875  0.00  0.00    -0.191 NA
ATOM      6  H26 <0> d           1.820  -4.620  -1.276  0.00  0.00     0.183 HD
ATOM      7  C11 <0> d          -1.155  -5.510  -1.458  0.00  0.00     0.145 A 
BRANCH   3   8
ATOM      8  C5  <0> d           0.040  -2.768  -0.013  0.00  0.00    -0.029 A 
ATOM      9  C4  <0> d           0.025  -2.071  -1.207  0.00  0.00     0.010 A 
ATOM     10  C3  <0> d           0.006  -0.689  -1.199  0.00  0.00     0.008 A 
ATOM     11  C2  <0> d           0.002  -0.004   0.002  0.00  0.00    -0.056 A 
ATOM     12  C1  <0> d          -0.018   1.503   0.010  0.00  0.00     0.049 C 
ATOM     13  C7  <0> d           0.023  -0.702   1.195  0.00  0.00    -0.056 A 
ATOM     14  C6  <0> d           0.037  -2.084   1.188  0.00  0.00     0.017 A 
ATOM     15  C8  <0> d           0.025   0.045   2.504  0.00  0.00     0.049 C 
ENDBRANCH   3   8
ENDBRANCH   1   2
BRANCH   1  16
ATOM     16  N3  <0> d          -2.642  -5.662   1.540  0.00  0.00    -0.069 N 
ATOM     17  H15 <0> d          -2.630  -6.583   1.130  0.00  0.00     0.277 HD
ATOM     18  H27 <0> d          -1.843  -5.554   2.148  0.00  0.00     0.277 HD
BRANCH  16  19
ATOM     19  C13 <0> d          -3.876  -5.488   2.319  0.00  0.00     0.269 C 
BRANCH  19  20
ATOM     20  C14 <0> d          -3.932  -6.541   3.427  0.00  0.00     0.180 C 
ATOM     21  O1  <0> d          -2.862  -6.318   4.346  0.00  0.00    -0.379 OA
ATOM     22  C22 <0> d          -2.939  -7.146   5.511  0.00  0.00     0.173 C 
ATOM     23  C21 <0> d          -4.108  -6.660   6.370  0.00  0.00     0.065 C 
ATOM     24  C20 <0> d          -5.340  -6.507   5.515  0.00  0.00    -0.047 A 
ATOM     25  C15 <0> d          -5.255  -6.445   4.140  0.00  0.00    -0.021 A 
ATOM     26  C19 <0> d          -6.576  -6.423   6.136  0.00  0.00     0.008 A 
ATOM     27  C16 <0> d          -6.408  -6.290   3.386  0.00  0.00     0.010 A 
ATOM     28  C17 <0> d          -7.639  -6.203   4.005  0.00  0.00     0.001 A 
ATOM     29  C18 <0> d          -7.724  -6.271   5.383  0.00  0.00     0.001 A 
ENDBRANCH  19  20
ENDBRANCH  16  19
ENDBRANCH   1  16
TORSDOF 5
