REMARK  5 active torsions:
REMARK  status: ('A' for Active; 'I' for Inactive)
REMARK       I    between atoms: N1_2  and  C3_4 
REMARK    1  A    between atoms: C3_4  and  C4_6 
REMARK    2  A    between atoms: C4_6  and  N2_7 
REMARK    3  A    between atoms: C6_9  and  N4_12 
REMARK       I    between atoms: N4_12  and  C8_13 
REMARK    4  A    between atoms: C8_13  and  C9_15 
REMARK    5  A    between atoms: C10_16  and  C11_17 
ROOT
ATOM      1  N2  <0> d          -2.510  -2.708   0.011  0.00  0.00    -0.270 N 
ATOM      2  C5  <0> d          -3.049  -3.575  -0.884  0.00  0.00     0.144 A 
ATOM      3  C6  <0> d          -4.339  -3.789  -0.521  0.00  0.00     0.071 A 
ATOM      4  C7  <0> d          -4.594  -3.030   0.630  0.00  0.00     0.169 A 
ATOM      5  N3  <0> d          -3.499  -2.389   0.951  0.00  0.00    -0.182 NA
ENDROOT
BRANCH   3   6
ATOM      6  N4  <0> d          -5.258  -4.624  -1.183  0.00  0.00    -0.321 N 
ATOM      7  C8  <0> d          -6.516  -4.748  -0.714  0.00  0.00     0.245 C 
ATOM      8  O2  <0> d          -6.857  -4.136   0.283  0.00  0.00    -0.268 OA
ATOM      9  H11 <0> d          -4.987  -5.111  -1.977  0.00  0.00     0.169 HD
BRANCH   7  10
ATOM     10  C9  <0> d          -7.441  -5.589  -1.380  0.00  0.00     0.077 C 
ATOM     11  C10 <0> d          -8.703  -5.712  -0.909  0.00  0.00     0.037 C 
BRANCH  11  12
ATOM     12  C11 <0> d          -9.662  -6.583  -1.599  0.00  0.00     0.063 A 
ATOM     13  N5  <0> d          -9.333  -7.274  -2.697  0.00  0.00    -0.254 NA
ATOM     14  C13 <0> d         -10.241  -8.031  -3.250  0.00  0.00     0.166 A 
ATOM     15  S1  <0> d         -11.597  -7.813  -2.284  0.00  0.00    -0.092 SA
ATOM     16  C12 <0> d         -10.963  -6.738  -1.160  0.00  0.00     0.082 A 
ENDBRANCH  11  12
ENDBRANCH   7  10
ENDBRANCH   3   6
BRANCH   1  17
ATOM     17  C4  <0> d          -1.135  -2.201   0.001  0.00  0.00     0.253 C 
BRANCH  17  18
ATOM     18  C3  <0> d          -1.156  -0.694   0.009  0.00  0.00     0.238 C 
ATOM     19  N1  <0> d           0.002  -0.004   0.002  0.00  0.00    -0.359 N 
ATOM     20  C1  <0> d          -0.018   1.461   0.010  0.00  0.00     0.152 C 
ATOM     21  C2  <0> d           1.281  -0.719  -0.014  0.00  0.00     0.152 C 
ATOM     22  O1  <0> d          -2.214  -0.102   0.023  0.00  0.00    -0.271 OA
ENDBRANCH  17  18
ENDBRANCH   1  17
TORSDOF 5
