REMARK  7 active torsions:
REMARK  status: ('A' for Active; 'I' for Inactive)
REMARK    1  A    between atoms: C2_2  and  C3_3 
REMARK    2  A    between atoms: C2_2  and  N4_31 
REMARK       I    between atoms: C3_3  and  N1_5 
REMARK    3  A    between atoms: N1_5  and  C4_6 
REMARK    4  A    between atoms: C12_19  and  C13_20 
REMARK    5  A    between atoms: C12_19  and  N4_31 
REMARK    6  A    between atoms: C16_23  and  O3_26 
REMARK    7  A    between atoms: O3_26  and  C19_27 
ROOT
ATOM      1  C1  <0> d          -1.774   3.412   2.641  0.00  0.00     0.050 C 
ATOM      2  C2  <0> d          -1.067   2.991   1.351  0.00  0.00     0.275 C 
ENDROOT
BRANCH   2   3
ATOM      3  C3  <0> d          -1.878   3.441   0.164  0.00  0.00     0.253 C 
ATOM      4  O1  <0> d          -2.446   2.623  -0.529  0.00  0.00    -0.271 OA
ATOM      5  N1  <0> d          -1.974   4.753  -0.129  0.00  0.00    -0.325 N 
ATOM      6  H7  <0> d          -1.585   5.413   0.467  0.00  0.00     0.169 HD
BRANCH   5   7
ATOM      7  C4  <0> d          -2.634   5.165  -1.294  0.00  0.00     0.037 A 
ATOM      8  C9  <0> d          -2.580   4.379  -2.435  0.00  0.00     0.061 A 
ATOM      9  C8  <0> d          -3.240   4.786  -3.584  0.00  0.00     0.065 A 
ATOM     10  C7  <0> d          -3.946   5.991  -3.592  0.00  0.00     0.063 A 
ATOM     11  N2  <0> d          -3.375   4.232  -4.854  0.00  0.00    -0.306 N 
ATOM     12  C6  <0> d          -3.992   6.775  -2.449  0.00  0.00     0.034 A 
ATOM     13  N3  <0> d          -4.489   6.130  -4.869  0.00  0.00    -0.307 N 
ATOM     14  C5  <0> d          -3.339   6.364  -1.305  0.00  0.00     0.032 A 
ATOM     15  C10 <0> d          -4.128   5.060  -5.602  0.00  0.00     0.325 A 
ATOM     16  H3  <0> d          -5.033   6.872  -5.177  0.00  0.00     0.170 HD
ATOM     17  O2  <0> d          -4.436   4.870  -6.764  0.00  0.00    -0.247 OA
ATOM     18  H2  <0> d          -2.991   3.392  -5.151  0.00  0.00     0.170 HD
ENDBRANCH   5   7
ENDBRANCH   2   3
BRANCH   2  19
ATOM     19  N4  <0> d          -0.920   1.521   1.296  0.00  0.00    -0.059 N 
ATOM     20  C11 <0> d           0.118   1.082   2.252  0.00  0.00     0.271 C 
ATOM     21  H21 <0> d          -0.636   1.250   0.348  0.00  0.00     0.280 HD
BRANCH  19  22
ATOM     22  C12 <0> d          -2.209   0.873   1.616  0.00  0.00     0.274 C 
BRANCH  22  23
ATOM     23  C13 <0> d          -2.091  -0.604   1.340  0.00  0.00    -0.032 A 
ATOM     24  C18 <0> d          -1.685  -1.464   2.344  0.00  0.00     0.011 A 
ATOM     25  C17 <0> d          -1.576  -2.818   2.094  0.00  0.00     0.037 A 
ATOM     26  C16 <0> d          -1.876  -3.315   0.834  0.00  0.00     0.074 A 
ATOM     27  C15 <0> d          -2.284  -2.451  -0.172  0.00  0.00     0.037 A 
ATOM     28  C14 <0> d          -2.396  -1.098   0.085  0.00  0.00     0.011 A 
BRANCH  26  29
ATOM     29  O3  <0> d          -1.770  -4.647   0.585  0.00  0.00    -0.290 OA
BRANCH  29  30
ATOM     30  C19 <0> d          -2.094  -5.088  -0.735  0.00  0.00     0.505 C 
ATOM     31  F1  <0> d          -3.422  -4.756  -1.024  0.00  0.00    -0.184 F 
ATOM     32  F2  <0> d          -1.246  -4.465  -1.657  0.00  0.00    -0.184 F 
ENDBRANCH  29  30
ENDBRANCH  26  29
ENDBRANCH  22  23
ENDBRANCH  19  22
ENDBRANCH   2  19
TORSDOF 7
