REMARK  4 active torsions:
REMARK  status: ('A' for Active; 'I' for Inactive)
REMARK    1  A    between atoms: C3_3  and  N3_11 
REMARK    2  A    between atoms: N1_5  and  C5_7 
REMARK       I    between atoms: N3_11  and  C9_12 
REMARK    3  A    between atoms: C9_12  and  C10_14 
REMARK    4  A    between atoms: C10_14  and  N4_15 
ROOT
ATOM      1  N3  <0> d          -0.220  -0.378  -2.465  0.00  0.00    -0.322 N 
ATOM      2  C9  <0> d           0.133   0.881  -2.793  0.00  0.00     0.240 C 
ATOM      3  O1  <0> d           0.646   1.603  -1.964  0.00  0.00    -0.271 OA
ATOM      4  H14 <0> d          -0.572  -0.975  -3.143  0.00  0.00     0.169 HD
ENDROOT
BRANCH   2   5
ATOM      5  C10 <0> d          -0.110   1.391  -4.190  0.00  0.00     0.236 C 
BRANCH   5   6
ATOM      6  N4  <0> d           0.358   2.776  -4.293  0.00  0.00    -0.299 N 
ATOM      7  C18 <0> d           1.635   3.027  -4.664  0.00  0.00     0.261 A 
ATOM      8  C17 <0> d           2.049   4.435  -4.755  0.00  0.00     0.064 A 
ATOM      9  O2  <0> d           2.409   2.122  -4.917  0.00  0.00    -0.267 OA
ATOM     10  C12 <0> d           1.096   5.428  -4.441  0.00  0.00     0.074 A 
ATOM     11  C16 <0> d           3.340   4.800  -5.133  0.00  0.00     0.061 A 
ATOM     12  N5  <0> d          -0.155   5.048  -4.075  0.00  0.00    -0.243 NA
ATOM     13  C13 <0> d           1.460   6.774  -4.512  0.00  0.00     0.036 A 
ATOM     14  C11 <0> d          -0.493   3.797  -4.008  0.00  0.00     0.213 A 
ATOM     15  C14 <0> d           2.739   7.116  -4.887  0.00  0.00     0.044 A 
ATOM     16  C15 <0> d           3.677   6.136  -5.196  0.00  0.00     0.117 A 
ATOM     17  F1  <0> d           4.926   6.496  -5.562  0.00  0.00    -0.206 F 
ENDBRANCH   5   6
ENDBRANCH   2   5
BRANCH   1  18
ATOM     18  C3  <0> d          -0.079  -0.824  -1.137  0.00  0.00     0.085 A 
ATOM     19  C2  <0> d          -0.863  -0.427  -0.044  0.00  0.00     0.079 A 
ATOM     20  C1  <0> d          -2.005   0.554  -0.088  0.00  0.00     0.075 C 
ATOM     21  N2  <0> d          -0.429  -1.051   1.021  0.00  0.00    -0.175 NA
ATOM     22  N1  <0> d           0.640  -1.874   0.646  0.00  0.00    -0.268 N 
ATOM     23  C4  <0> d           0.841  -1.716  -0.688  0.00  0.00     0.056 A 
ATOM     24  C8  <0> d           1.893  -2.406  -1.518  0.00  0.00     0.072 C 
BRANCH  22  25
ATOM     25  C5  <0> d           1.409  -2.747   1.536  0.00  0.00     0.102 C 
ATOM     26  C6  <0> d           2.065  -1.907   2.634  0.00  0.00     0.034 C 
ATOM     27  C7  <0> d           0.474  -3.777   2.173  0.00  0.00     0.034 C 
ENDBRANCH  22  25
ENDBRANCH   1  18
TORSDOF 4
