REMARK  5 active torsions:
REMARK  status: ('A' for Active; 'I' for Inactive)
REMARK    1  A    between atoms: C2_2  and  S1_3 
REMARK    2  A    between atoms: S1_3  and  C3_6 
REMARK    3  A    between atoms: C6_9  and  N1_12 
REMARK       I    between atoms: N1_12  and  C9_13 
REMARK    4  A    between atoms: C9_13  and  C10_15 
REMARK    5  A    between atoms: C10_15  and  N2_18 
ROOT
ATOM      1  C3  <0> d          -1.516  -2.385   0.002  0.00  0.00     0.059 A 
ATOM      2  C4  <0> d          -0.709  -3.010   0.933  0.00  0.00     0.025 A 
ATOM      3  C5  <0> d          -0.584  -4.386   0.928  0.00  0.00     0.031 A 
ATOM      4  C6  <0> d          -1.271  -5.140  -0.014  0.00  0.00     0.034 A 
ATOM      5  C7  <0> d          -2.081  -4.509  -0.948  0.00  0.00     0.031 A 
ATOM      6  C8  <0> d          -2.206  -3.133  -0.934  0.00  0.00     0.025 A 
ENDROOT
BRANCH   4   7
ATOM      7  N1  <0> d          -1.146  -6.534  -0.022  0.00  0.00    -0.325 N 
ATOM      8  C9  <0> d          -0.976  -7.202   1.136  0.00  0.00     0.257 C 
ATOM      9  O3  <0> d          -1.026  -6.608   2.192  0.00  0.00    -0.270 OA
ATOM     10  H10 <0> d          -1.182  -7.019  -0.861  0.00  0.00     0.169 HD
BRANCH   8  11
ATOM     11  C10 <0> d          -0.723  -8.688   1.119  0.00  0.00     0.198 C 
ATOM     12  C11 <0> d           0.771  -8.949   0.919  0.00  0.00     0.056 C 
ATOM     13  C12 <0> d          -1.174  -9.297   2.447  0.00  0.00     0.056 C 
BRANCH  11  14
ATOM     14  N2  <0> d          -1.479  -9.300   0.018  0.00  0.00    -0.062 N 
ATOM     15  C13 <0> d          -1.232 -10.748   0.001  0.00  0.00     0.268 C 
ATOM     16  H17 <0> d          -2.464  -9.128   0.149  0.00  0.00     0.278 HD
ATOM     17  H21 <0> d          -1.182  -8.898  -0.859  0.00  0.00     0.278 HD
ENDBRANCH  11  14
ENDBRANCH   8  11
ENDBRANCH   4   7
BRANCH   1  18
ATOM     18  S1  <0> d          -1.673  -0.629   0.011  0.00  0.00     0.175 S 
ATOM     19  O1  <0> d          -2.011  -0.288  -1.326  0.00  0.00    -0.223 OA
ATOM     20  O2  <0> d          -0.465  -0.161   0.595  0.00  0.00    -0.223 OA
BRANCH  18  21
ATOM     21  C2  <0> d          -3.072  -0.292   1.116  0.00  0.00     0.141 C 
ATOM     22  C1  <0> d          -3.302   1.218   1.201  0.00  0.00     0.021 C 
ENDBRANCH  18  21
ENDBRANCH   1  18
TORSDOF 5
