REMARK  5 active torsions:
REMARK  status: ('A' for Active; 'I' for Inactive)
REMARK    1  A    between atoms: N1_5  and  C7_8 
REMARK    2  A    between atoms: C7_8  and  C9_10 
REMARK    3  A    between atoms: C9_10  and  N2_11 
REMARK       I    between atoms: N2_11  and  C10_12 
REMARK    4  A    between atoms: C10_12  and  C11_14 
REMARK    5  A    between atoms: C11_14  and  N3_20 
REMARK       I    between atoms: N3_20  and  C17_21 
ROOT
ATOM      1  N2  <0> d           1.005  -3.115   3.534  0.00  0.00    -0.357 N 
ATOM      2  C10 <0> d           2.050  -3.708   4.145  0.00  0.00     0.246 C 
ATOM      3  O1  <0> d           1.857  -4.582   4.963  0.00  0.00    -0.271 OA
ATOM      4  H19 <0> d           1.155  -2.371   2.929  0.00  0.00     0.162 HD
ENDROOT
BRANCH   1   5
ATOM      5  C9  <0> d          -0.357  -3.594   3.783  0.00  0.00     0.155 C 
BRANCH   5   6
ATOM      6  C7  <0> d          -1.335  -2.839   2.880  0.00  0.00     0.202 C 
ATOM      7  C8  <0> d          -1.006  -3.131   1.415  0.00  0.00     0.042 C 
BRANCH   6   8
ATOM      8  N1  <0> d          -2.707  -3.278   3.171  0.00  0.00    -0.066 N 
ATOM      9  C4  <0> d          -3.649  -2.515   2.343  0.00  0.00     0.235 C 
ATOM     10  C3  <0> d          -5.072  -3.023   2.582  0.00  0.00     0.032 C 
ATOM     11  C2  <0> d          -5.430  -2.845   4.060  0.00  0.00    -0.015 C 
ATOM     12  C1  <0> d          -6.822  -3.424   4.323  0.00  0.00     0.010 C 
ATOM     13  C6  <0> d          -4.398  -3.584   4.918  0.00  0.00     0.032 C 
ATOM     14  C5  <0> d          -3.000  -3.055   4.592  0.00  0.00     0.235 C 
ATOM     15  H34 <0> d          -2.796  -4.261   2.960  0.00  0.00     0.280 HD
ENDBRANCH   6   8
ENDBRANCH   5   6
ENDBRANCH   1   5
BRANCH   2  16
ATOM     16  C11 <0> d           3.457  -3.285   3.811  0.00  0.00     0.113 C 
ATOM     17  C16 <0> d           4.312  -3.312   5.080  0.00  0.00     0.041 C 
ATOM     18  C15 <0> d           5.741  -2.882   4.741  0.00  0.00     0.003 C 
ATOM     19  C14 <0> d           6.331  -3.843   3.707  0.00  0.00     0.000 C 
ATOM     20  C13 <0> d           5.476  -3.816   2.439  0.00  0.00     0.003 C 
ATOM     21  C12 <0> d           4.048  -4.245   2.777  0.00  0.00     0.041 C 
BRANCH  16  22
ATOM     22  N3  <0> d           3.442  -1.926   3.263  0.00  0.00    -0.343 N 
ATOM     23  C17 <0> d           2.893  -1.694   2.053  0.00  0.00     0.214 C 
ATOM     24  O2  <0> d           2.354  -2.597   1.449  0.00  0.00    -0.274 OA
ATOM     25  C18 <0> d           2.950  -0.313   1.453  0.00  0.00     0.117 C 
ATOM     26  H30 <0> d           3.826  -1.194   3.769  0.00  0.00     0.163 HD
ENDBRANCH  16  22
ENDBRANCH   2  16
TORSDOF 5
