REMARK  4 active torsions:
REMARK  status: ('A' for Active; 'I' for Inactive)
REMARK    1  A    between atoms: C7_10  and  C8_12 
REMARK    2  A    between atoms: C8_12  and  C9_13 
REMARK    3  A    between atoms: C9_13  and  C10_14 
REMARK       I    between atoms: C10_14  and  N3_16 
REMARK    4  A    between atoms: C13_20  and  C14_21 
REMARK       I    between atoms: C14_21  and  N4_23 
ROOT
ATOM      1  C8  <0> d           0.092  -3.432   4.547  0.00  0.00     0.088 C 
ENDROOT
BRANCH   1   2
ATOM      2  C7  <0> d           0.068  -2.480   3.380  0.00  0.00     0.108 A 
ATOM      3  N1  <0> d           0.051  -1.142   3.611  0.00  0.00    -0.311 N 
ATOM      4  C6  <0> d           0.029  -0.257   2.597  0.00  0.00     0.260 A 
ATOM      5  H22 <0> d           0.054  -0.817   4.525  0.00  0.00     0.170 HD
ATOM      6  C5  <0> d           0.024  -0.745   1.250  0.00  0.00     0.075 A 
ATOM      7  O1  <0> d           0.014   0.942   2.821  0.00  0.00    -0.267 OA
ATOM      8  C2  <0> d           0.002  -0.004   0.002  0.00  0.00    -0.031 A 
ATOM      9  C4  <0> d           0.037  -2.144   1.110  0.00  0.00     0.116 A 
ATOM     10  C1  <0> d          -0.018   1.503   0.010  0.00  0.00     0.050 C 
ATOM     11  C3  <0> d           0.006  -0.677  -1.160  0.00  0.00    -0.012 A 
ATOM     12  S1  <0> d           0.032  -2.385  -0.648  0.00  0.00    -0.074 SA
ATOM     13  C17 <0> d          -0.009  -0.122  -2.561  0.00  0.00     0.057 C 
ATOM     14  N2  <0> d           0.053  -2.956   2.163  0.00  0.00    -0.227 NA
ENDBRANCH   1   2
BRANCH   1  15
ATOM     15  C9  <0> d           0.108  -4.872   4.030  0.00  0.00     0.110 C 
BRANCH  15  16
ATOM     16  C10 <0> d           0.132  -5.824   5.198  0.00  0.00     0.221 C 
ATOM     17  O2  <0> d           0.136  -5.394   6.332  0.00  0.00    -0.273 OA
ATOM     18  N3  <0> d           0.149  -7.155   4.982  0.00  0.00    -0.329 N 
ATOM     19  C13 <0> d           0.172  -8.107   6.080  0.00  0.00     0.189 C 
ATOM     20  C11 <0> d           0.151  -7.721   3.616  0.00  0.00     0.200 C 
ATOM     21  C12 <0> d           0.207  -9.591   5.640  0.00  0.00     0.110 C 
ATOM     22  S2  <0> d           0.865  -9.397   3.924  0.00  0.00    -0.147 SA
BRANCH  19  23
ATOM     23  C14 <0> d           1.385  -7.827   6.930  0.00  0.00     0.242 C 
ATOM     24  O3  <0> d           2.138  -6.924   6.633  0.00  0.00    -0.271 OA
ATOM     25  N4  <0> d           1.633  -8.581   8.019  0.00  0.00    -0.359 N 
ATOM     26  C15 <0> d           2.812  -8.309   8.845  0.00  0.00     0.152 C 
ATOM     27  C16 <0> d           0.724  -9.672   8.377  0.00  0.00     0.152 C 
ENDBRANCH  19  23
ENDBRANCH  15  16
ENDBRANCH   1  15
TORSDOF 4
