REMARK  8 active torsions:
REMARK  status: ('A' for Active; 'I' for Inactive)
REMARK    1  A    between atoms: C2_2  and  C4_4 
REMARK    2  A    between atoms: C4_4  and  C5_5 
REMARK    3  A    between atoms: C5_5  and  C6_6 
REMARK    4  A    between atoms: C5_5  and  N4_19 
REMARK       I    between atoms: C6_6  and  N1_8 
REMARK    5  A    between atoms: N1_8  and  C7_9 
REMARK    6  A    between atoms: C7_9  and  C8_10 
REMARK    7  A    between atoms: C11_14  and  N3_16 
REMARK       I    between atoms: N4_19  and  C15_20 
REMARK    8  A    between atoms: C15_20  and  C16_22 
ROOT
ATOM      1  C5  <0> d           0.043  -0.060   2.362  0.00  0.00     0.177 C 
ENDROOT
BRANCH   1   2
ATOM      2  C4  <0> d           0.875  -0.280   1.097  0.00  0.00     0.038 C 
BRANCH   2   3
ATOM      3  C2  <0> d           1.212  -1.767   0.961  0.00  0.00    -0.020 C 
ATOM      4  C1  <0> d          -0.074  -2.562   0.728  0.00  0.00     0.009 C 
ATOM      5  C3  <0> d           2.158  -1.968  -0.225  0.00  0.00     0.009 C 
ENDBRANCH   2   3
ENDBRANCH   1   2
BRANCH   1   6
ATOM      6  C6  <0> d           0.874  -0.393   3.574  0.00  0.00     0.240 C 
ATOM      7  O1  <0> d           1.374   0.496   4.230  0.00  0.00    -0.271 OA
ATOM      8  N1  <0> d           1.062  -1.680   3.929  0.00  0.00    -0.355 N 
ATOM      9  H11 <0> d           0.719  -2.393   3.367  0.00  0.00     0.162 HD
BRANCH   8  10
ATOM     10  C7  <0> d           1.785  -2.001   5.162  0.00  0.00     0.161 C 
BRANCH  10  11
ATOM     11  C8  <0> d           1.857  -3.498   5.326  0.00  0.00    -0.036 A 
ATOM     12  C12 <0> d           2.914  -4.217   4.800  0.00  0.00     0.057 A 
ATOM     13  C11 <0> d           2.949  -5.596   4.976  0.00  0.00     0.102 A 
ATOM     14  N2  <0> d           1.979  -6.217   5.629  0.00  0.00    -0.352 N 
ATOM     15  C10 <0> d           0.955  -5.557   6.138  0.00  0.00     0.090 A 
ATOM     16  H27 <0> d           2.021  -7.180   5.737  0.00  0.00     0.166 HD
ATOM     17  C9  <0> d           0.860  -4.186   6.005  0.00  0.00     0.026 A 
BRANCH  13  18
ATOM     18  N3  <0> d           4.009  -6.331   4.457  0.00  0.00    -0.376 N 
ATOM     19  C13 <0> d           3.983  -7.795   4.512  0.00  0.00     0.150 C 
ATOM     20  C14 <0> d           5.152  -5.641   3.853  0.00  0.00     0.150 C 
ENDBRANCH  13  18
ENDBRANCH  10  11
ENDBRANCH   8  10
ENDBRANCH   1   6
BRANCH   1  21
ATOM     21  N4  <0> d          -0.380   1.341   2.430  0.00  0.00    -0.344 N 
ATOM     22  C15 <0> d          -1.535   1.725   1.852  0.00  0.00     0.254 C 
ATOM     23  O2  <0> d          -2.271   0.895   1.354  0.00  0.00    -0.268 OA
ATOM     24  H23 <0> d           0.172   1.992   2.891  0.00  0.00     0.163 HD
BRANCH  22  25
ATOM     25  C16 <0> d          -1.908   3.154   1.824  0.00  0.00     0.053 A 
ATOM     26  C21 <0> d          -3.105   3.556   1.226  0.00  0.00     0.051 A 
ATOM     27  C20 <0> d          -3.450   4.893   1.210  0.00  0.00     0.048 A 
ATOM     28 Cl1  <0> d          -4.160   2.376   0.512  0.00  0.00    -0.083 Cl
ATOM     29  C19 <0> d          -2.607   5.835   1.773  0.00  0.00     0.035 A 
ATOM     30  C18 <0> d          -1.415   5.443   2.362  0.00  0.00     0.025 A 
ATOM     31 Cl2  <0> d          -3.044   7.514   1.742  0.00  0.00    -0.084 Cl
ATOM     32  C17 <0> d          -1.062   4.111   2.391  0.00  0.00     0.020 A 
ENDBRANCH  22  25
ENDBRANCH   1  21
TORSDOF 8
