REMARK  4 active torsions:
REMARK  status: ('A' for Active; 'I' for Inactive)
REMARK    1  A    between atoms: N1_5  and  C5_7 
REMARK    2  A    between atoms: C5_7  and  C6_8 
REMARK    3  A    between atoms: C6_8  and  N3_9 
REMARK    4  A    between atoms: N3_9  and  C7_10 
ROOT
ATOM      1  C6  <0> d           1.503  -3.688   1.779  0.00  0.00     0.254 C 
ENDROOT
BRANCH   1   2
ATOM      2  C5  <0> d           0.053  -3.295   1.486  0.00  0.00     0.178 C 
BRANCH   2   3
ATOM      3  N1  <0> d           0.034  -2.109   0.625  0.00  0.00    -0.271 N 
ATOM      4  C4  <0> d           0.027  -2.108  -0.725  0.00  0.00     0.046 A 
ATOM      5  C3  <0> d           0.008  -0.818  -1.136  0.00  0.00     0.060 A 
ATOM      6  C12 <0> d           0.039  -3.324  -1.615  0.00  0.00     0.071 C 
ATOM      7  C2  <0> d           0.002  -0.004   0.002  0.00  0.00     0.070 A 
ATOM      8 Br1  <0> d          -0.009  -0.222  -2.930  0.00  0.00    -0.047 Br
ATOM      9  C1  <0> d          -0.018   1.503   0.010  0.00  0.00     0.074 C 
ATOM     10  N2  <0> d           0.023  -0.777   1.058  0.00  0.00    -0.176 NA
ENDBRANCH   2   3
ENDBRANCH   1   2
BRANCH   1  11
ATOM     11  N3  <0> d           1.523  -4.876   2.642  0.00  0.00    -0.069 N 
ATOM     12  H8  <0> d           1.048  -4.671   3.508  0.00  0.00     0.277 HD
ATOM     13  H21 <0> d           1.055  -5.639   2.175  0.00  0.00     0.277 HD
BRANCH  11  14
ATOM     14  C7  <0> d           2.914  -5.254   2.923  0.00  0.00     0.190 C 
ATOM     15  C11 <0> d           2.938  -6.415   3.921  0.00  0.00     0.059 C 
ATOM     16  C10 <0> d           4.388  -6.853   4.148  0.00  0.00     0.169 C 
ATOM     17  O1  <0> d           4.974  -7.222   2.898  0.00  0.00    -0.391 OA
ATOM     18  C9  <0> d           5.022  -6.162   1.941  0.00  0.00     0.169 C 
ATOM     19  C8  <0> d           3.598  -5.696   1.625  0.00  0.00     0.059 C 
ENDBRANCH  11  14
ENDBRANCH   1  11
TORSDOF 4
