REMARK  8 active torsions:
REMARK  status: ('A' for Active; 'I' for Inactive)
REMARK    1  A    between atoms: C2_2  and  C4_4 
REMARK    2  A    between atoms: C4_4  and  C5_5 
REMARK    3  A    between atoms: C5_5  and  C6_6 
REMARK    4  A    between atoms: C5_5  and  N4_21 
REMARK    5  A    between atoms: C6_6  and  N1_7 
REMARK       I    between atoms: N1_7  and  C7_8 
REMARK    6  A    between atoms: C7_8  and  C8_10 
REMARK       I    between atoms: C8_10  and  N2_12 
REMARK    7  A    between atoms: N2_12  and  C9_13 
REMARK    8  A    between atoms: C12_16  and  S1_19 
ROOT
ATOM      1  N1  <0> d          -3.134  -3.466  -0.087  0.00  0.00    -0.351 N 
ATOM      2  C7  <0> d          -4.422  -3.861  -0.111  0.00  0.00     0.309 C 
ATOM      3  O1  <0> d          -5.311  -3.035  -0.067  0.00  0.00    -0.262 OA
ATOM      4  H13 <0> d          -2.424  -4.125  -0.122  0.00  0.00     0.162 HD
ENDROOT
BRANCH   2   5
ATOM      5  C8  <0> d          -4.756  -5.314  -0.191  0.00  0.00     0.314 C 
ATOM      6  O2  <0> d          -3.868  -6.139  -0.235  0.00  0.00    -0.262 OA
ATOM      7  N2  <0> d          -6.045  -5.708  -0.215  0.00  0.00    -0.318 N 
ATOM      8  H14 <0> d          -6.754  -5.048  -0.245  0.00  0.00     0.169 HD
BRANCH   7   9
ATOM      9  C9  <0> d          -6.359  -7.072  -0.197  0.00  0.00     0.052 A 
ATOM     10  C13 <0> d          -7.470  -7.545  -0.880  0.00  0.00     0.147 A 
ATOM     11  N3  <0> d          -7.769  -8.830  -0.872  0.00  0.00    -0.252 NA
ATOM     12  C12 <0> d          -7.036  -9.711  -0.209  0.00  0.00     0.092 A 
ATOM     13  C11 <0> d          -5.910  -9.308   0.504  0.00  0.00     0.041 A 
ATOM     14  C10 <0> d          -5.563  -7.971   0.513  0.00  0.00     0.034 A 
BRANCH  12  15
ATOM     15  S1  <0> d          -7.490 -11.414  -0.230  0.00  0.00    -0.115 SA
ATOM     16  C14 <0> d          -8.982 -11.458  -1.260  0.00  0.00     0.097 C 
ENDBRANCH  12  15
ENDBRANCH   7   9
ENDBRANCH   2   5
BRANCH   1  17
ATOM     17  C6  <0> d          -2.806  -2.040  -0.007  0.00  0.00     0.156 C 
BRANCH  17  18
ATOM     18  C5  <0> d          -1.295  -1.855  -0.166  0.00  0.00     0.205 C 
BRANCH  18  19
ATOM     19  C4  <0> d          -0.930  -0.394   0.104  0.00  0.00     0.038 C 
BRANCH  19  20
ATOM     20  C2  <0> d           0.588  -0.223   0.018  0.00  0.00    -0.021 C 
ATOM     21  C1  <0> d           0.946   1.255   0.185  0.00  0.00     0.009 C 
ATOM     22  C3  <0> d           1.256  -1.038   1.127  0.00  0.00     0.009 C 
ENDBRANCH  19  20
ENDBRANCH  18  19
BRANCH  18  23
ATOM     23  N4  <0> d          -0.898  -2.214  -1.533  0.00  0.00    -0.073 N 
ATOM     24  C15 <0> d          -1.145  -3.645  -1.755  0.00  0.00     0.269 C 
ATOM     25  C16 <0> d          -1.684  -1.427  -2.494  0.00  0.00     0.269 C 
ATOM     26  H27 <0> d           0.083  -2.018  -1.661  0.00  0.00     0.279 HD
ENDBRANCH  18  23
ENDBRANCH  17  18
ENDBRANCH   1  17
TORSDOF 8
