REMARK  4 active torsions:
REMARK  status: ('A' for Active; 'I' for Inactive)
REMARK    1  A    between atoms: C4_4  and  N3_14 
REMARK    2  A    between atoms: N1_5  and  C5_7 
REMARK       I    between atoms: N3_14  and  C9_15 
REMARK    3  A    between atoms: C9_15  and  C10_17 
REMARK    4  A    between atoms: C10_17  and  N4_18 
ROOT
ATOM      1  N3  <0> d           0.040  -3.240  -1.543  0.00  0.00    -0.310 N 
ATOM      2  C9  <0> d           0.031  -3.097  -2.883  0.00  0.00     0.241 C 
ATOM      3  O3  <0> d           0.014  -1.988  -3.375  0.00  0.00    -0.271 OA
ATOM      4  H12 <0> d           0.054  -4.126  -1.150  0.00  0.00     0.170 HD
ENDROOT
BRANCH   1   5
ATOM      5  C4  <0> d           0.028  -2.113  -0.722  0.00  0.00     0.129 A 
ATOM      6  C3  <0> d           0.008  -0.816  -1.135  0.00  0.00     0.078 A 
ATOM      7  C2  <0> d           0.002  -0.004   0.002  0.00  0.00     0.054 A 
ATOM      8  C1  <0> d          -0.018   1.503   0.010  0.00  0.00     0.072 C 
ATOM      9  N2  <0> d           0.023  -0.776   1.058  0.00  0.00    -0.175 NA
ATOM     10  N1  <0> d           0.035  -2.110   0.631  0.00  0.00    -0.248 N 
BRANCH  10  11
ATOM     11  C5  <0> d           0.056  -3.292   1.496  0.00  0.00     0.127 C 
ATOM     12  C8  <0> d          -1.204  -3.294   2.394  0.00  0.00     0.167 C 
ATOM     13  S1  <0> d          -0.604  -4.109   3.930  0.00  0.00     0.146 S 
ATOM     14  C7  <0> d           1.167  -4.341   3.480  0.00  0.00     0.142 C 
ATOM     15  O1  <0> d          -1.222  -5.384   4.048  0.00  0.00    -0.228 OA
ATOM     16  O2  <0> d          -0.691  -3.188   5.008  0.00  0.00    -0.228 OA
ATOM     17  C6  <0> d           1.322  -3.264   2.368  0.00  0.00     0.043 C 
ENDBRANCH  10  11
ENDBRANCH   1   5
BRANCH   2  18
ATOM     18  C10 <0> d           0.044  -4.314  -3.771  0.00  0.00     0.231 C 
BRANCH  18  19
ATOM     19  N4  <0> d           0.031  -3.896  -5.175  0.00  0.00    -0.347 N 
ATOM     20  C14 <0> d           1.146  -3.560  -5.910  0.00  0.00     0.045 A 
ATOM     21  C13 <0> d           0.704  -3.223  -7.203  0.00  0.00    -0.002 A 
ATOM     22  C15 <0> d           2.505  -3.507  -5.619  0.00  0.00     0.030 A 
ATOM     23  C12 <0> d          -0.753  -3.371  -7.184  0.00  0.00    -0.034 A 
ATOM     24  C18 <0> d           1.628  -2.841  -8.177  0.00  0.00     0.014 A 
ATOM     25  C11 <0> d          -1.091  -3.774  -5.949  0.00  0.00     0.099 A 
ATOM     26  C19 <0> d          -1.695  -3.120  -8.334  0.00  0.00     0.050 C 
ATOM     27  C17 <0> d           2.958  -2.787  -7.867  0.00  0.00     0.001 A 
ATOM     28  C16 <0> d           3.399  -3.123  -6.594  0.00  0.00     0.002 A 
ENDBRANCH  18  19
ENDBRANCH   2  18
TORSDOF 4
