REMARK  3 active torsions:
REMARK  status: ('A' for Active; 'I' for Inactive)
REMARK    1  A    between atoms: C4_4  and  C7_8 
REMARK    2  A    between atoms: C7_8  and  N1_10 
REMARK       I    between atoms: N1_10  and  C9_11 
REMARK    3  A    between atoms: C9_11  and  C10_13 
ROOT
ATOM      1  N1  <0> d          -3.108  -2.603  -0.582  0.00  0.00    -0.351 N 
ATOM      2  C9  <0> d          -4.061  -3.370  -1.149  0.00  0.00     0.248 C 
ATOM      3  O1  <0> d          -3.928  -4.575  -1.182  0.00  0.00    -0.271 OA
ATOM      4  H13 <0> d          -3.215  -1.639  -0.555  0.00  0.00     0.163 HD
ENDROOT
BRANCH   1   5
ATOM      5  C7  <0> d          -1.912  -3.224  -0.008  0.00  0.00     0.114 C 
ATOM      6  C8  <0> d          -2.206  -3.663   1.428  0.00  0.00     0.037 C 
BRANCH   5   7
ATOM      7  C4  <0> d          -0.780  -2.230  -0.007  0.00  0.00    -0.022 A 
ATOM      8  C3  <0> d          -1.039  -0.872   0.002  0.00  0.00     0.024 A 
ATOM      9  C2  <0> d           0.002  -0.004   0.002  0.00  0.00    -0.020 A 
ATOM     10  C1  <0> d          -0.018   1.503   0.010  0.00  0.00     0.056 C 
ATOM     11  S1  <0> d           1.404  -1.109  -0.018  0.00  0.00    -0.100 SA
ATOM     12  C5  <0> d           0.507  -2.653  -0.016  0.00  0.00    -0.013 A 
ATOM     13  C6  <0> d           1.043  -4.062  -0.027  0.00  0.00     0.057 C 
ENDBRANCH   5   7
ENDBRANCH   1   5
BRANCH   2  14
ATOM     14  C10 <0> d          -5.291  -2.731  -1.740  0.00  0.00     0.238 C 
ATOM     15  O2  <0> d          -6.090  -3.732  -2.376  0.00  0.00    -0.373 OA
ATOM     16  C13 <0> d          -7.310  -3.227  -2.927  0.00  0.00     0.196 C 
ATOM     17  C12 <0> d          -8.128  -2.562  -1.817  0.00  0.00     0.258 C 
ATOM     18  N2  <0> d          -7.332  -1.493  -1.198  0.00  0.00    -0.070 N 
ATOM     19  C11 <0> d          -6.105  -2.065  -0.628  0.00  0.00     0.274 C 
ATOM     20  H16 <0> d          -7.871  -1.054  -0.467  0.00  0.00     0.277 HD
ATOM     21  H21 <0> d          -7.091  -0.806  -1.897  0.00  0.00     0.277 HD
ENDBRANCH   2  14
TORSDOF 3
