REMARK  6 active torsions:
REMARK  status: ('A' for Active; 'I' for Inactive)
REMARK    1  A    between atoms: C2_2  and  C4_4 
REMARK    2  A    between atoms: C4_4  and  N1_5 
REMARK       I    between atoms: N1_5  and  C5_6 
REMARK       I    between atoms: C5_6  and  N2_8 
REMARK       I    between atoms: N2_8  and  C6_9 
REMARK    3  A    between atoms: C6_9  and  C7_11 
REMARK    4  A    between atoms: C7_11  and  O3_12 
REMARK    5  A    between atoms: O3_12  and  C8_13 
REMARK    6  A    between atoms: C8_13  and  C9_15 
ROOT
ATOM      1  N1  <0> d          -3.133  -3.649   0.012  0.00  0.00    -0.342 N 
ATOM      2  C5  <0> d          -2.904  -2.321   0.017  0.00  0.00     0.322 C 
ATOM      3  O1  <0> d          -3.839  -1.543   0.030  0.00  0.00    -0.247 OA
ATOM      4  N2  <0> d          -1.640  -1.854   0.008  0.00  0.00    -0.278 N 
ATOM      5  C6  <0> d          -1.412  -0.526   0.013  0.00  0.00     0.249 C 
ATOM      6  O2  <0> d          -2.344   0.249   0.026  0.00  0.00    -0.271 OA
ATOM      7  H10 <0> d          -2.387  -4.269   0.002  0.00  0.00     0.164 HD
ATOM      8  H11 <0> d          -0.894  -2.474  -0.003  0.00  0.00     0.173 HD
ENDROOT
BRANCH   5   9
ATOM      9  C7  <0> d           0.002  -0.004   0.002  0.00  0.00     0.282 C 
BRANCH   9  10
ATOM     10  O3  <0> d          -0.018   1.448   0.010  0.00  0.00    -0.308 OA
BRANCH  10  11
ATOM     11  C8  <0> d           1.174   2.076   0.002  0.00  0.00     0.297 C 
ATOM     12  O4  <0> d           2.202   1.428  -0.011  0.00  0.00    -0.259 OA
BRANCH  11  13
ATOM     13  C9  <0> d           1.232   3.550   0.009  0.00  0.00     0.082 A 
ATOM     14  C14 <0> d           1.247   4.259  -1.196  0.00  0.00     0.052 A 
ATOM     15  C13 <0> d           1.301   5.638  -1.180  0.00  0.00     0.025 A 
ATOM     16 Cl1  <0> d           1.199   3.406  -2.707  0.00  0.00    -0.083 Cl
ATOM     17  C12 <0> d           1.339   6.320   0.023  0.00  0.00     0.003 A 
ATOM     18  C11 <0> d           1.324   5.626   1.220  0.00  0.00     0.025 A 
ATOM     19  C10 <0> d           1.265   4.246   1.221  0.00  0.00     0.052 A 
ATOM     20 Cl2  <0> d           1.238   3.378   2.724  0.00  0.00    -0.083 Cl
ENDBRANCH  11  13
ENDBRANCH  10  11
ENDBRANCH   9  10
ENDBRANCH   5   9
BRANCH   1  21
ATOM     21  C4  <0> d          -4.507  -4.156   0.023  0.00  0.00     0.128 C 
BRANCH  21  22
ATOM     22  C2  <0> d          -4.486  -5.686   0.014  0.00  0.00    -0.005 C 
ATOM     23  C1  <0> d          -3.857  -6.194   1.313  0.00  0.00     0.011 C 
ATOM     24  C3  <0> d          -5.917  -6.215  -0.101  0.00  0.00     0.011 C 
ENDBRANCH  21  22
ENDBRANCH   1  21
TORSDOF 6
