REMARK  4 active torsions:
REMARK  status: ('A' for Active; 'I' for Inactive)
REMARK    1  A    between atoms: C4_4  and  C7_7 
REMARK    2  A    between atoms: C7_7  and  C8_8 
REMARK    3  A    between atoms: C13_13  and  N1_14 
REMARK       I    between atoms: N1_14  and  C14_15 
REMARK    4  A    between atoms: C14_15  and  C15_17 
ROOT
ATOM      1  N1  <0> d           2.817  -2.962   1.450  0.00  0.00    -0.322 N 
ATOM      2  C14 <0> d           1.995  -3.723   2.199  0.00  0.00     0.256 C 
ATOM      3  O1  <0> d           1.957  -3.571   3.405  0.00  0.00    -0.267 OA
ATOM      4  H12 <0> d           2.790  -3.026   0.482  0.00  0.00     0.169 HD
ENDROOT
BRANCH   1   5
ATOM      5  C13 <0> d           3.711  -2.081   2.067  0.00  0.00     0.041 A 
ATOM      6  C8  <0> d           4.176  -0.967   1.381  0.00  0.00    -0.027 A 
ATOM      7  C9  <0> d           5.054  -0.096   1.995  0.00  0.00     0.010 A 
ATOM      8  C10 <0> d           5.474  -0.335   3.291  0.00  0.00     0.001 A 
ATOM      9  C11 <0> d           5.016  -1.446   3.976  0.00  0.00     0.002 A 
ATOM     10  C12 <0> d           4.138  -2.321   3.367  0.00  0.00     0.030 A 
BRANCH   6  11
ATOM     11  C7  <0> d           3.720  -0.707  -0.032  0.00  0.00     0.079 C 
BRANCH  11  12
ATOM     12  C4  <0> d           2.409   0.037  -0.006  0.00  0.00    -0.054 A 
ATOM     13  C3  <0> d           2.399   1.419   0.007  0.00  0.00     0.007 A 
ATOM     14  C2  <0> d           1.197   2.102   0.029  0.00  0.00     0.001 A 
ATOM     15  C1  <0> d           0.005   1.401   0.038  0.00  0.00     0.000 A 
ATOM     16  C6  <0> d           0.015   0.019   0.025  0.00  0.00     0.001 A 
ATOM     17  C5  <0> d           1.217  -0.663   0.004  0.00  0.00     0.007 A 
ENDBRANCH  11  12
ENDBRANCH   6  11
ENDBRANCH   1   5
BRANCH   2  18
ATOM     18  C15 <0> d           1.140  -4.739   1.556  0.00  0.00     0.034 A 
ATOM     19  C20 <0> d           0.286  -5.528   2.331  0.00  0.00     0.049 A 
ATOM     20  C19 <0> d          -0.515  -6.473   1.721  0.00  0.00     0.069 A 
ATOM     21  C18 <0> d          -0.464  -6.647   0.336  0.00  0.00     0.096 A 
ATOM     22  N2  <0> d          -1.385  -7.271   2.480  0.00  0.00    -0.323 N 
ATOM     23  C17 <0> d           0.388  -5.867  -0.432  0.00  0.00     0.040 A 
ATOM     24  O3  <0> d          -1.254  -7.585  -0.248  0.00  0.00    -0.340 OA
ATOM     25  C16 <0> d           1.186  -4.918   0.170  0.00  0.00     0.020 A 
ATOM     26  C22 <0> d          -1.522  -8.765   0.514  0.00  0.00     0.278 C 
ATOM     27  C21 <0> d          -1.908  -8.384   1.920  0.00  0.00     0.246 C 
ATOM     28  O2  <0> d          -2.685  -9.073   2.546  0.00  0.00    -0.271 OA
ATOM     29  H16 <0> d          -1.607  -7.027   3.392  0.00  0.00     0.169 HD
ENDBRANCH   2  18
TORSDOF 4
