REMARK  5 active torsions:
REMARK  status: ('A' for Active; 'I' for Inactive)
REMARK    1  A    between atoms: C7_7  and  O3_17 
REMARK    2  A    between atoms: C10_10  and  C11_11 
REMARK    3  A    between atoms: C18_21  and  C23_30 
REMARK    4  A    between atoms: C21_24  and  O4_26 
REMARK    5  A    between atoms: O4_26  and  N1_27 
ROOT
ATOM      1  C1  <0> d           0.013   5.421  -1.369  0.00  0.00     0.019 C 
ATOM      2  C2  <0> d          -1.490   5.462  -1.088  0.00  0.00    -0.005 C 
ATOM      3  C3  <0> d          -2.236   5.314  -2.396  0.00  0.00     0.013 C 
ATOM      4  C4  <0> d          -1.746   6.416  -3.350  0.00  0.00     0.007 C 
ATOM      5  C5  <0> d          -1.941   7.802  -2.745  0.00  0.00     0.008 C 
ATOM      6  C6  <0> d          -1.271   7.915  -1.367  0.00  0.00     0.026 C 
ATOM      7  C7  <0> d          -1.873   6.840  -0.483  0.00  0.00     0.070 C 
ATOM      8  C8  <0> d          -1.289   6.730   0.930  0.00  0.00     0.040 C 
ATOM      9  C9  <0> d          -1.651   5.278   1.344  0.00  0.00     0.013 C 
ATOM     10  C10 <0> d          -1.834   4.481   0.028  0.00  0.00     0.028 C 
ATOM     11  C15 <0> d          -1.531   9.300  -0.772  0.00  0.00     0.008 C 
ATOM     12  C16 <0> d          -0.977  10.371  -1.717  0.00  0.00     0.006 C 
ATOM     13  C17 <0> d          -1.632  10.255  -3.094  0.00  0.00     0.004 C 
ATOM     14  C18 <0> d          -1.359   8.866  -3.676  0.00  0.00     0.021 C 
ATOM     15  C19 <0> d          -2.016   8.753  -5.053  0.00  0.00     0.020 C 
ATOM     16  C20 <0> d          -1.438   9.820  -5.985  0.00  0.00     0.036 C 
ATOM     17  C21 <0> d          -1.712  11.208  -5.402  0.00  0.00     0.159 C 
ATOM     18  C22 <0> d          -1.054  11.322  -4.026  0.00  0.00     0.040 C 
ENDROOT
BRANCH  10  19
ATOM     19  C11 <0> d          -0.894   3.303  -0.005  0.00  0.00    -0.045 A 
ATOM     20  C14 <0> d          -0.991   2.100  -0.914  0.00  0.00     0.213 A 
ATOM     21  O2  <0> d           0.134   1.245  -0.570  0.00  0.00    -0.314 OA
ATOM     22  C13 <0> d           0.820   1.853   0.417  0.00  0.00     0.283 A 
ATOM     23  C12 <0> d           0.175   3.122   0.765  0.00  0.00     0.087 A 
ATOM     24  O1  <0> d           1.822   1.411   0.944  0.00  0.00    -0.260 OA
ENDBRANCH  10  19
BRANCH   7  25
ATOM     25  O3  <0> d          -3.294   6.983  -0.424  0.00  0.00    -0.389 OA
ATOM     26  H20 <0> d          -3.591   7.777   0.041  0.00  0.00     0.210 HD
ENDBRANCH   7  25
BRANCH  14  27
ATOM     27  C23 <0> d           0.128   8.660  -3.808  0.00  0.00     0.241 C 
ATOM     28  O7  <0> d           0.666   7.755  -3.219  0.00  0.00    -0.306 OA
ENDBRANCH  14  27
BRANCH  17  29
ATOM     29  O4  <0> d          -1.172  12.204  -6.273  0.00  0.00    -0.216 OA
BRANCH  29  30
ATOM     30  N1  <0> d          -2.036  12.573  -7.332  0.00  0.00     0.005 N 
ATOM     31  O5  <0> d          -3.130  12.049  -7.436  0.00  0.00    -0.511 OA
ATOM     32  O6  <0> d          -1.685  13.415  -8.139  0.00  0.00    -0.511 OA
ENDBRANCH  29  30
ENDBRANCH  17  29
TORSDOF 5
