REMARK  2 active torsions:
REMARK  status: ('A' for Active; 'I' for Inactive)
REMARK    1  A    between atoms: C6_6  and  C7_7 
REMARK    2  A    between atoms: C12_15  and  C14_17 
ROOT
ATOM      1  C7  <0> d          -1.288  -0.749   0.026  0.00  0.00     0.043 C 
ATOM      2  N1  <0> d          -2.365  -0.130   0.158  0.00  0.00    -0.291 NA
ATOM      3  C8  <0> d          -3.712  -0.664   0.182  0.00  0.00     0.177 C 
ATOM      4  C9  <0> d          -3.959  -1.502   1.437  0.00  0.00     0.260 C 
ATOM      5  N2  <0> d          -2.720  -2.153   1.845  0.00  0.00    -0.024 N 
ATOM      6  C10 <0> d          -2.952  -3.061   3.007  0.00  0.00     0.266 C 
ATOM      7  C11 <0> d          -1.547  -3.724   3.103  0.00  0.00     0.263 C 
ATOM      8  N3  <0> d          -1.187  -3.939   1.675  0.00  0.00    -0.029 N 
ATOM      9  C12 <0> d          -2.018  -2.996   0.893  0.00  0.00     0.388 C 
ATOM     10  C13 <0> d          -1.208  -2.230  -0.112  0.00  0.00     0.139 C 
ATOM     11  H13 <0> d          -0.211  -3.738   1.532  0.00  0.00     0.280 HD
ATOM     12  H16 <0> d          -2.067  -1.433   2.163  0.00  0.00     0.283 HD
ATOM     13  H17 <0> d          -1.399  -4.886   1.405  0.00  0.00     0.280 HD
ENDROOT
BRANCH   1  14
ATOM     14  C6  <0> d          -0.027   0.019   0.015  0.00  0.00    -0.012 A 
ATOM     15  C1  <0> d           1.200  -0.648  -0.026  0.00  0.00     0.015 A 
ATOM     16  C2  <0> d           2.374   0.075  -0.037  0.00  0.00     0.020 A 
ATOM     17  C3  <0> d           2.339   1.459  -0.007  0.00  0.00     0.011 A 
ATOM     18  C4  <0> d           1.126   2.126   0.034  0.00  0.00     0.020 A 
ATOM     19 Br1  <0> d           3.954   2.443  -0.022  0.00  0.00    -0.051 Br
ATOM     20  C5  <0> d          -0.055   1.415   0.044  0.00  0.00     0.015 A 
ENDBRANCH   1  14
BRANCH   9  21
ATOM     21  C14 <0> d          -3.029  -3.843   0.123  0.00  0.00     0.448 C 
ATOM     22  F1  <0> d          -3.831  -3.010  -0.665  0.00  0.00    -0.166 F 
ATOM     23  F2  <0> d          -2.349  -4.748  -0.699  0.00  0.00    -0.166 F 
ATOM     24  F3  <0> d          -3.833  -4.546   1.027  0.00  0.00    -0.166 F 
ENDBRANCH   9  21
TORSDOF 2
