REMARK  3 active torsions:
REMARK  status: ('A' for Active; 'I' for Inactive)
REMARK    1  A    between atoms: C9_13  and  C10_15 
REMARK    2  A    between atoms: C14_19  and  O3_22 
REMARK    3  A    between atoms: C15_20  and  O2_21 
ROOT
ATOM      1  C1  <0> d          -0.144   0.970   2.428  0.00  0.00     0.270 C 
ATOM      2  N1  <0> d          -0.714   1.567   1.213  0.00  0.00    -0.070 N 
ATOM      3  C2  <0> d          -2.156   1.294   1.117  0.00  0.00     0.239 C 
ATOM      4  C3  <0> d          -2.798   2.217   0.077  0.00  0.00     0.068 C 
ATOM      5  C4  <0> d          -1.997   2.106  -1.216  0.00  0.00    -0.023 A 
ATOM      6  C5  <0> d          -0.748   1.587  -1.195  0.00  0.00     0.018 A 
ATOM      7  S1  <0> d          -0.202   1.641  -2.880  0.00  0.00    -0.074 SA
ATOM      8  C6  <0> d          -1.597   2.337  -3.591  0.00  0.00     0.088 A 
ATOM      9  C7  <0> d          -2.484   2.523  -2.519  0.00  0.00     0.073 A 
ATOM     10  C8  <0> d          -3.807   3.116  -2.822  0.00  0.00     0.256 C 
ATOM     11  O1  <0> d          -4.586   3.413  -1.935  0.00  0.00    -0.267 OA
ATOM     12  N2  <0> d          -4.113   3.314  -4.121  0.00  0.00    -0.331 N 
ATOM     13  C9  <0> d          -3.334   2.763  -5.225  0.00  0.00     0.222 C 
ATOM     14  N3  <0> d          -1.902   2.684  -4.881  0.00  0.00    -0.358 N 
ATOM     15  C17 <0> d          -0.013   1.086   0.008  0.00  0.00     0.281 C 
ATOM     16  H9  <0> d          -5.003   3.926  -4.328  0.00  0.00     0.165 HD
ATOM     17  H10 <0> d          -1.140   2.900  -5.645  0.00  0.00     0.162 HD
ATOM     18  H19 <0> d          -0.577   2.656   1.282  0.00  0.00     0.279 HD
ENDROOT
BRANCH  13  19
ATOM     19  C10 <0> d          -3.841   1.381  -5.547  0.00  0.00     0.021 A 
ATOM     20  C15 <0> d          -5.191   1.093  -5.425  0.00  0.00     0.109 A 
ATOM     21  C14 <0> d          -5.658  -0.182  -5.728  0.00  0.00     0.103 A 
ATOM     22  C13 <0> d          -4.769  -1.162  -6.140  0.00  0.00     0.058 A 
ATOM     23  C12 <0> d          -3.422  -0.870  -6.254  0.00  0.00     0.014 A 
ATOM     24  C11 <0> d          -2.959   0.400  -5.959  0.00  0.00     0.033 A 
ATOM     25 Br1  <0> d          -2.210  -2.208  -6.817  0.00  0.00    -0.051 Br
BRANCH  20  26
ATOM     26  O2  <0> d          -6.059   2.057  -5.014  0.00  0.00    -0.357 OA
ATOM     27  H13 <0> d          -7.130   1.827  -4.917  0.00  0.00     0.217 HD
ENDBRANCH  20  26
BRANCH  21  28
ATOM     28  O3  <0> d          -6.983  -0.467  -5.615  0.00  0.00    -0.353 OA
ATOM     29  C16 <0> d          -7.389  -1.799  -5.938  0.00  0.00     0.210 C 
ENDBRANCH  21  28
ENDBRANCH  13  19
TORSDOF 3
