REMARK  6 active torsions:
REMARK  status: ('A' for Active; 'I' for Inactive)
REMARK    1  A    between atoms: C7_7  and  C8_8 
REMARK    2  A    between atoms: C8_8  and  N1_9 
REMARK       I    between atoms: N1_9  and  C9_10 
REMARK    3  A    between atoms: C9_10  and  C10_12 
REMARK    4  A    between atoms: C10_12  and  C11_13 
REMARK    5  A    between atoms: C11_13  and  S1_14 
REMARK    6  A    between atoms: S1_14  and  C12_17 
ROOT
ATOM      1  S1  <0> d          -4.667   2.904   6.006  0.00  0.00     0.176 S 
ATOM      2  O2  <0> d          -5.095   3.894   5.081  0.00  0.00    -0.223 OA
ATOM      3  O3  <0> d          -5.484   1.776   6.290  0.00  0.00    -0.223 OA
ENDROOT
BRANCH   1   4
ATOM      4  C11 <0> d          -2.979   2.369   5.612  0.00  0.00     0.155 C 
BRANCH   4   5
ATOM      5  C10 <0> d          -2.982   1.611   4.282  0.00  0.00     0.118 C 
BRANCH   5   6
ATOM      6  C9  <0> d          -1.579   1.167   3.955  0.00  0.00     0.218 C 
ATOM      7  N1  <0> d          -1.338   0.477   2.823  0.00  0.00    -0.357 N 
ATOM      8  H11 <0> d          -2.067   0.266   2.219  0.00  0.00     0.162 HD
ATOM      9  O1  <0> d          -0.668   1.431   4.710  0.00  0.00    -0.274 OA
BRANCH   7  10
ATOM     10  C8  <0> d           0.025   0.045   2.504  0.00  0.00     0.161 C 
BRANCH  10  11
ATOM     11  C7  <0> d           0.023  -0.702   1.195  0.00  0.00    -0.035 A 
ATOM     12  C2  <0> d           0.002  -0.004   0.002  0.00  0.00    -0.054 A 
ATOM     13  C1  <0> d          -0.018   1.503   0.010  0.00  0.00     0.049 C 
ATOM     14  C3  <0> d           0.006  -0.689  -1.199  0.00  0.00     0.007 A 
ATOM     15  C4  <0> d           0.025  -2.071  -1.207  0.00  0.00     0.001 A 
ATOM     16  C5  <0> d           0.040  -2.768  -0.013  0.00  0.00     0.001 A 
ATOM     17  C6  <0> d           0.037  -2.084   1.188  0.00  0.00     0.009 A 
ENDBRANCH  10  11
ENDBRANCH   7  10
ENDBRANCH   5   6
ENDBRANCH   4   5
ENDBRANCH   1   4
BRANCH   1  18
ATOM     18  C12 <0> d          -4.525   3.754   7.542  0.00  0.00     0.061 A 
ATOM     19  C17 <0> d          -4.281   5.116   7.555  0.00  0.00     0.054 A 
ATOM     20  C16 <0> d          -4.175   5.783   8.764  0.00  0.00     0.053 A 
ATOM     21  C15 <0> d          -4.306   5.080   9.959  0.00  0.00     0.027 A 
ATOM     22  N2  <0> d          -3.929   7.164   8.800  0.00  0.00    -0.326 N 
ATOM     23  C14 <0> d          -4.545   3.715   9.941  0.00  0.00     0.022 A 
ATOM     24  S2  <0> d          -4.167   5.947  11.489  0.00  0.00    -0.123 SA
ATOM     25  C13 <0> d          -4.653   3.056   8.729  0.00  0.00     0.025 A 
ATOM     26  C20 <0> d          -2.385   6.324  11.594  0.00  0.00     0.057 C 
ATOM     27  C19 <0> d          -1.923   6.750  10.190  0.00  0.00     0.118 C 
ATOM     28  C21 <0> d          -2.151   7.463  12.588  0.00  0.00     0.022 C 
ATOM     29  C18 <0> d          -2.937   7.654   9.555  0.00  0.00     0.223 C 
ATOM     30  O4  <0> d          -2.858   8.852   9.729  0.00  0.00    -0.273 OA
ATOM     31  H19 <0> d          -4.479   7.767   8.276  0.00  0.00     0.169 HD
ENDBRANCH   1  18
TORSDOF 6
