REMARK  8 active torsions:
REMARK  status: ('A' for Active; 'I' for Inactive)
REMARK    1  A    between atoms: C2_2  and  C3_3 
REMARK    2  A    between atoms: C2_2  and  N2_14 
REMARK    3  A    between atoms: C6_6  and  S1_9 
REMARK    4  A    between atoms: S1_9  and  N1_12 
REMARK    5  A    between atoms: N2_14  and  C10_15 
REMARK    6  A    between atoms: C10_15  and  C11_16 
REMARK    7  A    between atoms: C14_19  and  O3_22 
REMARK    8  A    between atoms: O3_22  and  C17_23 
ROOT
ATOM      1  C1  <0> d          -0.908   1.001  -0.527  0.00  0.00     0.045 C 
ATOM      2  C2  <0> d          -0.867  -0.522  -0.666  0.00  0.00     0.215 C 
ENDROOT
BRANCH   2   3
ATOM      3  C3  <0> d          -2.258  -1.041  -0.923  0.00  0.00    -0.028 A 
ATOM      4  C8  <0> d          -2.994  -1.584   0.113  0.00  0.00     0.011 A 
ATOM      5  C7  <0> d          -4.272  -2.057  -0.121  0.00  0.00     0.026 A 
ATOM      6  C6  <0> d          -4.810  -1.994  -1.393  0.00  0.00     0.079 A 
ATOM      7  C5  <0> d          -4.072  -1.456  -2.430  0.00  0.00     0.026 A 
ATOM      8  C4  <0> d          -2.795  -0.979  -2.195  0.00  0.00     0.011 A 
BRANCH   6   9
ATOM      9  S1  <0> d          -6.437  -2.601  -1.692  0.00  0.00     0.258 S 
ATOM     10  O1  <0> d          -7.123  -2.555  -0.448  0.00  0.00    -0.201 OA
ATOM     11  O2  <0> d          -6.914  -1.929  -2.850  0.00  0.00    -0.201 OA
BRANCH   9  12
ATOM     12  N1  <0> d          -6.297  -4.200  -2.096  0.00  0.00    -0.320 N 
ATOM     13  C9  <0> d          -5.799  -5.164  -1.112  0.00  0.00     0.159 C 
ATOM     14  H9  <0> d          -6.545  -4.499  -2.985  0.00  0.00     0.171 HD
ENDBRANCH   9  12
ENDBRANCH   6   9
ENDBRANCH   2   3
BRANCH   2  15
ATOM     15  N2  <0> d           0.007  -0.887  -1.790  0.00  0.00    -0.063 N 
ATOM     16  H13 <0> d          -0.030  -1.885  -1.934  0.00  0.00     0.278 HD
ATOM     17  H27 <0> d          -0.304  -0.415  -2.625  0.00  0.00     0.278 HD
BRANCH  15  18
ATOM     18  C10 <0> d           1.387  -0.486  -1.487  0.00  0.00     0.271 C 
BRANCH  18  19
ATOM     19  C11 <0> d           2.284  -0.861  -2.639  0.00  0.00    -0.033 A 
ATOM     20  C16 <0> d           2.494   0.036  -3.670  0.00  0.00     0.011 A 
ATOM     21  C15 <0> d           3.320  -0.303  -4.724  0.00  0.00     0.037 A 
ATOM     22  C14 <0> d           3.929  -1.549  -4.754  0.00  0.00     0.069 A 
ATOM     23  C13 <0> d           3.712  -2.449  -3.721  0.00  0.00     0.037 A 
ATOM     24  C12 <0> d           2.889  -2.104  -2.667  0.00  0.00     0.011 A 
BRANCH  22  25
ATOM     25  O3  <0> d           4.738  -1.886  -5.793  0.00  0.00    -0.347 OA
BRANCH  25  26
ATOM     26  C17 <0> d           5.425  -3.136  -5.700  0.00  0.00     0.120 C 
ATOM     27  C18 <0> d           4.512  -4.258  -6.199  0.00  0.00     0.040 C 
ATOM     28  C19 <0> d           6.689  -3.087  -6.561  0.00  0.00     0.040 C 
ENDBRANCH  25  26
ENDBRANCH  22  25
ENDBRANCH  18  19
ENDBRANCH  15  18
ENDBRANCH   2  15
TORSDOF 8
