REMARK  8 active torsions:
REMARK  status: ('A' for Active; 'I' for Inactive)
REMARK    1  A    between atoms: O1_2  and  C2_3 
REMARK    2  A    between atoms: C7_8  and  N1_9 
REMARK    3  A    between atoms: N1_9  and  C8_10 
REMARK       I    between atoms: N1_9  and  C11_15 
REMARK    4  A    between atoms: C8_10  and  C9_11 
REMARK    5  A    between atoms: C9_11  and  C10_12 
REMARK       I    between atoms: C10_12  and  N2_14 
REMARK    6  A    between atoms: C11_15  and  C12_17 
REMARK    7  A    between atoms: C12_17  and  N3_18 
REMARK    8  A    between atoms: C16_22  and  C17_23 
ROOT
ATOM      1  N1  <0> d           0.095  -2.777  -0.112  0.00  0.00    -0.314 N 
ATOM      2  C11 <0> d          -1.193  -3.163  -0.198  0.00  0.00     0.250 C 
ATOM      3  O3  <0> d          -1.684  -3.838   0.682  0.00  0.00    -0.271 OA
ENDROOT
BRANCH   2   4
ATOM      4  C12 <0> d          -2.025  -2.756  -1.387  0.00  0.00     0.338 C 
BRANCH   4   5
ATOM      5  N3  <0> d          -3.383  -3.297  -1.244  0.00  0.00    -0.051 N 
ATOM      6  C16 <0> d          -4.235  -2.801  -2.345  0.00  0.00     0.260 C 
ATOM      7  C15 <0> d          -5.175  -3.985  -2.682  0.00  0.00     0.043 C 
ATOM      8  C14 <0> d          -4.228  -5.200  -2.496  0.00  0.00     0.030 C 
ATOM      9  C13 <0> d          -3.339  -4.769  -1.310  0.00  0.00     0.236 C 
ATOM     10  H27 <0> d          -3.772  -3.010  -0.358  0.00  0.00     0.281 HD
BRANCH   6  11
ATOM     11  C17 <0> d          -5.036  -1.608  -1.892  0.00  0.00     0.165 A 
ATOM     12  N6  <0> d          -5.216  -0.450  -2.584  0.00  0.00    -0.290 N 
ATOM     13  C18 <0> d          -6.011   0.342  -1.791  0.00  0.00     0.157 A 
ATOM     14  C19 <0> d          -4.786  -0.002  -3.798  0.00  0.00     0.100 A 
ATOM     15  N5  <0> d          -6.260  -0.347  -0.689  0.00  0.00    -0.130 NA
ATOM     16  C22 <0> d          -6.384   1.624  -2.238  0.00  0.00     0.053 A 
ATOM     17  N4  <0> d          -5.681  -1.494  -0.760  0.00  0.00    -0.132 NA
ATOM     18  C21 <0> d          -5.942   2.061  -3.448  0.00  0.00     0.005 A 
ATOM     19  C20 <0> d          -5.132   1.226  -4.237  0.00  0.00     0.018 A 
ENDBRANCH   6  11
ENDBRANCH   4   5
ENDBRANCH   2   4
BRANCH   1  20
ATOM     20  C7  <0> d           0.662  -1.997  -1.129  0.00  0.00     0.070 A 
ATOM     21  C2  <0> d           0.606  -0.607  -1.056  0.00  0.00     0.095 A 
ATOM     22  C3  <0> d           1.173   0.159  -2.062  0.00  0.00     0.039 A 
ATOM     23  C4  <0> d           1.787  -0.456  -3.137  0.00  0.00     0.003 A 
ATOM     24  C5  <0> d           1.838  -1.836  -3.213  0.00  0.00     0.002 A 
ATOM     25  C6  <0> d           1.275  -2.607  -2.214  0.00  0.00     0.033 A 
BRANCH  21  26
ATOM     26  O1  <0> d           0.002  -0.004   0.002  0.00  0.00    -0.354 OA
ATOM     27  C1  <0> d          -0.017   1.425   0.010  0.00  0.00     0.210 C 
ENDBRANCH  21  26
ENDBRANCH   1  20
BRANCH   1  28
ATOM     28  C8  <0> d           0.903  -3.174   1.044  0.00  0.00     0.141 C 
BRANCH  28  29
ATOM     29  C9  <0> d           0.780  -2.113   2.140  0.00  0.00     0.123 C 
BRANCH  29  30
ATOM     30  C10 <0> d           1.611  -2.521   3.329  0.00  0.00     0.216 C 
ATOM     31  O2  <0> d           2.240  -3.558   3.302  0.00  0.00    -0.274 OA
ATOM     32  N2  <0> d           1.656  -1.734   4.422  0.00  0.00    -0.370 N 
ATOM     33  H13 <0> d           1.152  -0.905   4.443  0.00  0.00     0.159 HD
ATOM     34  H14 <0> d           2.191  -1.996   5.187  0.00  0.00     0.159 HD
ENDBRANCH  29  30
ENDBRANCH  28  29
ENDBRANCH   1  28
TORSDOF 8
