REMARK  5 active torsions:
REMARK  status: ('A' for Active; 'I' for Inactive)
REMARK    1  A    between atoms: C3_3  and  N1_4 
REMARK    2  A    between atoms: N1_4  and  C4_5 
REMARK       I    between atoms: N1_4  and  C9_11 
REMARK    3  A    between atoms: C4_5  and  C5_6 
REMARK    4  A    between atoms: C9_11  and  C10_13 
REMARK    5  A    between atoms: N3_22  and  C17_26 
ROOT
ATOM      1  C1  <0> d           5.168   3.127   3.496  0.00  0.00     0.014 C 
ATOM      2  C2  <0> d           4.601   2.365   2.806  0.00  0.00    -0.098 C 
ATOM      3  C3  <0> d           3.889   1.410   1.941  0.00  0.00     0.220 C 
ENDROOT
BRANCH   3   4
ATOM      4  N1  <0> d           3.131   2.143   0.924  0.00  0.00    -0.331 N 
ATOM      5  C9  <0> d           1.823   2.407   1.118  0.00  0.00     0.256 C 
ATOM      6  O2  <0> d           1.171   2.927   0.234  0.00  0.00    -0.267 OA
BRANCH   4   7
ATOM      7  C4  <0> d           3.794   2.590  -0.303  0.00  0.00     0.192 C 
BRANCH   7   8
ATOM      8  C5  <0> d           3.681   1.516  -1.355  0.00  0.00     0.070 A 
ATOM      9  O1  <0> d           4.558   0.519  -1.557  0.00  0.00    -0.325 OA
ATOM     10  C8  <0> d           4.135  -0.250  -2.574  0.00  0.00     0.142 A 
ATOM     11  C7  <0> d           2.980   0.259  -3.039  0.00  0.00     0.027 A 
ATOM     12  C6  <0> d           2.687   1.398  -2.254  0.00  0.00     0.036 A 
ENDBRANCH   7   8
ENDBRANCH   4   7
BRANCH   5  13
ATOM     13  C10 <0> d           1.184   2.064   2.404  0.00  0.00     0.050 A 
ATOM     14  C16 <0> d          -0.039   1.387   2.429  0.00  0.00     0.136 A 
ATOM     15  N4  <0> d          -0.622   1.067   3.564  0.00  0.00    -0.241 NA
ATOM     16  C15 <0> d          -0.087   1.381   4.734  0.00  0.00     0.149 A 
ATOM     17  C12 <0> d           1.142   2.069   4.793  0.00  0.00     0.079 A 
ATOM     18  N3  <0> d          -0.711   1.047   5.920  0.00  0.00    -0.278 N 
ATOM     19  C11 <0> d           1.792   2.419   3.615  0.00  0.00     0.039 A 
ATOM     20  C13 <0> d           1.700   2.398   6.116  0.00  0.00     0.263 A 
ATOM     21  O3  <0> d           2.757   2.991   6.218  0.00  0.00    -0.267 OA
ATOM     22  N2  <0> d           1.006   2.022   7.212  0.00  0.00    -0.274 N 
ATOM     23  H1  <0> d           1.356   2.229   8.093  0.00  0.00     0.173 HD
ATOM     24  C14 <0> d          -0.161   1.368   7.103  0.00  0.00     0.331 A 
ATOM     25  O4  <0> d          -0.747   1.053   8.120  0.00  0.00    -0.246 OA
BRANCH  18  26
ATOM     26  C17 <0> d          -1.989   0.331   5.888  0.00  0.00     0.096 A 
ATOM     27  C19 <0> d          -3.216   1.051   6.452  0.00  0.00     0.028 A 
ATOM     28  C18 <0> d          -3.070   0.858   4.941  0.00  0.00     0.028 A 
ENDBRANCH  18  26
ENDBRANCH   5  13
ENDBRANCH   3   4
TORSDOF 5
