REMARK  4 active torsions:
REMARK  status: ('A' for Active; 'I' for Inactive)
REMARK    1  A    between atoms: C9_11  and  C11_14 
REMARK    2  A    between atoms: C11_14  and  C12_16 
REMARK    3  A    between atoms: C12_16  and  S1_17 
REMARK    4  A    between atoms: S1_17  and  C13_18 
ROOT
ATOM      1  C1  <0> d           0.071   1.671   1.098  0.00  0.00     0.158 C 
ATOM      2  N1  <0> d          -0.103   0.234   0.873  0.00  0.00    -0.334 N 
ATOM      3  C2  <0> d          -1.262  -0.493   1.114  0.00  0.00     0.062 A 
ATOM      4  C3  <0> d          -2.516  -0.146   1.598  0.00  0.00     0.032 A 
ATOM      5  C4  <0> d          -3.493  -1.111   1.732  0.00  0.00     0.002 A 
ATOM      6  C5  <0> d          -3.229  -2.426   1.385  0.00  0.00     0.002 A 
ATOM      7  C6  <0> d          -1.986  -2.782   0.903  0.00  0.00     0.032 A 
ATOM      8  C7  <0> d          -0.996  -1.819   0.764  0.00  0.00     0.060 A 
ATOM      9  N2  <0> d           0.320  -1.868   0.319  0.00  0.00    -0.339 N 
ATOM     10  C8  <0> d           0.840  -0.615   0.388  0.00  0.00     0.133 A 
ATOM     11  C9  <0> d           2.148  -0.254   0.019  0.00  0.00     0.135 C 
ATOM     12  C10 <0> d           3.095  -1.266  -0.342  0.00  0.00     0.107 C 
ATOM     13  N3  <0> d           3.846  -2.069  -0.628  0.00  0.00    -0.191 NA
ATOM     14  H8  <0> d           0.786  -2.660   0.008  0.00  0.00     0.167 HD
ENDROOT
BRANCH  11  15
ATOM     15  C11 <0> d           2.526   1.099   0.004  0.00  0.00     0.183 C 
ATOM     16  O1  <0> d           2.032   1.859  -0.805  0.00  0.00    -0.291 OA
BRANCH  15  17
ATOM     17  C12 <0> d           3.545   1.608   0.992  0.00  0.00     0.165 C 
BRANCH  17  18
ATOM     18  S1  <0> d           3.817   3.380   0.720  0.00  0.00    -0.102 SA
BRANCH  18  19
ATOM     19  C13 <0> d           5.016   3.818   1.935  0.00  0.00     0.102 A 
ATOM     20  N4  <0> d           5.205   5.094   2.241  0.00  0.00    -0.194 N 
ATOM     21  C17 <0> d           6.089   5.464   3.149  0.00  0.00     0.127 A 
ATOM     22  O2  <0> d           4.437   6.084   1.581  0.00  0.00    -0.080 OA
ATOM     23  C16 <0> d           6.860   4.527   3.809  0.00  0.00     0.020 A 
ATOM     24  C15 <0> d           6.696   3.181   3.513  0.00  0.00     0.004 A 
ATOM     25  C14 <0> d           5.759   2.823   2.561  0.00  0.00     0.039 A 
ENDBRANCH  18  19
ENDBRANCH  17  18
ENDBRANCH  15  17
ENDBRANCH  11  15
TORSDOF 4
