REMARK  8 active torsions:
REMARK  status: ('A' for Active; 'I' for Inactive)
REMARK    1  A    between atoms: C7_7  and  N1_8 
REMARK    2  A    between atoms: C8_9  and  S1_13 
REMARK    3  A    between atoms: S1_13  and  C9_14 
REMARK    4  A    between atoms: C9_14  and  C10_15 
REMARK       I    between atoms: C10_15  and  N5_17 
REMARK    5  A    between atoms: N5_17  and  C11_18 
REMARK    6  A    between atoms: C11_18  and  C12_19 
REMARK    7  A    between atoms: C12_19  and  C13_20 
REMARK    8  A    between atoms: C17_24  and  O2_29 
ROOT
ATOM      1  C9  <0> d          -2.843   1.432   2.518  0.00  0.00     0.180 C 
ENDROOT
BRANCH   1   2
ATOM      2  S1  <0> d          -2.762  -0.294   3.072  0.00  0.00    -0.116 SA
BRANCH   2   3
ATOM      3  C8  <0> d          -1.033  -0.512   3.577  0.00  0.00     0.267 C 
ATOM      4  N1  <0> d          -0.136  -0.276   2.434  0.00  0.00    -0.258 N 
ATOM      5  N4  <0> d           0.661   0.802   2.740  0.00  0.00    -0.042 NA
ATOM      6  N3  <0> d           0.709   0.867   4.204  0.00  0.00     0.072 N 
ATOM      7  H10 <0> d           0.281   1.654   2.355  0.00  0.00     0.181 HD
ATOM      8  N2  <0> d          -0.664   0.502   4.596  0.00  0.00    -0.105 NA
ATOM      9  H9  <0> d           0.932   1.801   4.515  0.00  0.00     0.325 HD
ATOM     10  H27 <0> d           1.373   0.200   4.567  0.00  0.00     0.325 HD
ATOM     11  H8  <0> d          -1.278   1.301   4.550  0.00  0.00     0.158 HD
BRANCH   4  12
ATOM     12  C7  <0> d          -0.097  -1.018   1.252  0.00  0.00     0.057 A 
ATOM     13  C2  <0> d           0.805  -2.066   1.117  0.00  0.00    -0.034 A 
ATOM     14  C1  <0> d           1.744  -2.402   2.247  0.00  0.00     0.050 C 
ATOM     15  C3  <0> d           0.838  -2.802  -0.051  0.00  0.00     0.011 A 
ATOM     16  C4  <0> d          -0.023  -2.494  -1.088  0.00  0.00     0.024 A 
ATOM     17  C5  <0> d          -0.920  -1.448  -0.960  0.00  0.00     0.036 A 
ATOM     18  C6  <0> d          -0.957  -0.707   0.206  0.00  0.00     0.055 A 
ATOM     19 Cl1  <0> d          -1.999  -1.065  -2.265  0.00  0.00    -0.084 Cl
ENDBRANCH   4  12
ENDBRANCH   2   3
ENDBRANCH   1   2
BRANCH   1  20
ATOM     20  C10 <0> d          -4.209   1.713   1.949  0.00  0.00     0.227 C 
ATOM     21  O1  <0> d          -5.046   0.836   1.919  0.00  0.00    -0.273 OA
ATOM     22  N5  <0> d          -4.501   2.939   1.472  0.00  0.00    -0.360 N 
ATOM     23  H13 <0> d          -3.832   3.641   1.496  0.00  0.00     0.162 HD
BRANCH  22  24
ATOM     24  C11 <0> d          -5.830   3.213   0.918  0.00  0.00     0.127 C 
BRANCH  24  25
ATOM     25  C12 <0> d          -5.898   4.668   0.451  0.00  0.00     0.056 C 
BRANCH  25  26
ATOM     26  C13 <0> d          -7.264   4.949  -0.118  0.00  0.00    -0.048 A 
ATOM     27  C20 <0> d          -7.730   4.688  -1.533  0.00  0.00     0.155 A 
ATOM     28  N6  <0> d          -9.129   5.128  -1.585  0.00  0.00    -0.385 N 
ATOM     29  C19 <0> d          -9.464   5.591  -0.403  0.00  0.00     0.041 A 
ATOM     30  H26 <0> d          -9.708   5.086  -2.362  0.00  0.00     0.160 HD
ATOM     31  C14 <0> d          -8.319   5.491   0.530  0.00  0.00    -0.006 A 
ATOM     32  C18 <0> d         -10.678   6.137   0.086  0.00  0.00     0.066 A 
ATOM     33  C15 <0> d          -8.500   5.963   1.909  0.00  0.00     0.017 A 
ATOM     34  C16 <0> d          -9.696   6.468   2.279  0.00  0.00     0.038 A 
ATOM     35  C17 <0> d         -10.772   6.553   1.375  0.00  0.00     0.070 A 
BRANCH  35  36
ATOM     36  O2  <0> d         -11.949   7.070   1.808  0.00  0.00    -0.356 OA
ATOM     37  C21 <0> d         -12.008   7.496   3.171  0.00  0.00     0.210 C 
ENDBRANCH  35  36
ENDBRANCH  25  26
ENDBRANCH  24  25
ENDBRANCH  22  24
ENDBRANCH   1  20
TORSDOF 8
