REMARK  5 active torsions:
REMARK  status: ('A' for Active; 'I' for Inactive)
REMARK    1  A    between atoms: C2_2  and  C4_4 
REMARK    2  A    between atoms: C4_4  and  O1_5 
REMARK    3  A    between atoms: O1_5  and  C5_6 
REMARK    4  A    between atoms: C11_13  and  C17_19 
REMARK    5  A    between atoms: C22_24  and  O2_25 
ROOT
ATOM      1  C5  <0> d           0.027   1.429   2.484  0.00  0.00     0.095 A 
ATOM      2  C6  <0> d           1.169   0.651   2.528  0.00  0.00     0.039 A 
ATOM      3  C7  <0> d           1.628   0.175   3.743  0.00  0.00     0.003 A 
ATOM      4  C8  <0> d           0.942   0.468   4.903  0.00  0.00     0.010 A 
ATOM      5  C9  <0> d          -0.211   1.243   4.871  0.00  0.00    -0.021 A 
ATOM      6  C10 <0> d          -0.670   1.726   3.659  0.00  0.00     0.069 A 
ATOM      7  N1  <0> d          -1.821   2.512   3.559  0.00  0.00    -0.378 N 
ATOM      8  C11 <0> d          -2.757   2.263   4.656  0.00  0.00     0.123 C 
ATOM      9  C12 <0> d          -2.061   2.532   5.991  0.00  0.00     0.028 C 
ATOM     10  C13 <0> d          -0.910   1.518   6.169  0.00  0.00     0.050 C 
ATOM     11  C14 <0> d          -1.593   0.271   6.681  0.00  0.00    -0.021 C 
ATOM     12  C15 <0> d          -2.755   0.567   7.207  0.00  0.00    -0.029 C 
ATOM     13  C16 <0> d          -3.010   2.059   7.128  0.00  0.00     0.035 C 
ATOM     14  H16 <0> d          -2.067   3.251   2.782  0.00  0.00     0.160 HD
ENDROOT
BRANCH   8  15
ATOM     15  C17 <0> d          -3.948   3.177   4.517  0.00  0.00    -0.001 A 
ATOM     16  C22 <0> d          -4.929   2.900   3.577  0.00  0.00     0.074 A 
ATOM     17  C21 <0> d          -6.028   3.739   3.456  0.00  0.00     0.038 A 
ATOM     18  C20 <0> d          -6.136   4.854   4.263  0.00  0.00     0.022 A 
ATOM     19  C19 <0> d          -5.152   5.132   5.196  0.00  0.00     0.011 A 
ATOM     20  C18 <0> d          -4.059   4.294   5.322  0.00  0.00     0.031 A 
ATOM     21 Br1  <0> d          -5.303   6.660   6.300  0.00  0.00    -0.051 Br
BRANCH  16  22
ATOM     22  O2  <0> d          -4.819   1.804   2.780  0.00  0.00    -0.360 OA
ATOM     23  H24 <0> d          -5.598   1.585   2.035  0.00  0.00     0.217 HD
ENDBRANCH  16  22
ENDBRANCH   8  15
BRANCH   1  24
ATOM     24  O1  <0> d          -0.424   1.903   1.292  0.00  0.00    -0.348 OA
BRANCH  24  25
ATOM     25  C4  <0> d           0.335   1.563   0.130  0.00  0.00     0.179 C 
BRANCH  25  26
ATOM     26  C2  <0> d          -0.321   2.181  -1.107  0.00  0.00     0.002 C 
ATOM     27  C1  <0> d           0.557   1.923  -2.333  0.00  0.00     0.011 C 
ATOM     28  C3  <0> d          -1.697   1.548  -1.323  0.00  0.00     0.011 C 
ENDBRANCH  25  26
ENDBRANCH  24  25
ENDBRANCH   1  24
TORSDOF 5
