REMARK  3 active torsions:
REMARK  status: ('A' for Active; 'I' for Inactive)
REMARK    1  A    between atoms: C5_5  and  C9_9 
REMARK    2  A    between atoms: C12_14  and  C13_17 
REMARK    3  A    between atoms: C13_17  and  N4_19 
ROOT
ATOM      1  C9  <0> d           0.061  -4.251  -0.021  0.00  0.00     0.060 A 
ATOM      2  C10 <0> d           1.198  -4.910   0.277  0.00  0.00     0.084 A 
ATOM      3  S1  <0> d           0.690  -6.615   0.126  0.00  0.00    -0.059 SA
ATOM      4  C11 <0> d          -1.002  -6.324  -0.324  0.00  0.00     0.200 A 
ATOM      5  N1  <0> d          -1.089  -4.954  -0.329  0.00  0.00    -0.272 N 
ATOM      6  C12 <0> d          -2.405  -4.711  -0.673  0.00  0.00     0.166 A 
ATOM      7  N2  <0> d          -2.996  -5.859  -0.838  0.00  0.00    -0.131 NA
ATOM      8  N3  <0> d          -2.162  -6.819  -0.639  0.00  0.00    -0.122 NA
ENDROOT
BRANCH   1   9
ATOM      9  C5  <0> d           0.041  -2.773  -0.013  0.00  0.00    -0.002 A 
ATOM     10  C4  <0> d           0.025  -2.066  -1.216  0.00  0.00     0.015 A 
ATOM     11  C3  <0> d           0.006  -0.686  -1.202  0.00  0.00     0.007 A 
ATOM     12  C2  <0> d           0.002  -0.004   0.002  0.00  0.00    -0.061 A 
ATOM     13  C1  <0> d          -0.018   1.503   0.010  0.00  0.00     0.048 C 
ATOM     14  C7  <0> d           0.023  -0.699   1.198  0.00  0.00     0.014 A 
ATOM     15  C6  <0> d           0.037  -2.079   1.197  0.00  0.00    -0.049 A 
ATOM     16  C8  <0> d           0.053  -2.834   2.501  0.00  0.00     0.049 C 
ENDBRANCH   1   9
BRANCH   6  17
ATOM     17  C13 <0> d          -3.044  -3.355  -0.829  0.00  0.00     0.251 C 
ATOM     18  C14 <0> d          -3.231  -3.047  -2.316  0.00  0.00     0.048 C 
BRANCH  17  19
ATOM     19  N4  <0> d          -4.352  -3.350  -0.160  0.00  0.00    -0.068 N 
ATOM     20  H15 <0> d          -4.229  -3.553   0.821  0.00  0.00     0.275 HD
ATOM     21  H16 <0> d          -4.780  -2.442  -0.264  0.00  0.00     0.275 HD
ATOM     22  H17 <0> d          -4.945  -4.051  -0.577  0.00  0.00     0.275 HD
ENDBRANCH  17  19
ENDBRANCH   6  17
TORSDOF 3
