REMARK  4 active torsions:
REMARK  status: ('A' for Active; 'I' for Inactive)
REMARK    1  A    between atoms: C3_3  and  C11_17 
REMARK    2  A    between atoms: C5_5  and  S1_7 
REMARK    3  A    between atoms: S1_7  and  C7_10 
REMARK       I    between atoms: C11_17  and  N1_19 
REMARK    4  A    between atoms: N1_19  and  C12_20 
ROOT
ATOM      1  C1  <0> d           0.002  -0.004   0.002  0.00  0.00     0.002 A 
ATOM      2  C2  <0> d           1.204  -0.681  -0.013  0.00  0.00     0.017 A 
ATOM      3  C3  <0> d           2.404   0.034  -0.021  0.00  0.00     0.033 A 
ATOM      4  C4  <0> d           2.377   1.430  -0.013  0.00  0.00     0.040 A 
ATOM      5  C5  <0> d           1.169   2.094   0.002  0.00  0.00     0.060 A 
ATOM      6  C6  <0> d          -0.017   1.379   0.010  0.00  0.00     0.023 A 
ENDROOT
BRANCH   5   7
ATOM      7  S1  <0> d           1.133   3.855   0.012  0.00  0.00     0.180 S 
ATOM      8  O1  <0> d           2.354   4.246  -0.601  0.00  0.00    -0.222 OA
ATOM      9  O2  <0> d          -0.114   4.196  -0.577  0.00  0.00    -0.222 OA
BRANCH   7  10
ATOM     10  C7  <0> d           1.141   4.312   1.768  0.00  0.00     0.128 C 
ATOM     11  C10 <0> d          -0.057   3.634   2.492  0.00  0.00     0.160 C 
ATOM     12  S2  <0> d          -0.186   4.692   3.994  0.00  0.00     0.145 S 
ATOM     13  C9  <0> d           0.670   6.199   3.379  0.00  0.00     0.142 C 
ATOM     14  O3  <0> d           0.589   4.113   5.035  0.00  0.00    -0.228 OA
ATOM     15  O4  <0> d          -1.553   5.000   4.229  0.00  0.00    -0.228 OA
ATOM     16  C8  <0> d           0.985   5.835   1.909  0.00  0.00     0.036 C 
ENDBRANCH   7  10
ENDBRANCH   5   7
BRANCH   3  17
ATOM     17  C11 <0> d           3.695  -0.684  -0.037  0.00  0.00     0.257 C 
ATOM     18  O5  <0> d           4.738  -0.060  -0.044  0.00  0.00    -0.267 OA
ATOM     19  N1  <0> d           3.717  -2.032  -0.045  0.00  0.00    -0.301 N 
ATOM     20  H12 <0> d           2.885  -2.531  -0.040  0.00  0.00     0.171 HD
BRANCH  19  21
ATOM     21  C12 <0> d           4.931  -2.707  -0.061  0.00  0.00     0.173 A 
ATOM     22  S3  <0> d           5.228  -4.418  -0.073  0.00  0.00    -0.062 SA
ATOM     23  C14 <0> d           7.013  -4.344  -0.090  0.00  0.00     0.072 A 
ATOM     24  C13 <0> d           7.210  -3.002  -0.085  0.00  0.00     0.126 A 
ATOM     25  N2  <0> d           6.154  -2.213  -0.076  0.00  0.00    -0.236 NA
ENDBRANCH  19  21
ENDBRANCH   3  17
TORSDOF 4
