REMARK  5 active torsions:
REMARK  status: ('A' for Active; 'I' for Inactive)
REMARK    1  A    between atoms: C2_2  and  O1_3 
REMARK    2  A    between atoms: O1_3  and  C3_4 
REMARK    3  A    between atoms: N2_16  and  S1_21 
REMARK    4  A    between atoms: C14_18  and  O3_19 
REMARK    5  A    between atoms: S1_21  and  C16_24 
ROOT
ATOM      1  C3  <0> d          -1.498  -1.844   0.006  0.00  0.00     0.086 A 
ATOM      2  C4  <0> d          -0.398  -2.700  -0.003  0.00  0.00     0.057 A 
ATOM      3  C5  <0> d          -0.594  -4.067  -0.017  0.00  0.00     0.120 A 
ATOM      4  N1  <0> d          -1.805  -4.595  -0.037  0.00  0.00    -0.258 NA
ATOM      5  C6  <0> d          -2.886  -3.836  -0.038  0.00  0.00     0.101 A 
ATOM      6  C7  <0> d          -2.775  -2.423   0.015  0.00  0.00     0.074 A 
ATOM      7  C8  <0> d          -3.994  -1.629   0.095  0.00  0.00     0.165 C 
ATOM      8  O2  <0> d          -4.308  -1.126   1.153  0.00  0.00    -0.292 OA
ATOM      9  C9  <0> d          -4.874  -1.418  -1.115  0.00  0.00     0.089 C 
ATOM     10  C10 <0> d          -5.015  -2.746  -1.873  0.00  0.00     0.052 C 
ATOM     11  C11 <0> d          -5.224  -3.883  -0.911  0.00  0.00     0.008 A 
ATOM     12  C12 <0> d          -4.250  -4.390  -0.096  0.00  0.00     0.089 A 
ATOM     13  N2  <0> d          -4.790  -5.426   0.608  0.00  0.00    -0.238 N 
ATOM     14  C13 <0> d          -6.101  -5.556   0.246  0.00  0.00     0.058 A 
ATOM     15  C14 <0> d          -6.388  -4.619  -0.677  0.00  0.00     0.097 A 
ATOM     16  C15 <0> d          -7.069  -6.571   0.798  0.00  0.00     0.072 C 
ENDROOT
BRANCH  13  17
ATOM     17  S1  <0> d          -3.991  -6.365   1.713  0.00  0.00     0.240 S 
ATOM     18  O4  <0> d          -4.689  -7.603   1.708  0.00  0.00    -0.205 OA
ATOM     19  O5  <0> d          -2.626  -6.302   1.325  0.00  0.00    -0.205 OA
BRANCH  17  20
ATOM     20  C16 <0> d          -4.229  -5.521   3.301  0.00  0.00     0.122 C 
ATOM     21  C17 <0> d          -3.424  -6.240   4.386  0.00  0.00     0.027 C 
ATOM     22  C18 <0> d          -3.750  -4.073   3.186  0.00  0.00     0.027 C 
ENDBRANCH  17  20
ENDBRANCH  13  17
BRANCH  15  23
ATOM     23  O3  <0> d          -7.594  -4.430  -1.280  0.00  0.00    -0.358 OA
ATOM     24  H12 <0> d          -7.713  -4.942  -2.092  0.00  0.00     0.217 HD
ENDBRANCH  15  23
BRANCH   1  25
ATOM     25  O1  <0> d          -1.339  -0.499   0.012  0.00  0.00    -0.350 OA
BRANCH  25  26
ATOM     26  C2  <0> d           0.002  -0.004   0.002  0.00  0.00     0.171 C 
ATOM     27  C1  <0> d          -0.019   1.526   0.010  0.00  0.00     0.034 C 
ENDBRANCH  25  26
ENDBRANCH   1  25
TORSDOF 5
