REMARK  7 active torsions:
REMARK  status: ('A' for Active; 'I' for Inactive)
REMARK    1  A    between atoms: C7_7  and  N1_8 
REMARK       I    between atoms: N1_8  and  C8_9 
REMARK       I    between atoms: C8_9  and  N2_11 
REMARK    2  A    between atoms: N3_14  and  C13_17 
REMARK    3  A    between atoms: C13_17  and  C14_18 
REMARK    4  A    between atoms: C14_18  and  N4_19 
REMARK    5  A    between atoms: N4_19  and  C15_20 
REMARK       I    between atoms: N4_19  and  C25_30 
REMARK    6  A    between atoms: C15_20  and  C16_21 
REMARK    7  A    between atoms: C25_30  and  C26_32 
ROOT
ATOM      1  C14 <0> d          -1.792   0.897  10.115  0.00  0.00     0.154 C 
ENDROOT
BRANCH   1   2
ATOM      2  C13 <0> d          -1.885   0.646   8.609  0.00  0.00     0.254 C 
BRANCH   2   3
ATOM      3  N3  <0> d          -0.600   0.130   8.119  0.00  0.00    -0.067 N 
ATOM      4  C10 <0> d          -0.652   0.002   6.657  0.00  0.00     0.254 C 
ATOM      5  C9  <0> d           0.723  -0.426   6.134  0.00  0.00     0.155 C 
ATOM      6  N2  <0> d           1.128  -1.654   6.837  0.00  0.00    -0.331 N 
ATOM      7  C8  <0> d           1.554  -2.735   6.154  0.00  0.00     0.323 C 
ATOM      8  C12 <0> d           1.048  -1.670   8.305  0.00  0.00     0.155 C 
ATOM      9  N1  <0> d           1.710  -2.669   4.817  0.00  0.00    -0.308 N 
ATOM     10  O1  <0> d           1.799  -3.769   6.744  0.00  0.00    -0.247 OA
ATOM     11  H10 <0> d           1.562  -1.831   4.352  0.00  0.00     0.170 HD
ATOM     12  C11 <0> d          -0.337  -1.181   8.726  0.00  0.00     0.254 C 
ATOM     13  H40 <0> d           0.136   0.771   8.373  0.00  0.00     0.280 HD
BRANCH   9  14
ATOM     14  C7  <0> d           2.084  -3.811   4.099  0.00  0.00     0.042 A 
ATOM     15  C2  <0> d           2.053  -3.801   2.711  0.00  0.00    -0.035 A 
ATOM     16  C1  <0> d           1.615  -2.561   1.975  0.00  0.00     0.050 C 
ATOM     17  C3  <0> d           2.428  -4.928   2.005  0.00  0.00     0.009 A 
ATOM     18  C4  <0> d           2.829  -6.066   2.680  0.00  0.00     0.001 A 
ATOM     19  C5  <0> d           2.856  -6.081   4.062  0.00  0.00     0.002 A 
ATOM     20  C6  <0> d           2.482  -4.958   4.774  0.00  0.00     0.030 A 
ENDBRANCH   9  14
ENDBRANCH   2   3
ENDBRANCH   1   2
BRANCH   1  21
ATOM     21  N4  <0> d          -3.074   1.412  10.604  0.00  0.00    -0.342 N 
ATOM     22  C25 <0> d          -3.187   2.705  10.968  0.00  0.00     0.255 C 
ATOM     23  O2  <0> d          -4.245   3.127  11.392  0.00  0.00    -0.267 OA
BRANCH  21  24
ATOM     24  C15 <0> d          -4.233   0.521  10.698  0.00  0.00     0.160 C 
BRANCH  24  25
ATOM     25  C16 <0> d          -4.327  -0.035  12.095  0.00  0.00    -0.061 C 
ATOM     26  C21 <0> d          -3.521  -1.252  12.516  0.00  0.00     0.024 C 
ATOM     27  C20 <0> d          -4.477  -2.260  13.250  0.00  0.00     0.015 C 
ATOM     28  C22 <0> d          -2.880  -1.038  13.904  0.00  0.00    -0.036 C 
ATOM     29  C19 <0> d          -4.290  -1.327  14.459  0.00  0.00    -0.002 C 
ATOM     30  C18 <0> d          -5.173  -0.074  14.386  0.00  0.00     0.033 C 
ATOM     31  C17 <0> d          -5.114   0.509  12.995  0.00  0.00    -0.021 C 
ATOM     32  C23 <0> d          -1.839  -2.097  14.275  0.00  0.00     0.016 C 
ATOM     33  C24 <0> d          -2.398   0.392  14.155  0.00  0.00     0.016 C 
ENDBRANCH  24  25
ENDBRANCH  21  24
BRANCH  22  34
ATOM     34  C26 <0> d          -2.024   3.609  10.851  0.00  0.00     0.053 A 
ATOM     35  C31 <0> d          -1.908   4.717  11.694  0.00  0.00     0.049 A 
ATOM     36  C30 <0> d          -0.816   5.555  11.582  0.00  0.00     0.025 A 
ATOM     37 Cl1  <0> d          -3.132   5.036  12.884  0.00  0.00    -0.083 Cl
ATOM     38  C29 <0> d           0.156   5.305  10.630  0.00  0.00     0.002 A 
ATOM     39  C28 <0> d           0.044   4.212   9.788  0.00  0.00     0.001 A 
ATOM     40  C27 <0> d          -1.038   3.364   9.893  0.00  0.00     0.019 A 
ENDBRANCH  22  34
ENDBRANCH   1  21
TORSDOF 7
