REMARK  5 active torsions:
REMARK  status: ('A' for Active; 'I' for Inactive)
REMARK    1  A    between atoms: C6_6  and  C11_12 
REMARK    2  A    between atoms: C11_12  and  C12_13 
REMARK       I    between atoms: C12_13  and  N1_15 
REMARK    3  A    between atoms: N1_15  and  C13_16 
REMARK    4  A    between atoms: C13_16  and  C14_17 
REMARK    5  A    between atoms: N4_21  and  C16_22 
ROOT
ATOM      1  C12 <0> d           1.489  -5.643  -1.072  0.00  0.00     0.222 C 
ATOM      2  O2  <0> d           2.400  -4.971  -0.638  0.00  0.00    -0.273 OA
ATOM      3  N1  <0> d           1.744  -6.648  -1.933  0.00  0.00    -0.354 N 
ATOM      4  H12 <0> d           1.015  -7.185  -2.281  0.00  0.00     0.162 HD
ENDROOT
BRANCH   1   5
ATOM      5  C11 <0> d           0.071  -5.354  -0.650  0.00  0.00     0.144 C 
BRANCH   5   6
ATOM      6  C6  <0> d           0.060  -4.191   0.309  0.00  0.00    -0.014 A 
ATOM      7  C5  <0> d           0.039  -2.764  -0.035  0.00  0.00     0.007 A 
ATOM      8  C4  <0> d           0.024  -2.051  -1.233  0.00  0.00     0.015 A 
ATOM      9  C8  <0> d           0.036  -2.082   1.192  0.00  0.00     0.092 A 
ATOM     10  C3  <0> d           0.006  -0.684  -1.207  0.00  0.00     0.008 A 
ATOM     11  C2  <0> d           0.002  -0.004   0.002  0.00  0.00    -0.053 A 
ATOM     12  C1  <0> d          -0.018   1.503   0.010  0.00  0.00     0.049 C 
ATOM     13  C9  <0> d           0.023  -0.693   1.196  0.00  0.00    -0.021 A 
ATOM     14  C10 <0> d           0.025   0.060   2.502  0.00  0.00     0.052 C 
ATOM     15  O1  <0> d           0.054  -3.012   2.168  0.00  0.00    -0.321 OA
ATOM     16  C7  <0> d           0.068  -4.252   1.648  0.00  0.00     0.151 A 
ENDBRANCH   5   6
ENDBRANCH   1   5
BRANCH   3  17
ATOM     17  C13 <0> d           3.121  -6.929  -2.344  0.00  0.00     0.203 C 
BRANCH  17  18
ATOM     18  C14 <0> d           3.132  -8.092  -3.303  0.00  0.00     0.147 A 
ATOM     19  N4  <0> d           4.249  -8.631  -3.892  0.00  0.00    -0.304 N 
ATOM     20  C15 <0> d           3.862  -9.654  -4.679  0.00  0.00     0.196 A 
ATOM     21  N3  <0> d           2.518  -9.746  -4.590  0.00  0.00    -0.251 N 
ATOM     22  S1  <0> d           4.885 -10.650  -5.625  0.00  0.00    -0.039 SA
ATOM     23  N2  <0> d           2.090  -8.742  -3.710  0.00  0.00    -0.157 NA
ATOM     24  H22 <0> d           1.954 -10.388  -5.048  0.00  0.00     0.191 HD
BRANCH  19  25
ATOM     25  C16 <0> d           5.628  -8.174  -3.696  0.00  0.00     0.086 C 
ATOM     26  C17 <0> d           6.466  -9.317  -3.119  0.00  0.00     0.032 C 
ATOM     27  C18 <0> d           6.216  -7.737  -5.039  0.00  0.00     0.032 C 
ENDBRANCH  19  25
ENDBRANCH  17  18
ENDBRANCH   3  17
TORSDOF 5
