REMARK  5 active torsions:
REMARK  status: ('A' for Active; 'I' for Inactive)
REMARK    1  A    between atoms: C4_4  and  N2_10 
REMARK       I    between atoms: N2_10  and  C9_11 
REMARK    2  A    between atoms: C9_11  and  C10_13 
REMARK    3  A    between atoms: C10_13  and  C11_14 
REMARK    4  A    between atoms: C11_14  and  C12_15 
REMARK    5  A    between atoms: C13_17  and  C14_20 
ROOT
ATOM      1  N2  <0> d          -1.195   2.161   0.019  0.00  0.00    -0.356 N 
ATOM      2  C9  <0> d          -0.018   1.503   0.010  0.00  0.00     0.218 C 
ATOM      3  O1  <0> d           1.024   2.123   0.004  0.00  0.00    -0.274 OA
ATOM      4  H16 <0> d          -2.140   1.598   0.021  0.00  0.00     0.162 HD
ENDROOT
BRANCH   1   5
ATOM      5  C4  <0> d          -1.214   3.629   0.028  0.00  0.00     0.089 C 
ATOM      6  C3  <0> d          -2.532   4.118  -0.574  0.00  0.00     0.063 C 
ATOM      7  C2  <0> d          -2.591   5.643  -0.557  0.00  0.00     0.121 C 
ATOM      8  C1  <0> d          -1.687   6.203  -1.662  0.00  0.00     0.046 C 
ATOM      9  N1  <0> d          -2.251   6.208   0.732  0.00  0.00    -0.059 N 
ATOM     10  C18 <0> d          -4.040   6.056  -0.898  0.00  0.00     0.046 C 
ATOM     11  C6  <0> d          -1.164   5.651   1.510  0.00  0.00     0.121 C 
ATOM     12  H9  <0> d          -1.970   7.265   0.607  0.00  0.00     0.279 HD
ATOM     13  H27 <0> d          -3.119   6.137   1.404  0.00  0.00     0.279 HD
ATOM     14  C5  <0> d          -1.125   4.126   1.470  0.00  0.00     0.063 C 
ATOM     15  C7  <0> d           0.188   6.211   1.053  0.00  0.00     0.046 C 
ATOM     16  C8  <0> d          -1.360   6.073   2.983  0.00  0.00     0.046 C 
ENDBRANCH   1   5
BRANCH   2  17
ATOM     17  C10 <0> d           0.002  -0.004   0.002  0.00  0.00     0.111 C 
BRANCH  17  18
ATOM     18  C11 <0> d           1.451  -0.494  -0.015  0.00  0.00     0.098 C 
BRANCH  18  19
ATOM     19  C12 <0> d           1.472  -2.001  -0.023  0.00  0.00     0.173 A 
ATOM     20  O2  <0> d           1.492  -2.801   1.048  0.00  0.00    -0.196 OA
ATOM     21  N4  <0> d           1.505  -3.962   0.700  0.00  0.00    -0.106 NA
ATOM     22  C13 <0> d           1.494  -4.040  -0.606  0.00  0.00     0.189 A 
ATOM     23  N3  <0> d           1.467  -2.773  -1.081  0.00  0.00    -0.204 NA
BRANCH  22  24
ATOM     24  C14 <0> d           1.503  -5.282  -1.415  0.00  0.00     0.021 A 
ATOM     25  C17 <0> d           1.490  -5.230  -2.778  0.00  0.00     0.065 A 
ATOM     26  S1  <0> d           1.508  -6.903  -3.229  0.00  0.00    -0.113 SA
ATOM     27  C16 <0> d           1.533  -7.624  -1.599  0.00  0.00     0.050 A 
ATOM     28  C15 <0> d           1.531  -6.533  -0.801  0.00  0.00     0.023 A 
ENDBRANCH  22  24
ENDBRANCH  18  19
ENDBRANCH  17  18
ENDBRANCH   2  17
TORSDOF 5
