REMARK  6 active torsions:
REMARK  status: ('A' for Active; 'I' for Inactive)
REMARK    1  A    between atoms: C14_16  and  C15_17 
REMARK    2  A    between atoms: C15_17  and  N1_18 
REMARK    3  A    between atoms: N1_18  and  C16_19 
REMARK    4  A    between atoms: C16_19  and  C17_20 
REMARK    5  A    between atoms: C17_20  and  C18_21 
REMARK    6  A    between atoms: C21_24  and  O3_30 
ROOT
ATOM      1  C15 <0> d           4.370   1.449   1.271  0.00  0.00     0.247 C 
ENDROOT
BRANCH   1   2
ATOM      2  C14 <0> d           4.084   0.786  -0.078  0.00  0.00     0.117 C 
ATOM      3  C10 <0> d           2.945  -0.268   0.060  0.00  0.00     0.031 C 
ATOM      4  C9  <0> d           2.120   0.142   1.282  0.00  0.00     0.018 C 
ATOM      5  C11 <0> d           2.168  -0.009  -1.245  0.00  0.00     0.137 C 
ATOM      6  C8  <0> d           0.744  -0.517   1.245  0.00  0.00     0.022 C 
ATOM      7  C2  <0> d           0.002  -0.004   0.002  0.00  0.00    -0.034 C 
ATOM      8  C6  <0> d          -0.044  -0.113   2.469  0.00  0.00    -0.084 C 
ATOM      9  C1  <0> d          -0.019   1.526   0.010  0.00  0.00     0.016 C 
ATOM     10  C12 <0> d           0.755  -0.501  -1.232  0.00  0.00     0.042 C 
ATOM     11  C3  <0> d          -1.429  -0.537   0.016  0.00  0.00     0.010 C 
ATOM     12  C4  <0> d          -2.179   0.028   1.224  0.00  0.00     0.005 C 
ATOM     13  C5  <0> d          -1.516  -0.463   2.515  0.00  0.00     0.034 C 
ATOM     14  C7  <0> d           0.530   0.522   3.461  0.00  0.00     0.014 C 
ATOM     15  O1  <0> d           2.239   1.412  -1.407  0.00  0.00    -0.315 OA
ATOM     16  C13 <0> d           3.493   1.796  -1.078  0.00  0.00     0.265 C 
ATOM     17  O2  <0> d           4.061   2.774  -1.502  0.00  0.00    -0.265 OA
ENDBRANCH   1   2
BRANCH   1  18
ATOM     18  N1  <0> d           5.524   2.349   1.140  0.00  0.00    -0.074 N 
ATOM     19  H22 <0> d           6.332   1.820   0.847  0.00  0.00     0.277 HD
ATOM     20  H36 <0> d           5.320   3.059   0.453  0.00  0.00     0.277 HD
BRANCH  18  21
ATOM     21  C16 <0> d           5.799   2.985   2.436  0.00  0.00     0.236 C 
BRANCH  21  22
ATOM     22  C17 <0> d           7.000   3.922   2.299  0.00  0.00     0.064 C 
BRANCH  22  23
ATOM     23  C18 <0> d           7.282   4.574   3.628  0.00  0.00    -0.048 A 
ATOM     24  C25 <0> d           6.632   5.821   4.185  0.00  0.00     0.155 A 
ATOM     25  N2  <0> d           7.243   6.040   5.501  0.00  0.00    -0.385 N 
ATOM     26  C24 <0> d           8.125   5.096   5.714  0.00  0.00     0.039 A 
ATOM     27  H35 <0> d           7.032   6.765   6.109  0.00  0.00     0.160 HD
ATOM     28  C19 <0> d           8.171   4.166   4.561  0.00  0.00    -0.003 A 
ATOM     29  C23 <0> d           9.020   4.827   6.843  0.00  0.00     0.033 A 
ATOM     30  C20 <0> d           9.106   3.037   4.619  0.00  0.00     0.050 A 
ATOM     31  C21 <0> d           9.892   2.877   5.711  0.00  0.00     0.069 A 
ATOM     32  C22 <0> d           9.847   3.760   6.804  0.00  0.00     0.039 A 
BRANCH  31  33
ATOM     33  O3  <0> d          10.753   1.826   5.751  0.00  0.00    -0.356 OA
ATOM     34  C26 <0> d          11.563   1.695   6.921  0.00  0.00     0.210 C 
ENDBRANCH  31  33
ENDBRANCH  22  23
ENDBRANCH  21  22
ENDBRANCH  18  21
ENDBRANCH   1  18
TORSDOF 6
