REMARK  7 active torsions:
REMARK  status: ('A' for Active; 'I' for Inactive)
REMARK    1  A    between atoms: C5_5  and  O4_29 
REMARK    2  A    between atoms: C6_6  and  C8_8 
REMARK    3  A    between atoms: N3_16  and  C19_25 
REMARK    4  A    between atoms: C12_17  and  C13_18 
REMARK    5  A    between atoms: C17_22  and  O2_24 
REMARK    6  A    between atoms: C19_25  and  C20_26 
REMARK    7  A    between atoms: C20_26  and  O3_27 
ROOT
ATOM      1  C8  <0> d           0.312  -2.933   2.924  0.00  0.00     0.101 A 
ATOM      2  C9  <0> d           0.277  -4.330   2.850  0.00  0.00     0.034 A 
ATOM      3  C10 <0> d           0.199  -4.775   4.155  0.00  0.00     0.129 A 
ATOM      4  N1  <0> d           0.191  -3.655   4.938  0.00  0.00    -0.272 N 
ATOM      5  H1  <0> d           0.142  -3.653   5.907  0.00  0.00     0.189 HD
ATOM      6  N2  <0> d           0.262  -2.605   4.200  0.00  0.00    -0.173 NA
ATOM      7  C11 <0> d           0.159  -6.241   4.147  0.00  0.00     0.273 A 
ATOM      8  O1  <0> d           0.089  -6.940   5.140  0.00  0.00    -0.266 OA
ATOM      9  N3  <0> d           0.209  -6.704   2.885  0.00  0.00    -0.332 N 
ATOM     10  C12 <0> d           0.287  -5.553   1.975  0.00  0.00     0.159 A 
ENDROOT
BRANCH   1  11
ATOM     11  C6  <0> d           0.397  -1.994   1.778  0.00  0.00     0.029 A 
ATOM     12  C5  <0> d           1.315  -0.941   1.800  0.00  0.00     0.078 A 
ATOM     13  C4  <0> d           1.388  -0.069   0.726  0.00  0.00     0.038 A 
ATOM     14  C3  <0> d           0.555  -0.241  -0.363  0.00  0.00     0.009 A 
ATOM     15  C2  <0> d          -0.355  -1.283  -0.388  0.00  0.00    -0.061 A 
ATOM     16  C1  <0> d          -1.259  -1.463  -1.580  0.00  0.00     0.048 C 
ATOM     17  C7  <0> d          -0.442  -2.155   0.678  0.00  0.00     0.023 A 
BRANCH  12  18
ATOM     18  O4  <0> d           2.134  -0.773   2.872  0.00  0.00    -0.360 OA
ATOM     19  H21 <0> d           1.796  -0.152   3.532  0.00  0.00     0.217 HD
ENDBRANCH  12  18
ENDBRANCH   1  11
BRANCH  10  20
ATOM     20  C13 <0> d           1.564  -5.609   1.176  0.00  0.00    -0.028 A 
ATOM     21  C18 <0> d           1.546  -5.321  -0.175  0.00  0.00     0.046 A 
ATOM     22  C17 <0> d           2.722  -5.366  -0.908  0.00  0.00     0.066 A 
ATOM     23  C16 <0> d           3.912  -5.713  -0.286  0.00  0.00     0.036 A 
ATOM     24  C15 <0> d           3.924  -6.007   1.064  0.00  0.00     0.003 A 
ATOM     25  C14 <0> d           2.752  -5.955   1.794  0.00  0.00     0.010 A 
BRANCH  22  26
ATOM     26  O2  <0> d           2.708  -5.077  -2.236  0.00  0.00    -0.361 OA
ATOM     27  H13 <0> d           2.552  -5.844  -2.804  0.00  0.00     0.217 HD
ENDBRANCH  22  26
ENDBRANCH  10  20
BRANCH   9  28
ATOM     28  C19 <0> d           0.190  -8.114   2.486  0.00  0.00     0.153 C 
BRANCH  28  29
ATOM     29  C20 <0> d          -1.257  -8.564   2.274  0.00  0.00     0.187 C 
BRANCH  29  30
ATOM     30  O3  <0> d          -1.821  -7.851   1.171  0.00  0.00    -0.394 OA
ATOM     31  C21 <0> d          -3.178  -8.198   0.887  0.00  0.00     0.201 C 
ENDBRANCH  29  30
ENDBRANCH  28  29
ENDBRANCH   9  28
TORSDOF 7
