REMARK  4 active torsions:
REMARK  status: ('A' for Active; 'I' for Inactive)
REMARK    1  A    between atoms: C2_2  and  N1_3 
REMARK    2  A    between atoms: C13_14  and  N2_16 
REMARK       I    between atoms: N2_16  and  C15_17 
REMARK    3  A    between atoms: C15_17  and  C16_19 
REMARK       I    between atoms: C16_19  and  N3_21 
REMARK    4  A    between atoms: N3_21  and  C17_22 
ROOT
ATOM      1  N1  <0> d           0.677  -0.533  -1.194  0.00  0.00    -0.346 N 
ATOM      2  C3  <0> d           0.037  -0.982  -2.335  0.00  0.00     0.046 A 
ATOM      3  C4  <0> d          -1.303  -0.998  -2.713  0.00  0.00     0.030 A 
ATOM      4  C5  <0> d          -1.668  -1.516  -3.936  0.00  0.00     0.002 A 
ATOM      5  C6  <0> d          -0.711  -2.024  -4.801  0.00  0.00     0.001 A 
ATOM      6  C7  <0> d           0.620  -2.017  -4.446  0.00  0.00     0.014 A 
ATOM      7  C8  <0> d           1.003  -1.496  -3.212  0.00  0.00     0.003 A 
ATOM      8  C9  <0> d           2.306  -1.340  -2.538  0.00  0.00     0.005 A 
ATOM      9  C10 <0> d           2.043  -0.735  -1.300  0.00  0.00     0.046 A 
ATOM     10  C11 <0> d           3.100  -0.455  -0.438  0.00  0.00     0.033 A 
ATOM     11  C12 <0> d           4.391  -0.767  -0.802  0.00  0.00     0.032 A 
ATOM     12  C13 <0> d           4.654  -1.363  -2.033  0.00  0.00     0.036 A 
ATOM     13  C14 <0> d           3.613  -1.658  -2.897  0.00  0.00     0.044 A 
ENDROOT
BRANCH  12  14
ATOM     14  N2  <0> d           5.970  -1.675  -2.392  0.00  0.00    -0.319 N 
ATOM     15  C15 <0> d           6.351  -1.603  -3.683  0.00  0.00     0.313 C 
ATOM     16  O1  <0> d           5.582  -1.177  -4.520  0.00  0.00    -0.262 OA
ATOM     17  H14 <0> d           6.608  -1.942  -1.712  0.00  0.00     0.169 HD
BRANCH  15  18
ATOM     18  C16 <0> d           7.719  -2.047  -4.083  0.00  0.00     0.310 C 
ATOM     19  O2  <0> d           8.488  -2.473  -3.246  0.00  0.00    -0.262 OA
ATOM     20  N3  <0> d           8.100  -1.976  -5.373  0.00  0.00    -0.347 N 
ATOM     21  H15 <0> d           7.486  -1.635  -6.043  0.00  0.00     0.163 HD
BRANCH  20  22
ATOM     22  C17 <0> d           9.443  -2.412  -5.766  0.00  0.00     0.099 C 
ATOM     23  C20 <0> d           9.442  -2.832  -7.263  0.00  0.00     0.165 C 
ATOM     24  S1  <0> d          11.241  -2.728  -7.645  0.00  0.00     0.146 S 
ATOM     25  C19 <0> d          11.772  -1.591  -6.300  0.00  0.00     0.142 C 
ATOM     26  O3  <0> d          11.833  -4.003  -7.433  0.00  0.00    -0.228 OA
ATOM     27  O4  <0> d          11.412  -2.077  -8.896  0.00  0.00    -0.228 OA
ATOM     28  C18 <0> d          10.436  -1.250  -5.596  0.00  0.00     0.041 C 
ENDBRANCH  20  22
ENDBRANCH  15  18
ENDBRANCH  12  14
BRANCH   1  29
ATOM     29  C2  <0> d           0.007   0.073  -0.041  0.00  0.00     0.125 C 
ATOM     30  C1  <0> d          -0.080   1.587  -0.240  0.00  0.00     0.027 C 
ENDBRANCH   1  29
TORSDOF 4
