REMARK  1 active torsions:
REMARK  status: ('A' for Active; 'I' for Inactive)
REMARK    1  A    between atoms: O1_2  and  C2_3 
ROOT
ATOM      1  C2  <0> d           0.619  -0.478  -1.196  0.00  0.00     0.159 C 
ATOM      2  C3  <0> d           1.242  -1.840  -0.925  0.00  0.00     0.077 C 
ATOM      3  C4  <0> d           0.224  -2.951  -1.145  0.00  0.00     0.096 C 
ATOM      4  C5  <0> d           0.858  -4.322  -0.857  0.00  0.00     0.068 C 
ATOM      5  C6  <0> d           0.026  -4.908   0.305  0.00  0.00     0.235 C 
ATOM      6  N1  <0> d          -1.286  -4.216   0.213  0.00  0.00    -0.072 N 
ATOM      7  C7  <0> d          -0.939  -2.816  -0.146  0.00  0.00     0.270 C 
ATOM      8  O2  <0> d          -0.266  -2.903  -2.482  0.00  0.00    -0.338 OA
ATOM      9  C8  <0> d          -0.804  -1.718  -2.880  0.00  0.00     0.079 A 
ATOM     10  C9  <0> d          -0.412  -0.531  -2.287  0.00  0.00     0.006 A 
ATOM     11  C10 <0> d          -0.988   0.657  -2.712  0.00  0.00     0.036 A 
ATOM     12  C11 <0> d          -1.937   0.657  -3.715  0.00  0.00     0.034 A 
ATOM     13  C12 <0> d          -2.322  -0.533  -4.306  0.00  0.00     0.026 A 
ATOM     14  C13 <0> d          -1.756  -1.716  -3.890  0.00  0.00     0.039 A 
ATOM     15 Cl1  <0> d          -2.648   2.153  -4.235  0.00  0.00    -0.084 Cl
ATOM     16  H11 <0> d          -1.855  -4.634  -0.508  0.00  0.00     0.277 HD
ATOM     17  H17 <0> d          -1.763  -4.245   1.102  0.00  0.00     0.277 HD
ENDROOT
BRANCH   1  18
ATOM     18  O1  <0> d           0.002  -0.004   0.002  0.00  0.00    -0.386 OA
ATOM     19  C1  <0> d           0.887   0.709   0.869  0.00  0.00     0.202 C 
ENDBRANCH   1  18
TORSDOF 1
