REMARK  7 active torsions:
REMARK  status: ('A' for Active; 'I' for Inactive)
REMARK    1  A    between atoms: C2_2  and  O1_3 
REMARK    2  A    between atoms: O1_3  and  C3_4 
REMARK    3  A    between atoms: C6_7  and  C9_10 
REMARK    4  A    between atoms: C9_10  and  C10_11 
REMARK    5  A    between atoms: C10_11  and  N1_12 
REMARK       I    between atoms: N1_12  and  C11_13 
REMARK    6  A    between atoms: C11_13  and  C12_15 
REMARK       I    between atoms: N2_17  and  C20_25 
REMARK    7  A    between atoms: C20_25  and  C21_27 
ROOT
ATOM      1  C12 <0> d          -0.296 -11.028  -3.426  0.00  0.00     0.106 C 
ATOM      2  C13 <0> d          -0.518 -11.595  -2.006  0.00  0.00     0.141 C 
ATOM      3  N2  <0> d          -1.990 -11.605  -1.833  0.00  0.00    -0.345 N 
ATOM      4  C14 <0> d          -2.514 -12.029  -3.153  0.00  0.00     0.136 C 
ATOM      5  C15 <0> d          -1.607 -11.318  -4.176  0.00  0.00    -0.007 C 
ATOM      6  C16 <0> d          -1.341 -12.230  -5.370  0.00  0.00     0.039 C 
ATOM      7  C17 <0> d          -2.648 -12.457  -6.135  0.00  0.00     0.233 C 
ATOM      8  N3  <0> d          -3.182 -11.167  -6.588  0.00  0.00    -0.075 N 
ATOM      9  C18 <0> d          -3.522 -10.331  -5.430  0.00  0.00     0.233 C 
ATOM     10  C19 <0> d          -2.252 -10.014  -4.636  0.00  0.00     0.039 C 
ATOM     11  C20 <0> d          -2.693 -11.298  -0.725  0.00  0.00     0.270 C 
ATOM     12  O3  <0> d          -3.886 -11.535  -0.676  0.00  0.00    -0.266 OA
ATOM     13  H24 <0> d          -2.489 -10.696  -7.149  0.00  0.00     0.277 HD
ATOM     14  H35 <0> d          -4.011 -11.323  -7.143  0.00  0.00     0.277 HD
ENDROOT
BRANCH   1  15
ATOM     15  C11 <0> d          -0.045  -9.543  -3.364  0.00  0.00     0.224 C 
ATOM     16  N1  <0> d           0.743  -8.954  -4.286  0.00  0.00    -0.360 N 
ATOM     17  H15 <0> d           1.148  -9.486  -4.989  0.00  0.00     0.162 HD
ATOM     18  O2  <0> d          -0.551  -8.878  -2.485  0.00  0.00    -0.273 OA
BRANCH  16  19
ATOM     19  C10 <0> d           0.988  -7.511  -4.226  0.00  0.00     0.127 C 
BRANCH  19  20
ATOM     20  C9  <0> d           1.907  -7.102  -5.378  0.00  0.00     0.058 C 
BRANCH  20  21
ATOM     21  C6  <0> d           2.159  -5.617  -5.317  0.00  0.00    -0.057 A 
ATOM     22  C5  <0> d           3.231  -5.128  -4.593  0.00  0.00     0.010 A 
ATOM     23  C4  <0> d           3.464  -3.768  -4.535  0.00  0.00     0.037 A 
ATOM     24  C3  <0> d           2.621  -2.892  -5.204  0.00  0.00     0.068 A 
ATOM     25  C8  <0> d           1.543  -3.385  -5.925  0.00  0.00     0.037 A 
ATOM     26  C7  <0> d           1.317  -4.746  -5.984  0.00  0.00     0.010 A 
BRANCH  24  27
ATOM     27  O1  <0> d           2.848  -1.553  -5.148  0.00  0.00    -0.352 OA
BRANCH  27  28
ATOM     28  C2  <0> d           3.977  -1.118  -4.388  0.00  0.00     0.171 C 
ATOM     29  C1  <0> d           4.069   0.409  -4.441  0.00  0.00     0.034 C 
ENDBRANCH  27  28
ENDBRANCH  24  27
ENDBRANCH  20  21
ENDBRANCH  19  20
ENDBRANCH  16  19
ENDBRANCH   1  15
BRANCH  11  30
ATOM     30  C21 <0> d          -2.022 -10.678   0.422  0.00  0.00     0.102 A 
ATOM     31  N4  <0> d          -2.498 -10.624   1.713  0.00  0.00    -0.357 N 
ATOM     32  C24 <0> d          -1.591  -9.973   2.482  0.00  0.00     0.091 A 
ATOM     33  C25 <0> d          -3.771 -11.180   2.178  0.00  0.00     0.156 C 
ATOM     34  C23 <0> d          -0.545  -9.600   1.706  0.00  0.00     0.020 A 
ATOM     35  C22 <0> d          -0.801 -10.037   0.403  0.00  0.00     0.037 A 
ENDBRANCH  11  30
TORSDOF 7
