REMARK  4 active torsions:
REMARK  status: ('A' for Active; 'I' for Inactive)
REMARK    1  A    between atoms: C5_6  and  C9_11 
REMARK    2  A    between atoms: C9_11  and  C10_12 
REMARK    3  A    between atoms: C10_12  and  N2_13 
REMARK       I    between atoms: N2_13  and  C11_14 
REMARK    4  A    between atoms: C11_14  and  C12_16 
ROOT
ATOM      1  N2  <0> d           5.000  -3.595  -1.503  0.00  0.00    -0.359 N 
ATOM      2  C11 <0> d           5.312  -4.189  -2.672  0.00  0.00     0.240 C 
ATOM      3  O1  <0> d           5.184  -3.581  -3.714  0.00  0.00    -0.271 OA
ATOM      4  H11 <0> d           5.102  -4.081  -0.670  0.00  0.00     0.162 HD
ENDROOT
BRANCH   1   5
ATOM      5  C10 <0> d           4.508  -2.215  -1.491  0.00  0.00     0.127 C 
BRANCH   5   6
ATOM      6  C9  <0> d           4.231  -1.785  -0.049  0.00  0.00     0.056 C 
BRANCH   6   7
ATOM      7  C5  <0> d           3.724  -0.366  -0.036  0.00  0.00    -0.048 A 
ATOM      8  C4  <0> d           4.557   0.897  -0.038  0.00  0.00     0.155 A 
ATOM      9  N1  <0> d           3.600   2.009  -0.022  0.00  0.00    -0.385 N 
ATOM     10  C3  <0> d           2.385   1.516  -0.013  0.00  0.00     0.038 A 
ATOM     11  H18 <0> d           3.828   2.952  -0.020  0.00  0.00     0.160 HD
ATOM     12  C2  <0> d           1.109   2.143   0.003  0.00  0.00     0.031 A 
ATOM     13  C6  <0> d           2.433   0.036  -0.021  0.00  0.00    -0.004 A 
ATOM     14  C1  <0> d          -0.017   1.399   0.010  0.00  0.00     0.026 A 
ATOM     15  C8  <0> d           0.002  -0.004   0.002  0.00  0.00     0.035 A 
ATOM     16  C7  <0> d           1.163  -0.699  -0.013  0.00  0.00     0.037 A 
ATOM     17 Cl1  <0> d          -1.502  -0.870   0.012  0.00  0.00    -0.084 Cl
ENDBRANCH   6   7
ENDBRANCH   5   6
ENDBRANCH   1   5
BRANCH   2  18
ATOM     18  C12 <0> d           5.819  -5.608  -2.685  0.00  0.00     0.194 A 
ATOM     19  N4  <0> d           6.053  -6.059  -4.068  0.00  0.00    -0.216 NA
ATOM     20  N3  <0> d           5.221  -7.128  -4.283  0.00  0.00    -0.288 N 
ATOM     21  H17 <0> d           7.019  -6.316  -4.206  0.00  0.00     0.148 HD
ATOM     22  C14 <0> d           4.470  -7.407  -3.151  0.00  0.00     0.049 A 
ATOM     23  C18 <0> d           5.062  -7.901  -5.412  0.00  0.00     0.111 A 
ATOM     24  C13 <0> d           4.763  -6.550  -2.152  0.00  0.00     0.035 A 
ATOM     25  C15 <0> d           3.518  -8.528  -3.188  0.00  0.00     0.031 A 
ATOM     26  C16 <0> d           3.404  -9.252  -4.325  0.00  0.00     0.004 A 
ATOM     27  C17 <0> d           4.194  -8.922  -5.447  0.00  0.00     0.019 A 
ENDBRANCH   2  18
TORSDOF 4
