REMARK  4 active torsions:
REMARK  status: ('A' for Active; 'I' for Inactive)
REMARK    1  A    between atoms: N1_6  and  C7_8 
REMARK    2  A    between atoms: C7_8  and  C8_9 
REMARK    3  A    between atoms: C9_11  and  N3_14 
REMARK       I    between atoms: N3_14  and  C11_15 
REMARK    4  A    between atoms: C11_15  and  C12_17 
ROOT
ATOM      1  N3  <0> d           0.419   3.259   4.269  0.00  0.00    -0.329 N 
ATOM      2  C11 <0> d          -0.390   4.013   5.040  0.00  0.00     0.236 C 
ATOM      3  O1  <0> d          -0.961   3.515   5.987  0.00  0.00    -0.272 OA
ATOM      4  H18 <0> d           0.876   3.657   3.511  0.00  0.00     0.165 HD
ENDROOT
BRANCH   1   5
ATOM      5  C9  <0> d           0.609   1.839   4.574  0.00  0.00     0.272 C 
ATOM      6  N2  <0> d           1.224   1.126   3.437  0.00  0.00    -0.260 NA
ATOM      7  C8  <0> d           2.203   0.359   3.618  0.00  0.00     0.047 C 
ATOM      8  C10 <0> d           2.737   0.178   5.032  0.00  0.00     0.134 C 
ATOM      9  S1  <0> d           1.904   1.601   5.869  0.00  0.00    -0.115 SA
BRANCH   7  10
ATOM     10  C7  <0> d           2.831  -0.371   2.460  0.00  0.00     0.327 C 
BRANCH  10  11
ATOM     11  N1  <0> d           2.128  -0.019   1.219  0.00  0.00     0.094 N 
ATOM     12  C5  <0> d           2.852  -0.520   0.043  0.00  0.00     0.277 C 
ATOM     13  C4  <0> d           2.172  -0.013  -1.230  0.00  0.00     0.010 C 
ATOM     14  C3  <0> d           0.720  -0.499  -1.256  0.00  0.00     0.012 C 
ATOM     15  C21 <0> d           2.913  -0.552  -2.455  0.00  0.00     0.011 C 
ATOM     16  C2  <0> d           0.002  -0.004   0.002  0.00  0.00     0.010 C 
ATOM     17  C1  <0> d          -0.019   1.526   0.010  0.00  0.00     0.011 C 
ATOM     18  C6  <0> d           0.744  -0.512   1.241  0.00  0.00     0.277 C 
ENDBRANCH  10  11
ENDBRANCH   7  10
ENDBRANCH   1   5
BRANCH   2  19
ATOM     19  C12 <0> d          -0.584   5.474   4.725  0.00  0.00     0.193 A 
ATOM     20  C20 <0> d          -1.075   5.580   3.299  0.00  0.00     0.239 A 
ATOM     21  N4  <0> d          -2.226   6.177   3.044  0.00  0.00    -0.325 N 
ATOM     22  O2  <0> d          -0.412   5.119   2.389  0.00  0.00    -0.272 OA
ATOM     23  C19 <0> d          -3.000   6.702   3.994  0.00  0.00     0.044 A 
ATOM     24  H27 <0> d          -2.522   6.235   2.122  0.00  0.00     0.169 HD
ATOM     25  C14 <0> d          -2.626   6.659   5.418  0.00  0.00    -0.012 A 
ATOM     26  C18 <0> d          -4.215   7.322   3.648  0.00  0.00     0.030 A 
ATOM     27  C13 <0> d          -1.460   6.070   5.809  0.00  0.00     0.010 A 
ATOM     28  C15 <0> d          -3.530   7.259   6.399  0.00  0.00     0.013 A 
ATOM     29  C16 <0> d          -4.681   7.834   5.963  0.00  0.00     0.001 A 
ATOM     30  C17 <0> d          -5.011   7.861   4.608  0.00  0.00     0.002 A 
ENDBRANCH   2  19
TORSDOF 4
