REMARK  2 active torsions:
REMARK  status: ('A' for Active; 'I' for Inactive)
REMARK       I    between atoms: C2_2  and  N1_4 
REMARK    1  A    between atoms: N1_4  and  C3_5 
REMARK    2  A    between atoms: C10_13  and  N2_18 
REMARK       I    between atoms: N2_18  and  C13_19 
REMARK       I    between atoms: N2_18  and  C15_22 
ROOT
ATOM      1  C3  <0> d           0.211   5.883  -0.965  0.00  0.00     0.050 A 
ATOM      2  C4  <0> d           1.435   6.528  -1.162  0.00  0.00     0.030 A 
ATOM      3  C5  <0> d           2.617   5.874  -0.892  0.00  0.00     0.003 A 
ATOM      4  C6  <0> d           2.612   4.567  -0.420  0.00  0.00     0.017 A 
ATOM      5  C7  <0> d           1.408   3.910  -0.217  0.00  0.00     0.032 A 
ATOM      6  C8  <0> d           0.194   4.570  -0.491  0.00  0.00     0.057 A 
ATOM      7  C9  <0> d          -1.076   3.853  -0.270  0.00  0.00     0.214 C 
ATOM      8  O2  <0> d          -2.130   4.457  -0.261  0.00  0.00    -0.285 OA
ATOM      9  C10 <0> d          -1.049   2.386  -0.064  0.00  0.00     0.117 C 
ATOM     10  C11 <0> d           0.118   1.756   0.205  0.00  0.00     0.093 C 
ATOM     11  C12 <0> d           1.372   2.518   0.285  0.00  0.00     0.203 C 
ATOM     12  O3  <0> d           2.370   2.010   0.760  0.00  0.00    -0.286 OA
ATOM     13 Br1  <0> d           0.136  -0.116   0.473  0.00  0.00    -0.044 Br
ENDROOT
BRANCH   9  14
ATOM     14  N2  <0> d          -2.228   1.654  -0.143  0.00  0.00    -0.247 N 
ATOM     15  C13 <0> d          -2.739   1.077   0.963  0.00  0.00     0.227 C 
ATOM     16  O4  <0> d          -2.119   1.109   2.004  0.00  0.00    -0.273 OA
ATOM     17  C14 <0> d          -4.082   0.394   0.905  0.00  0.00     0.118 C 
ATOM     18  C15 <0> d          -2.861   1.520  -1.326  0.00  0.00     0.227 C 
ATOM     19  O5  <0> d          -3.921   0.935  -1.384  0.00  0.00    -0.273 OA
ATOM     20  C16 <0> d          -2.250   2.099  -2.576  0.00  0.00     0.118 C 
ENDBRANCH   9  14
BRANCH   1  21
ATOM     21  N1  <0> d          -0.981   6.544  -1.238  0.00  0.00    -0.327 N 
ATOM     22  C2  <0> d          -1.085   7.868  -1.008  0.00  0.00     0.218 C 
ATOM     23  C1  <0> d          -2.405   8.566  -1.208  0.00  0.00     0.117 C 
ATOM     24  O1  <0> d          -0.116   8.498  -0.640  0.00  0.00    -0.274 OA
ATOM     25  H4  <0> d          -1.738   6.053  -1.593  0.00  0.00     0.169 HD
ENDBRANCH   1  21
TORSDOF 2
