REMARK  3 active torsions:
REMARK  status: ('A' for Active; 'I' for Inactive)
REMARK    1  A    between atoms: O1_2  and  C2_3 
REMARK    2  A    between atoms: C5_6  and  C8_10 
REMARK       I    between atoms: C8_10  and  N1_12 
REMARK    3  A    between atoms: N1_12  and  C9_13 
ROOT
ATOM      1  C8  <0> d           2.278   5.253  -0.094  0.00  0.00     0.256 C 
ATOM      2  O2  <0> d           1.205   5.824  -0.080  0.00  0.00    -0.267 OA
ATOM      3  N1  <0> d           2.327   3.909   0.000  0.00  0.00    -0.323 N 
ATOM      4  H7  <0> d           3.183   3.458   0.067  0.00  0.00     0.169 HD
ENDROOT
BRANCH   1   5
ATOM      5  C5  <0> d           3.526   6.030  -0.213  0.00  0.00     0.033 A 
ATOM      6  C4  <0> d           4.761   5.375  -0.223  0.00  0.00     0.020 A 
ATOM      7  C3  <0> d           5.924   6.104  -0.340  0.00  0.00     0.039 A 
ATOM      8  C2  <0> d           5.872   7.489  -0.437  0.00  0.00     0.085 A 
ATOM      9  C7  <0> d           4.646   8.145  -0.421  0.00  0.00     0.045 A 
ATOM     10  C6  <0> d           3.478   7.423  -0.311  0.00  0.00     0.039 A 
ATOM     11 Br1  <0> d           4.582  10.030  -0.554  0.00  0.00    -0.048 Br
BRANCH   8  12
ATOM     12  O1  <0> d           7.021   8.204  -0.547  0.00  0.00    -0.355 OA
ATOM     13  C1  <0> d           8.245   7.466  -0.556  0.00  0.00     0.210 C 
ENDBRANCH   8  12
ENDBRANCH   1   5
BRANCH   3  14
ATOM     14  C9  <0> d           1.147   3.166   0.002  0.00  0.00     0.037 A 
ATOM     15  C13 <0> d           1.050   1.979   0.726  0.00  0.00     0.049 A 
ATOM     16  C12 <0> d          -0.136   1.274   0.703  0.00  0.00     0.118 A 
ATOM     17  N2  <0> d          -1.170   1.714   0.011  0.00  0.00    -0.273 NA
ATOM     18  C11 <0> d          -1.117   2.830  -0.691  0.00  0.00     0.118 A 
ATOM     19  C10 <0> d           0.032   3.593  -0.719  0.00  0.00     0.049 A 
ENDBRANCH   3  14
TORSDOF 3
