REMARK  8 active torsions:
REMARK  status: ('A' for Active; 'I' for Inactive)
REMARK    1  A    between atoms: C2_2  and  O1_3 
REMARK    2  A    between atoms: O1_3  and  C3_4 
REMARK    3  A    between atoms: C6_7  and  C9_10 
REMARK       I    between atoms: C9_10  and  N1_12 
REMARK    4  A    between atoms: N1_12  and  C10_13 
REMARK    5  A    between atoms: C11_14  and  N4_30 
REMARK    6  A    between atoms: C12_16  and  S1_21 
REMARK    7  A    between atoms: S1_21  and  C14_22 
REMARK    8  A    between atoms: C14_22  and  C15_23 
ROOT
ATOM      1  C10 <0> d          -0.141  10.367  -0.914  0.00  0.00     0.149 A 
ATOM      2  C11 <0> d          -0.130   9.444   0.127  0.00  0.00     0.156 A 
ATOM      3  N2  <0> d          -0.119   8.135  -0.149  0.00  0.00    -0.205 NA
ATOM      4  C12 <0> d          -0.119   7.699  -1.392  0.00  0.00     0.171 A 
ATOM      5  N3  <0> d          -0.124   8.561  -2.446  0.00  0.00    -0.300 N 
ATOM      6  H1  <0> d          -0.115   8.205  -3.381  0.00  0.00     0.171 HD
ATOM      7  C13 <0> d          -0.141   9.893  -2.234  0.00  0.00     0.278 A 
ATOM      8  O3  <0> d          -0.150  10.673  -3.174  0.00  0.00    -0.265 OA
ENDROOT
BRANCH   1   9
ATOM      9  N1  <0> d          -0.153  11.750  -0.647  0.00  0.00    -0.315 N 
ATOM     10  C9  <0> d           0.844  12.533  -1.104  0.00  0.00     0.256 C 
ATOM     11  O2  <0> d           1.708  12.062  -1.818  0.00  0.00    -0.267 OA
ATOM     12  H11 <0> d          -0.879  12.139  -0.134  0.00  0.00     0.169 HD
BRANCH  10  13
ATOM     13  C6  <0> d           0.887  13.962  -0.737  0.00  0.00     0.032 A 
ATOM     14  C5  <0> d           1.920  14.776  -1.210  0.00  0.00     0.020 A 
ATOM     15  C4  <0> d           1.957  16.109  -0.866  0.00  0.00     0.038 A 
ATOM     16  C3  <0> d           0.968  16.645  -0.049  0.00  0.00     0.068 A 
ATOM     17  C8  <0> d          -0.061  15.839   0.424  0.00  0.00     0.038 A 
ATOM     18  C7  <0> d          -0.108  14.506   0.079  0.00  0.00     0.020 A 
BRANCH  16  19
ATOM     19  O1  <0> d           1.008  17.959   0.288  0.00  0.00    -0.352 OA
BRANCH  19  20
ATOM     20  C2  <0> d          -0.040  18.444   1.131  0.00  0.00     0.171 C 
ATOM     21  C1  <0> d           0.173  19.936   1.400  0.00  0.00     0.034 C 
ENDBRANCH  19  20
ENDBRANCH  16  19
ENDBRANCH  10  13
ENDBRANCH   1   9
BRANCH   2  22
ATOM     22  N4  <0> d          -0.130   9.877   1.440  0.00  0.00    -0.382 N 
ATOM     23  H18 <0> d          -0.122   9.231   2.164  0.00  0.00     0.157 HD
ATOM     24  H19 <0> d          -0.138  10.826   1.638  0.00  0.00     0.157 HD
ENDBRANCH   2  22
BRANCH   4  25
ATOM     25  S1  <0> d          -0.105   5.964  -1.696  0.00  0.00    -0.087 SA
BRANCH  25  26
ATOM     26  C14 <0> d          -0.095   5.346   0.005  0.00  0.00     0.121 C 
BRANCH  26  27
ATOM     27  C15 <0> d          -0.081   3.839  -0.008  0.00  0.00    -0.046 A 
ATOM     28  C20 <0> d          -1.272   3.138  -0.011  0.00  0.00     0.050 A 
ATOM     29  C19 <0> d          -1.259   1.753  -0.028  0.00  0.00     0.117 A 
ATOM     30  C18 <0> d          -0.054   1.073  -0.032  0.00  0.00     0.042 A 
ATOM     31  F1  <0> d          -2.423   1.067  -0.036  0.00  0.00    -0.206 F 
ATOM     32  C17 <0> d           1.136   1.776  -0.030  0.00  0.00     0.004 A 
ATOM     33  C16 <0> d           1.122   3.159  -0.017  0.00  0.00     0.008 A 
ENDBRANCH  26  27
ENDBRANCH  25  26
ENDBRANCH   4  25
TORSDOF 8
