REMARK  5 active torsions:
REMARK  status: ('A' for Active; 'I' for Inactive)
REMARK    1  A    between atoms: C2_2  and  C4_4 
REMARK    2  A    between atoms: C4_4  and  N1_5 
REMARK    3  A    between atoms: N1_5  and  C5_6 
REMARK    4  A    between atoms: C5_6  and  C6_7 
REMARK    5  A    between atoms: C6_7  and  C10_14 
ROOT
ATOM      1  C6  <0> d          -0.017  -0.132   4.895  0.00  0.00     0.002 C 
ATOM      2  C7  <0> d          -1.308  -0.947   4.953  0.00  0.00     0.027 C 
ATOM      3  C8  <0> d          -2.458  -0.187   4.236  0.00  0.00     0.141 C 
ATOM      4  S1  <0> d          -2.086   1.533   4.795  0.00  0.00     0.145 S 
ATOM      5  O1  <0> d          -2.437   2.446   3.764  0.00  0.00    -0.228 OA
ATOM      6  O2  <0> d          -2.604   1.721   6.105  0.00  0.00    -0.228 OA
ATOM      7  C9  <0> d          -0.253   1.391   4.881  0.00  0.00     0.151 C 
ENDROOT
BRANCH   1   8
ATOM      8  C5  <0> d           0.752  -0.521   3.631  0.00  0.00     0.243 C 
BRANCH   8   9
ATOM      9  N1  <0> d          -0.086  -0.269   2.451  0.00  0.00    -0.074 N 
ATOM     10  H11 <0> d          -0.398   0.691   2.458  0.00  0.00     0.277 HD
ATOM     11  H26 <0> d          -0.886  -0.883   2.470  0.00  0.00     0.277 HD
BRANCH   9  12
ATOM     12  C4  <0> d           0.696  -0.521   1.233  0.00  0.00     0.236 C 
BRANCH  12  13
ATOM     13  C2  <0> d          -0.177  -0.259   0.004  0.00  0.00     0.003 C 
ATOM     14  C1  <0> d          -0.547   1.225  -0.052  0.00  0.00     0.011 C 
ATOM     15  C3  <0> d           0.596  -0.639  -1.261  0.00  0.00     0.011 C 
ENDBRANCH  12  13
ENDBRANCH   9  12
ENDBRANCH   8   9
ENDBRANCH   1   8
BRANCH   1  16
ATOM     16  C10 <0> d           0.837  -0.484   6.115  0.00  0.00     0.011 C 
ATOM     17  C13 <0> d           2.178   0.302   6.062  0.00  0.00     0.145 C 
ATOM     18  S2  <0> d           2.698   0.201   7.827  0.00  0.00     0.144 S 
ATOM     19  C12 <0> d           1.066  -0.133   8.606  0.00  0.00     0.140 C 
ATOM     20  O3  <0> d           3.159   1.478   8.246  0.00  0.00    -0.228 OA
ATOM     21  O4  <0> d           3.534  -0.936   7.999  0.00  0.00    -0.228 OA
ATOM     22  C11 <0> d           0.097  -0.081   7.401  0.00  0.00     0.021 C 
ENDBRANCH   1  16
TORSDOF 5
