REMARK  5 active torsions:
REMARK  status: ('A' for Active; 'I' for Inactive)
REMARK    1  A    between atoms: C12_13  and  N1_17 
REMARK       I    between atoms: N1_17  and  C15_18 
REMARK    2  A    between atoms: C15_18  and  C16_20 
REMARK    3  A    between atoms: C16_20  and  S1_21 
REMARK    4  A    between atoms: S1_21  and  C17_22 
REMARK    5  A    between atoms: C21_27  and  N4_31 
ROOT
ATOM      1  N1  <0> d           6.166  -2.105  -0.070  0.00  0.00    -0.326 N 
ATOM      2  C15 <0> d           7.341  -2.760   0.018  0.00  0.00     0.231 C 
ATOM      3  O3  <0> d           7.361  -3.973   0.011  0.00  0.00    -0.272 OA
ATOM      4  H9  <0> d           6.154  -1.138  -0.145  0.00  0.00     0.169 HD
ENDROOT
BRANCH   1   5
ATOM      5  C12 <0> d           4.971  -2.816  -0.051  0.00  0.00     0.050 A 
ATOM      6  C11 <0> d           4.909  -4.067   0.560  0.00  0.00     0.030 A 
ATOM      7  C10 <0> d           3.725  -4.774   0.581  0.00  0.00     0.003 A 
ATOM      8  C9  <0> d           2.582  -4.253  -0.004  0.00  0.00     0.017 A 
ATOM      9  C8  <0> d           2.620  -3.006  -0.619  0.00  0.00     0.031 A 
ATOM     10  C7  <0> d           1.403  -2.446  -1.244  0.00  0.00     0.194 A 
ATOM     11  C13 <0> d           3.824  -2.277  -0.645  0.00  0.00     0.056 A 
ATOM     12  C5  <0> d           1.454  -1.121  -1.895  0.00  0.00     0.029 A 
ATOM     13  O1  <0> d           0.363  -3.074  -1.222  0.00  0.00    -0.287 OA
ATOM     14  C4  <0> d           2.658  -0.395  -1.921  0.00  0.00     0.029 A 
ATOM     15  C6  <0> d           0.313  -0.585  -2.487  0.00  0.00     0.016 A 
ATOM     16  C3  <0> d           2.697   0.853  -2.536  0.00  0.00     0.016 A 
ATOM     17  C14 <0> d           3.874  -0.956  -1.296  0.00  0.00     0.196 A 
ATOM     18  C2  <0> d           1.554   1.371  -3.119  0.00  0.00     0.001 A 
ATOM     19  C1  <0> d           0.370   0.657  -3.095  0.00  0.00     0.001 A 
ATOM     20  O2  <0> d           4.914  -0.328  -1.317  0.00  0.00    -0.286 OA
ENDBRANCH   1   5
BRANCH   2  21
ATOM     21  C16 <0> d           8.629  -1.986   0.124  0.00  0.00     0.180 C 
BRANCH  21  22
ATOM     22  S1  <0> d          10.023  -3.142   0.225  0.00  0.00    -0.114 SA
BRANCH  22  23
ATOM     23  C17 <0> d          11.478  -2.066   0.346  0.00  0.00     0.247 A 
ATOM     24  N3  <0> d          11.557  -1.190  -0.831  0.00  0.00    -0.358 N 
ATOM     25  C23 <0> d          11.489   0.040  -0.406  0.00  0.00     0.059 A 
ATOM     26  H15 <0> d          11.644  -1.476  -1.754  0.00  0.00     0.162 HD
ATOM     27  C18 <0> d          11.363   0.043   1.077  0.00  0.00     0.057 A 
ATOM     28  C22 <0> d          11.515   1.337  -1.095  0.00  0.00     0.067 A 
ATOM     29  N2  <0> d          11.357  -1.183   1.513  0.00  0.00    -0.359 N 
ATOM     30  C19 <0> d          11.272   1.344   1.754  0.00  0.00     0.034 A 
ATOM     31  H16 <0> d          11.285  -1.463   2.439  0.00  0.00     0.162 HD
ATOM     32  C20 <0> d          11.306   2.478   1.025  0.00  0.00     0.038 A 
ATOM     33  C21 <0> d          11.425   2.474  -0.376  0.00  0.00     0.105 A 
BRANCH  33  34
ATOM     34  N4  <0> d          11.453   3.770  -1.090  0.00  0.00    -0.116 N 
ATOM     35  O4  <0> d          11.374   4.804  -0.469  0.00  0.00    -0.532 OA
ATOM     36  O5  <0> d          11.555   3.795  -2.295  0.00  0.00    -0.532 OA
ENDBRANCH  33  34
ENDBRANCH  22  23
ENDBRANCH  21  22
ENDBRANCH   2  21
TORSDOF 5
