REMARK  3 active torsions:
REMARK  status: ('A' for Active; 'I' for Inactive)
REMARK    1  A    between atoms: O1_2  and  C2_3 
REMARK    2  A    between atoms: C2_3  and  C3_5 
REMARK    3  A    between atoms: C13_17  and  C14_19 
ROOT
ATOM      1  C3  <0> d          -2.169   1.258  -1.100  0.00  0.00     0.324 C 
ATOM      2  C4  <0> d          -2.831   2.133  -0.027  0.00  0.00     0.087 C 
ATOM      3  C5  <0> d          -1.995   2.049   1.224  0.00  0.00    -0.018 A 
ATOM      4  C6  <0> d          -2.333   2.422   2.580  0.00  0.00    -0.001 A 
ATOM      5  C7  <0> d          -3.487   2.961   3.158  0.00  0.00     0.014 A 
ATOM      6  C8  <0> d          -3.455   3.191   4.511  0.00  0.00     0.001 A 
ATOM      7  C9  <0> d          -2.337   2.907   5.279  0.00  0.00     0.002 A 
ATOM      8  C10 <0> d          -1.182   2.375   4.734  0.00  0.00     0.030 A 
ATOM      9  C11 <0> d          -1.186   2.130   3.362  0.00  0.00     0.043 A 
ATOM     10  N1  <0> d          -0.237   1.622   2.521  0.00  0.00    -0.356 N 
ATOM     11  H2  <0> d           0.745   1.324   2.916  0.00  0.00     0.166 HD
ATOM     12  C12 <0> d          -0.728   1.577   1.244  0.00  0.00     0.055 A 
ATOM     13  C13 <0> d          -0.013   1.086   0.008  0.00  0.00     0.311 C 
ATOM     14  N2  <0> d          -0.732   1.577  -1.178  0.00  0.00     0.113 N 
ATOM     15  H13 <0> d          -0.299   1.104  -2.072  0.00  0.00     0.318 HD
ENDROOT
BRANCH  13  16
ATOM     16  C14 <0> d           1.400   1.611  -0.003  0.00  0.00     0.021 A 
ATOM     17  S1  <0> d           1.995   3.225  -0.481  0.00  0.00    -0.104 SA
ATOM     18  C17 <0> d           3.733   2.951  -0.180  0.00  0.00     0.050 A 
ATOM     19  C16 <0> d           3.744   1.667   0.252  0.00  0.00     0.008 A 
ATOM     20  C15 <0> d           2.548   0.980   0.343  0.00  0.00     0.017 A 
ENDBRANCH  13  16
BRANCH   1  21
ATOM     21  C2  <0> d          -2.814   1.524  -2.435  0.00  0.00     0.292 C 
ATOM     22  O2  <0> d          -2.275   2.256  -3.232  0.00  0.00    -0.263 OA
BRANCH  21  23
ATOM     23  O1  <0> d          -3.988   0.949  -2.740  0.00  0.00    -0.325 OA
ATOM     24  C1  <0> d          -4.552   1.251  -4.044  0.00  0.00     0.213 C 
ENDBRANCH  21  23
ENDBRANCH   1  21
TORSDOF 3
