REMARK  8 active torsions:
REMARK  status: ('A' for Active; 'I' for Inactive)
REMARK    1  A    between atoms: C4_4  and  C7_7 
REMARK    2  A    between atoms: C7_7  and  C8_8 
REMARK    3  A    between atoms: C7_7  and  O1_27 
REMARK    4  A    between atoms: C8_8  and  N1_9 
REMARK    5  A    between atoms: N2_16  and  C16_19 
REMARK    6  A    between atoms: C15_17  and  N3_18 
REMARK    7  A    between atoms: C16_19  and  C17_20 
REMARK    8  A    between atoms: C17_20  and  N4_21 
ROOT
ATOM      1  N1  <0> d           5.381  -1.791   1.383  0.00  0.00    -0.178 N 
ATOM      2  C9  <0> d           5.642  -3.106   1.156  0.00  0.00     0.079 A 
ATOM      3  C10 <0> d           4.834  -4.210   0.874  0.00  0.00     0.032 A 
ATOM      4  C11 <0> d           5.407  -5.448   0.691  0.00  0.00     0.002 A 
ATOM      5  C12 <0> d           6.782  -5.608   0.785  0.00  0.00     0.002 A 
ATOM      6  C13 <0> d           7.593  -4.528   1.064  0.00  0.00     0.032 A 
ATOM      7  C14 <0> d           7.033  -3.274   1.251  0.00  0.00     0.079 A 
ATOM      8  N2  <0> d           7.553  -2.022   1.537  0.00  0.00    -0.180 N 
ATOM      9  C15 <0> d           6.503  -1.152   1.601  0.00  0.00     0.681 A 
ENDROOT
BRANCH   1  10
ATOM     10  C8  <0> d           4.049  -1.182   1.377  0.00  0.00     0.184 C 
BRANCH  10  11
ATOM     11  C7  <0> d           3.711  -0.707  -0.038  0.00  0.00     0.170 C 
BRANCH  11  12
ATOM     12  C4  <0> d           2.396   0.029  -0.020  0.00  0.00    -0.028 A 
ATOM     13  C3  <0> d           2.377   1.411  -0.013  0.00  0.00     0.010 A 
ATOM     14  C2  <0> d           1.171   2.086   0.002  0.00  0.00     0.001 A 
ATOM     15  C1  <0> d          -0.017   1.378   0.010  0.00  0.00     0.000 A 
ATOM     16  C6  <0> d           0.002  -0.004   0.002  0.00  0.00     0.001 A 
ATOM     17  C5  <0> d           1.208  -0.679  -0.012  0.00  0.00     0.010 A 
ENDBRANCH  11  12
BRANCH  11  18
ATOM     18  O1  <0> d           3.614  -1.836  -0.908  0.00  0.00    -0.389 OA
ATOM     19  H28 <0> d           2.934  -2.474  -0.651  0.00  0.00     0.210 HD
ENDBRANCH  11  18
ENDBRANCH  10  11
ENDBRANCH   1  10
BRANCH   9  20
ATOM     20  N3  <0> d           6.607   0.198   1.861  0.00  0.00    -0.234 N 
ATOM     21  H13 <0> d           5.810   0.749   1.893  0.00  0.00     0.174 HD
ATOM     22  H29 <0> d           7.479   0.597   2.012  0.00  0.00     0.174 HD
ENDBRANCH   9  20
BRANCH   8  23
ATOM     23  C16 <0> d           8.968  -1.692   1.728  0.00  0.00     0.175 C 
BRANCH  23  24
ATOM     24  C17 <0> d           9.589  -1.308   0.383  0.00  0.00     0.255 C 
BRANCH  24  25
ATOM     25  N4  <0> d          11.007  -0.978   0.575  0.00  0.00    -0.070 N 
ATOM     26  C22 <0> d          11.630  -0.726  -0.730  0.00  0.00     0.235 C 
ATOM     27  C21 <0> d          13.126  -0.461  -0.542  0.00  0.00     0.028 C 
ATOM     28  C20 <0> d          13.312   0.764   0.359  0.00  0.00     0.003 C 
ATOM     29  C19 <0> d          12.595   0.520   1.689  0.00  0.00     0.028 C 
ATOM     30  C18 <0> d          11.119   0.218   1.419  0.00  0.00     0.235 C 
ATOM     31  H30 <0> d          11.473  -1.750   1.026  0.00  0.00     0.279 HD
ENDBRANCH  24  25
ENDBRANCH  23  24
ENDBRANCH   8  23
TORSDOF 8
