REMARK  6 active torsions:
REMARK  status: ('A' for Active; 'I' for Inactive)
REMARK    1  A    between atoms: N2_5  and  C6_8 
REMARK    2  A    between atoms: C6_8  and  C7_9 
REMARK    3  A    between atoms: C6_8  and  C15_22 
REMARK    4  A    between atoms: C7_9  and  N3_10 
REMARK       I    between atoms: N3_10  and  C8_11 
REMARK    5  A    between atoms: C8_11  and  C9_13 
REMARK       I    between atoms: C9_13  and  N4_15 
REMARK    6  A    between atoms: N4_15  and  C10_16 
ROOT
ATOM      1  C6  <0> d          -3.474   6.314  -0.401  0.00  0.00     0.273 C 
ENDROOT
BRANCH   1   2
ATOM      2  N2  <0> d          -4.426   6.719   0.642  0.00  0.00     0.102 N 
ATOM      3  C3  <0> d          -3.836   7.731   1.530  0.00  0.00     0.301 C 
ATOM      4  C2  <0> d          -4.827   8.066   2.647  0.00  0.00     0.264 C 
ATOM      5  N1  <0> d          -6.080   8.555   2.055  0.00  0.00    -0.072 N 
ATOM      6  C1  <0> d          -7.032   8.960   3.098  0.00  0.00     0.269 C 
ATOM      7  C5  <0> d          -6.670   7.543   1.167  0.00  0.00     0.264 C 
ATOM      8  H31 <0> d          -5.846   9.443   1.450  0.00  0.00     0.279 HD
ATOM      9  C4  <0> d          -5.679   7.208   0.051  0.00  0.00     0.301 C 
ENDBRANCH   1   2
BRANCH   1  10
ATOM     10  C7  <0> d          -2.513   7.469  -0.691  0.00  0.00     0.164 C 
BRANCH  10  11
ATOM     11  N3  <0> d          -3.267   8.614  -1.209  0.00  0.00    -0.350 N 
ATOM     12  C8  <0> d          -2.647   9.792  -1.415  0.00  0.00     0.309 C 
ATOM     13  O1  <0> d          -1.463   9.905  -1.172  0.00  0.00    -0.262 OA
ATOM     14  H15 <0> d          -4.340   8.511  -1.429  0.00  0.00     0.162 HD
BRANCH  12  15
ATOM     15  C9  <0> d          -3.416  10.959  -1.944  0.00  0.00     0.313 C 
ATOM     16  O2  <0> d          -4.599  10.845  -2.187  0.00  0.00    -0.262 OA
ATOM     17  N4  <0> d          -2.795  12.137  -2.150  0.00  0.00    -0.319 N 
ATOM     18  H16 <0> d          -1.708  12.218  -2.007  0.00  0.00     0.169 HD
BRANCH  17  19
ATOM     19  C10 <0> d          -3.532  13.252  -2.546  0.00  0.00     0.037 A 
ATOM     20  C14 <0> d          -3.194  14.528  -2.096  0.00  0.00     0.049 A 
ATOM     21  C13 <0> d          -3.948  15.606  -2.511  0.00  0.00     0.118 A 
ATOM     22  N5  <0> d          -4.976  15.441  -3.323  0.00  0.00    -0.273 NA
ATOM     23  C12 <0> d          -5.327  14.250  -3.770  0.00  0.00     0.118 A 
ATOM     24  C11 <0> d          -4.621  13.122  -3.406  0.00  0.00     0.049 A 
ENDBRANCH  17  19
ENDBRANCH  12  15
ENDBRANCH  10  11
ENDBRANCH   1  10
BRANCH   1  25
ATOM     25  C15 <0> d          -2.691   5.116   0.071  0.00  0.00    -0.023 A 
ATOM     26  C20 <0> d          -2.443   4.066  -0.794  0.00  0.00     0.018 A 
ATOM     27  C19 <0> d          -1.728   2.969  -0.363  0.00  0.00    -0.035 A 
ATOM     28  C18 <0> d          -1.254   2.905   0.942  0.00  0.00     0.016 A 
ATOM     29  C21 <0> d          -1.308   1.698  -1.075  0.00  0.00     0.055 C 
ATOM     30  C17 <0> d          -1.504   3.969   1.807  0.00  0.00     0.025 A 
ATOM     31  N6  <0> d          -0.568   1.702   1.170  0.00  0.00    -0.287 NA
ATOM     32  C16 <0> d          -2.219   5.065   1.370  0.00  0.00     0.011 A 
ATOM     33  C22 <0> d          -0.211   1.130  -0.146  0.00  0.00     0.100 C 
ATOM     34  C23 <0> d           0.630   1.922   1.991  0.00  0.00     0.116 C 
ENDBRANCH   1  25
TORSDOF 6
