REMARK  4 active torsions:
REMARK  status: ('A' for Active; 'I' for Inactive)
REMARK    1  A    between atoms: C6_6  and  N1_8 
REMARK       I    between atoms: N1_8  and  C8_9 
REMARK    2  A    between atoms: C8_9  and  C9_11 
REMARK    3  A    between atoms: C9_11  and  S1_12 
REMARK    4  A    between atoms: S1_12  and  C10_15 
ROOT
ATOM      1  S1  <0> d           0.391  -1.734   6.239  0.00  0.00     0.184 S 
ATOM      2  O2  <0> d           1.615  -1.015   6.177  0.00  0.00    -0.222 OA
ATOM      3  O3  <0> d          -0.844  -1.050   6.403  0.00  0.00    -0.222 OA
ENDROOT
BRANCH   1   4
ATOM      4  C9  <0> d           0.280  -2.900   4.854  0.00  0.00     0.248 C 
BRANCH   4   5
ATOM      5  C8  <0> d           0.150  -2.134   3.562  0.00  0.00     0.236 C 
ATOM      6  N1  <0> d           0.052  -2.797   2.393  0.00  0.00    -0.326 N 
ATOM      7  H7  <0> d          -0.012  -3.765   2.388  0.00  0.00     0.169 HD
ATOM      8  O1  <0> d           0.134  -0.922   3.575  0.00  0.00    -0.272 OA
BRANCH   6   9
ATOM      9  C6  <0> d           0.043  -2.089   1.186  0.00  0.00     0.035 A 
ATOM     10  C5  <0> d           0.776  -0.917   1.061  0.00  0.00     0.036 A 
ATOM     11  C4  <0> d           0.765  -0.220  -0.131  0.00  0.00    -0.059 A 
ATOM     12  C3  <0> d           0.025  -0.690  -1.201  0.00  0.00     0.013 A 
ATOM     13  C19 <0> d           1.561   1.052  -0.268  0.00  0.00     0.048 C 
ATOM     14  C2  <0> d          -0.707  -1.857  -1.080  0.00  0.00    -0.059 A 
ATOM     15  C1  <0> d          -1.512  -2.365  -2.248  0.00  0.00     0.048 C 
ATOM     16  C7  <0> d          -0.704  -2.555   0.112  0.00  0.00     0.036 A 
ENDBRANCH   6   9
ENDBRANCH   4   5
ENDBRANCH   1   4
BRANCH   1  17
ATOM     17  C10 <0> d           0.537  -2.748   7.673  0.00  0.00     0.062 A 
ATOM     18  C15 <0> d           1.787  -3.126   8.123  0.00  0.00     0.055 A 
ATOM     19  C14 <0> d           1.903  -3.919   9.254  0.00  0.00     0.066 A 
ATOM     20  C13 <0> d           0.754  -4.341   9.928  0.00  0.00     0.065 A 
ATOM     21  N2  <0> d           2.991  -4.451   9.942  0.00  0.00    -0.302 N 
ATOM     22  C12 <0> d          -0.496  -3.961   9.465  0.00  0.00     0.034 A 
ATOM     23  N3  <0> d           1.181  -5.116  11.004  0.00  0.00    -0.302 N 
ATOM     24  C11 <0> d          -0.601  -3.166   8.341  0.00  0.00     0.026 A 
ATOM     25  C16 <0> d           2.526  -5.164  10.985  0.00  0.00     0.329 A 
ATOM     26  C17 <0> d           0.313  -5.769  11.987  0.00  0.00     0.161 C 
ATOM     27  O4  <0> d           3.217  -5.760  11.790  0.00  0.00    -0.246 OA
ATOM     28  C18 <0> d           4.401  -4.267   9.589  0.00  0.00     0.161 C 
ENDBRANCH   1  17
TORSDOF 4
