REMARK  5 active torsions:
REMARK  status: ('A' for Active; 'I' for Inactive)
REMARK    1  A    between atoms: C5_7  and  S1_9 
REMARK    2  A    between atoms: S1_9  and  C6_10 
REMARK    3  A    between atoms: C6_10  and  C7_11 
REMARK       I    between atoms: C7_11  and  N3_13 
REMARK    4  A    between atoms: C10_16  and  C13_19 
REMARK    5  A    between atoms: C10_16  and  N5_22 
REMARK       I    between atoms: C13_19  and  N4_21 
ROOT
ATOM      1  C7  <0> d          -1.676  -2.532  -3.358  0.00  0.00     0.229 C 
ATOM      2  O2  <0> d          -2.276  -1.911  -4.210  0.00  0.00    -0.273 OA
ATOM      3  N3  <0> d          -1.742  -3.878  -3.333  0.00  0.00    -0.351 N 
ATOM      4  C8  <0> d          -1.026  -4.644  -2.304  0.00  0.00     0.129 C 
ATOM      5  C9  <0> d          -0.146  -5.692  -2.991  0.00  0.00     0.069 C 
ATOM      6  C10 <0> d          -1.010  -6.546  -3.923  0.00  0.00     0.210 C 
ATOM      7  C11 <0> d          -1.634  -5.656  -5.001  0.00  0.00     0.069 C 
ATOM      8  C12 <0> d          -2.535  -4.607  -4.332  0.00  0.00     0.129 C 
ENDROOT
BRANCH   1   9
ATOM      9  C6  <0> d          -0.859  -1.799  -2.326  0.00  0.00     0.185 C 
BRANCH   9  10
ATOM     10  S1  <0> d          -0.970  -0.013  -2.624  0.00  0.00    -0.083 SA
BRANCH  10  11
ATOM     11  C5  <0> d           0.025   0.694  -1.353  0.00  0.00     0.169 A 
ATOM     12  N1  <0> d           0.161   2.048  -1.284  0.00  0.00    -0.302 N 
ATOM     13  C4  <0> d           0.921   2.596  -0.313  0.00  0.00     0.249 A 
ATOM     14  H27 <0> d          -0.288   2.615  -1.930  0.00  0.00     0.171 HD
ATOM     15  C3  <0> d           1.558   1.746   0.609  0.00  0.00     0.101 A 
ATOM     16  O1  <0> d           1.054   3.807  -0.236  0.00  0.00    -0.268 OA
ATOM     17  C2  <0> d           1.385   0.397   0.490  0.00  0.00     0.038 A 
ATOM     18  C1  <0> d           2.057  -0.535   1.465  0.00  0.00     0.070 C 
ATOM     19  N2  <0> d           0.630  -0.096  -0.487  0.00  0.00    -0.229 NA
ENDBRANCH  10  11
ENDBRANCH   9  10
ENDBRANCH   1   9
BRANCH   6  20
ATOM     20  C13 <0> d          -2.103  -7.210  -3.126  0.00  0.00     0.252 C 
ATOM     21  O3  <0> d          -2.012  -7.288  -1.919  0.00  0.00    -0.271 OA
ATOM     22  N4  <0> d          -3.183  -7.716  -3.754  0.00  0.00    -0.368 N 
ATOM     23  H15 <0> d          -3.224  -7.718  -4.723  0.00  0.00     0.159 HD
ATOM     24  H16 <0> d          -3.919  -8.079  -3.236  0.00  0.00     0.159 HD
ENDBRANCH   6  20
BRANCH   6  25
ATOM     25  N5  <0> d          -0.176  -7.574  -4.559  0.00  0.00    -0.053 N 
ATOM     26  C18 <0> d          -1.001  -8.378  -5.468  0.00  0.00     0.236 C 
ATOM     27  C17 <0> d          -0.121  -9.398  -6.194  0.00  0.00     0.028 C 
ATOM     28  C16 <0> d           0.546 -10.313  -5.164  0.00  0.00     0.003 C 
ATOM     29  C15 <0> d           1.344  -9.457  -4.176  0.00  0.00     0.028 C 
ATOM     30  C14 <0> d           0.410  -8.435  -3.525  0.00  0.00     0.236 C 
ATOM     31  H28 <0> d           0.564  -7.129  -5.082  0.00  0.00     0.281 HD
ENDBRANCH   6  25
TORSDOF 5
