REMARK  7 active torsions:
REMARK  status: ('A' for Active; 'I' for Inactive)
REMARK    1  A    between atoms: C6_6  and  S1_7 
REMARK    2  A    between atoms: S1_7  and  N1_10 
REMARK    3  A    between atoms: N1_10  and  C7_11 
REMARK    4  A    between atoms: C7_11  and  C8_12 
REMARK    5  A    between atoms: C8_12  and  C9_13 
REMARK       I    between atoms: C9_13  and  N2_15 
REMARK    6  A    between atoms: N2_15  and  N3_16 
REMARK       I    between atoms: N3_16  and  C10_17 
REMARK    7  A    between atoms: C10_17  and  C11_19 
ROOT
ATOM      1  C8  <0> d          -1.214   3.562   0.027  0.00  0.00     0.125 C 
ENDROOT
BRANCH   1   2
ATOM      2  C7  <0> d          -2.663   4.052   0.037  0.00  0.00     0.141 C 
BRANCH   2   3
ATOM      3  N1  <0> d          -2.683   5.517   0.045  0.00  0.00    -0.315 N 
ATOM      4  H4  <0> d          -1.825   6.076   0.446  0.00  0.00     0.172 HD
BRANCH   3   5
ATOM      5  S1  <0> d          -4.081   6.328  -0.315  0.00  0.00     0.258 S 
ATOM      6  O1  <0> d          -3.788   7.713  -0.198  0.00  0.00    -0.201 OA
ATOM      7  O2  <0> d          -4.586   5.755  -1.514  0.00  0.00    -0.201 OA
BRANCH   5   8
ATOM      8  C6  <0> d          -5.244   5.949   0.953  0.00  0.00     0.080 A 
ATOM      9  C1  <0> d          -6.089   4.864   0.818  0.00  0.00     0.026 A 
ATOM     10  C2  <0> d          -6.995   4.572   1.816  0.00  0.00     0.009 A 
ATOM     11  C3  <0> d          -7.074   5.368   2.952  0.00  0.00    -0.052 A 
ATOM     12  C22 <0> d          -8.095   5.000   3.996  0.00  0.00     0.039 C 
ATOM     13  C4  <0> d          -6.234   6.450   3.086  0.00  0.00    -0.050 A 
ATOM     14  C21 <0> d          -7.770   5.676   5.327  0.00  0.00     0.005 C 
ATOM     15  C20 <0> d          -7.560   7.173   5.070  0.00  0.00     0.005 C 
ATOM     16  C19 <0> d          -6.257   7.350   4.293  0.00  0.00     0.039 C 
ATOM     17  C5  <0> d          -5.319   6.739   2.082  0.00  0.00     0.033 A 
ENDBRANCH   5   8
ENDBRANCH   3   5
ENDBRANCH   2   3
ENDBRANCH   1   2
BRANCH   1  18
ATOM     18  C9  <0> d          -1.193   2.055   0.019  0.00  0.00     0.237 C 
ATOM     19  O3  <0> d          -2.235   1.434   0.020  0.00  0.00    -0.272 OA
ATOM     20  N2  <0> d          -0.017   1.397   0.010  0.00  0.00    -0.267 N 
ATOM     21  H9  <0> d           0.928   1.960   0.008  0.00  0.00     0.190 HD
BRANCH  20  22
ATOM     22  N3  <0> d           0.002  -0.004   0.002  0.00  0.00    -0.263 N 
ATOM     23  C10 <0> d           1.178  -0.662  -0.013  0.00  0.00     0.277 C 
ATOM     24  O4  <0> d           2.224  -0.039  -0.019  0.00  0.00    -0.265 OA
ATOM     25  H10 <0> d          -0.943  -0.567   0.008  0.00  0.00     0.190 HD
BRANCH  23  26
ATOM     26  C11 <0> d           1.198  -2.128  -0.021  0.00  0.00     0.075 A 
ATOM     27  S2  <0> d          -0.172  -3.272  -0.006  0.00  0.00    -0.089 SA
ATOM     28  C14 <0> d           0.730  -4.739  -0.031  0.00  0.00    -0.010 A 
ATOM     29  C13 <0> d           2.039  -4.349  -0.041  0.00  0.00    -0.043 A 
ATOM     30  C15 <0> d           0.207  -6.143  -0.035  0.00  0.00     0.046 C 
ATOM     31  C12 <0> d           2.283  -2.985  -0.036  0.00  0.00     0.033 A 
ATOM     32  C18 <0> d           3.158  -5.387  -0.056  0.00  0.00     0.040 C 
ATOM     33  C17 <0> d           2.589  -6.730   0.404  0.00  0.00     0.005 C 
ATOM     34  C16 <0> d           1.353  -7.086  -0.427  0.00  0.00     0.005 C 
ENDBRANCH  23  26
ENDBRANCH  20  22
ENDBRANCH   1  18
TORSDOF 7
