REMARK  5 active torsions:
REMARK  status: ('A' for Active; 'I' for Inactive)
REMARK    1  A    between atoms: C7_11  and  C8_13 
REMARK    2  A    between atoms: C8_13  and  N3_15 
REMARK    3  A    between atoms: N4_18  and  C14_21 
REMARK    4  A    between atoms: C14_21  and  C15_22 
REMARK    5  A    between atoms: C15_22  and  O2_23 
ROOT
ATOM      1  C1  <0> d           0.461   1.499   0.020  0.00  0.00     0.050 C 
ATOM      2  C2  <0> d           0.328  -0.002   0.009  0.00  0.00    -0.031 A 
ATOM      3  C3  <0> d           0.257  -0.669  -1.154  0.00  0.00    -0.012 A 
ATOM      4  S1  <0> d           0.111  -2.371  -0.645  0.00  0.00    -0.074 SA
ATOM      5  C4  <0> d           0.150  -2.137   1.113  0.00  0.00     0.116 A 
ATOM      6  C5  <0> d           0.281  -0.744   1.255  0.00  0.00     0.075 A 
ATOM      7  C6  <0> d           0.343  -0.262   2.603  0.00  0.00     0.260 A 
ATOM      8  O1  <0> d           0.452   0.931   2.830  0.00  0.00    -0.267 OA
ATOM      9  N1  <0> d           0.280  -1.147   3.615  0.00  0.00    -0.309 N 
ATOM     10  H1  <0> d           0.321  -0.827   4.530  0.00  0.00     0.170 HD
ATOM     11  C7  <0> d           0.158  -2.479   3.381  0.00  0.00     0.139 A 
ATOM     12  N2  <0> d           0.089  -2.949   2.165  0.00  0.00    -0.225 NA
ATOM     13  C16 <0> d           0.291  -0.112  -2.554  0.00  0.00     0.057 C 
ENDROOT
BRANCH  11  14
ATOM     14  C8  <0> d           0.090  -3.432   4.547  0.00  0.00     0.253 C 
ATOM     15  C9  <0> d           1.296  -3.206   5.462  0.00  0.00     0.049 C 
BRANCH  14  16
ATOM     16  N3  <0> d           0.104  -4.815   4.051  0.00  0.00    -0.057 N 
ATOM     17  C13 <0> d           1.404  -5.098   3.429  0.00  0.00     0.266 C 
ATOM     18  C12 <0> d           1.413  -6.532   2.895  0.00  0.00     0.300 C 
ATOM     19  N4  <0> d           1.168  -7.465   4.003  0.00  0.00     0.093 N 
ATOM     20  C11 <0> d          -0.119  -7.178   4.652  0.00  0.00     0.300 C 
ATOM     21  C10 <0> d          -0.116  -5.739   5.171  0.00  0.00     0.266 C 
ATOM     22  H25 <0> d          -0.629  -4.934   3.368  0.00  0.00     0.281 HD
BRANCH  19  23
ATOM     23  C14 <0> d           1.225  -8.858   3.541  0.00  0.00     0.298 C 
BRANCH  23  24
ATOM     24  C15 <0> d           2.652  -9.192   3.100  0.00  0.00     0.194 C 
BRANCH  24  25
ATOM     25  O2  <0> d           3.525  -9.133   4.230  0.00  0.00    -0.399 OA
ATOM     26  H21 <0> d           4.448  -9.333   4.025  0.00  0.00     0.209 HD
ENDBRANCH  24  25
ENDBRANCH  23  24
ENDBRANCH  19  23
ENDBRANCH  14  16
ENDBRANCH  11  14
TORSDOF 5
