REMARK  6 active torsions:
REMARK  status: ('A' for Active; 'I' for Inactive)
REMARK    1  A    between atoms: C4_4  and  N1_7 
REMARK    2  A    between atoms: C12_16  and  S2_17 
REMARK    3  A    between atoms: S2_17  and  C13_18 
REMARK    4  A    between atoms: C13_18  and  C14_19 
REMARK       I    between atoms: C14_19  and  N3_21 
REMARK    5  A    between atoms: N3_21  and  N4_22 
REMARK       I    between atoms: N4_22  and  C15_23 
REMARK    6  A    between atoms: C15_23  and  C16_25 
ROOT
ATOM      1  N1  <0> d         -10.008   3.533   0.073  0.00  0.00    -0.256 N 
ATOM      2  C7  <0> d         -10.733   4.438   0.757  0.00  0.00     0.267 A 
ATOM      3  O1  <0> d         -11.731   4.095   1.368  0.00  0.00    -0.267 OA
ATOM      4  C8  <0> d         -10.316   5.806   0.759  0.00  0.00     0.069 A 
ATOM      5  C9  <0> d         -10.925   6.951   1.415  0.00  0.00     0.027 A 
ATOM      6  C10 <0> d         -10.359   8.159   1.281  0.00  0.00     0.053 A 
ATOM      7  S1  <0> d          -8.942   7.841   0.247  0.00  0.00    -0.081 SA
ATOM      8  C11 <0> d          -9.151   6.093   0.023  0.00  0.00     0.116 A 
ATOM      9  N2  <0> d          -8.478   5.152  -0.627  0.00  0.00    -0.216 NA
ATOM     10  C12 <0> d          -8.886   3.899  -0.617  0.00  0.00     0.177 A 
ENDROOT
BRANCH  10  11
ATOM     11  S2  <0> d          -7.970   2.679  -1.497  0.00  0.00    -0.082 SA
BRANCH  11  12
ATOM     12  C13 <0> d          -6.650   3.711  -2.183  0.00  0.00     0.186 C 
BRANCH  12  13
ATOM     13  C14 <0> d          -5.716   2.855  -2.999  0.00  0.00     0.245 C 
ATOM     14  O2  <0> d          -5.922   1.665  -3.106  0.00  0.00    -0.271 OA
ATOM     15  N3  <0> d          -4.652   3.412  -3.609  0.00  0.00    -0.267 N 
ATOM     16  H10 <0> d          -4.465   4.492  -3.512  0.00  0.00     0.190 HD
BRANCH  15  17
ATOM     17  N4  <0> d          -3.783   2.617  -4.368  0.00  0.00    -0.263 N 
ATOM     18  C15 <0> d          -2.719   3.174  -4.979  0.00  0.00     0.277 C 
ATOM     19  O3  <0> d          -2.512   4.369  -4.871  0.00  0.00    -0.265 OA
ATOM     20  H11 <0> d          -3.970   1.537  -4.466  0.00  0.00     0.190 HD
BRANCH  18  21
ATOM     21  C16 <0> d          -1.810   2.342  -5.773  0.00  0.00     0.074 A 
ATOM     22  S3  <0> d          -1.881   0.588  -6.091  0.00  0.00    -0.097 SA
ATOM     23  C19 <0> d          -0.472   0.448  -7.091  0.00  0.00     0.050 A 
ATOM     24  C18 <0> d          -0.004   1.722  -7.148  0.00  0.00     0.009 A 
ATOM     25  C17 <0> d          -0.676   2.713  -6.477  0.00  0.00     0.025 A 
ENDBRANCH  18  21
ENDBRANCH  15  17
ENDBRANCH  12  13
ENDBRANCH  11  12
ENDBRANCH  10  11
BRANCH   1  26
ATOM     26  C4  <0> d         -10.411   2.191   0.068  0.00  0.00     0.044 A 
ATOM     27  C3  <0> d          -9.946   1.321   1.044  0.00  0.00     0.030 A 
ATOM     28  C2  <0> d         -10.346  -0.001   1.036  0.00  0.00     0.002 A 
ATOM     29  C1  <0> d         -11.207  -0.458   0.056  0.00  0.00     0.000 A 
ATOM     30  C6  <0> d         -11.672   0.406  -0.918  0.00  0.00     0.002 A 
ATOM     31  C5  <0> d         -11.281   1.731  -0.911  0.00  0.00     0.030 A 
ENDBRANCH   1  26
TORSDOF 6
