REMARK  4 active torsions:
REMARK  status: ('A' for Active; 'I' for Inactive)
REMARK    1  A    between atoms: C3_3  and  C16_19 
REMARK    2  A    between atoms: C4_5  and  C5_7 
REMARK    3  A    between atoms: C5_7  and  C10_13 
REMARK    4  A    between atoms: C16_19  and  N2_20 
ROOT
ATOM      1  C5  <0> d           0.055  -2.955   2.284  0.00  0.00     0.042 C 
ATOM      2  C6  <0> d           1.435  -2.582   2.835  0.00  0.00     0.048 C 
ATOM      3  C7  <0> d           1.755  -3.477   4.035  0.00  0.00     0.169 C 
ATOM      4  O1  <0> d           0.735  -3.327   5.025  0.00  0.00    -0.391 OA
ATOM      5  C8  <0> d          -0.569  -3.706   4.581  0.00  0.00     0.169 C 
ATOM      6  C9  <0> d          -0.983  -2.820   3.402  0.00  0.00     0.048 C 
ENDROOT
BRANCH   1   7
ATOM      7  C4  <0> d          -0.303  -2.028   1.151  0.00  0.00     0.089 A 
ATOM      8  S1  <0> d          -0.646  -2.418  -0.451  0.00  0.00    -0.074 SA
ATOM      9  C3  <0> d          -0.945  -0.761  -1.047  0.00  0.00     0.034 A 
ATOM     10  C2  <0> d          -0.744  -0.046   0.089  0.00  0.00     0.046 A 
ATOM     11  C1  <0> d          -0.881   1.455   0.110  0.00  0.00     0.071 C 
ATOM     12  N1  <0> d          -0.417  -0.723   1.171  0.00  0.00    -0.249 NA
BRANCH   9  13
ATOM     13  C16 <0> d          -1.318  -0.289  -2.429  0.00  0.00     0.277 C 
BRANCH  13  14
ATOM     14  N2  <0> d          -0.098  -0.007  -3.196  0.00  0.00    -0.075 N 
ATOM     15  H19 <0> d           0.436   0.710  -2.728  0.00  0.00     0.274 HD
ATOM     16  H20 <0> d           0.457  -0.847  -3.266  0.00  0.00     0.274 HD
ATOM     17  H21 <0> d          -0.348   0.309  -4.121  0.00  0.00     0.274 HD
ENDBRANCH  13  14
ENDBRANCH   9  13
ENDBRANCH   1   7
BRANCH   1  18
ATOM     18  C10 <0> d           0.076  -4.377   1.784  0.00  0.00    -0.043 A 
ATOM     19  C15 <0> d           1.061  -4.785   0.904  0.00  0.00     0.008 A 
ATOM     20  C14 <0> d           1.083  -6.090   0.450  0.00  0.00     0.001 A 
ATOM     21  C13 <0> d           0.116  -6.985   0.868  0.00  0.00     0.000 A 
ATOM     22  C12 <0> d          -0.872  -6.575   1.744  0.00  0.00     0.001 A 
ATOM     23  C11 <0> d          -0.892  -5.271   2.202  0.00  0.00     0.008 A 
ENDBRANCH   1  18
TORSDOF 4
