REMARK  7 active torsions:
REMARK  status: ('A' for Active; 'I' for Inactive)
REMARK    1  A    between atoms: C2_2  and  C3_3 
REMARK    2  A    between atoms: C3_3  and  C4_4 
REMARK    3  A    between atoms: C4_4  and  O1_5 
REMARK    4  A    between atoms: O1_5  and  C5_6 
REMARK    5  A    between atoms: C8_9  and  C11_13 
REMARK    6  A    between atoms: C12_14  and  C16_21 
REMARK    7  A    between atoms: C14_17  and  N3_19 
REMARK       I    between atoms: C16_21  and  N4_23 
ROOT
ATOM      1  C11 <0> d          -3.288  -8.163  -0.213  0.00  0.00     0.104 A 
ATOM      2  C12 <0> d          -4.489  -8.722  -0.705  0.00  0.00     0.086 A 
ATOM      3  C13 <0> d          -4.726 -10.082  -0.475  0.00  0.00     0.068 A 
ATOM      4  N1  <0> d          -3.827 -10.787   0.187  0.00  0.00    -0.067 NA
ATOM      5  C14 <0> d          -2.709 -10.229   0.635  0.00  0.00     0.721 A 
ATOM      6  N2  <0> d          -2.436  -8.948   0.438  0.00  0.00    -0.061 NA
ATOM      7  C15 <0> d          -5.989 -10.732  -0.976  0.00  0.00     0.072 C 
ENDROOT
BRANCH   1   8
ATOM      8  C8  <0> d          -2.982  -6.731  -0.425  0.00  0.00    -0.004 A 
ATOM      9  C7  <0> d          -1.700  -6.339  -0.814  0.00  0.00     0.017 A 
ATOM     10  C6  <0> d          -1.418  -5.005  -1.011  0.00  0.00     0.039 A 
ATOM     11  C5  <0> d          -2.408  -4.049  -0.823  0.00  0.00     0.086 A 
ATOM     12  C10 <0> d          -3.684  -4.434  -0.430  0.00  0.00     0.045 A 
ATOM     13  C9  <0> d          -3.975  -5.768  -0.237  0.00  0.00     0.035 A 
ATOM     14 Br1  <0> d          -5.026  -3.127  -0.167  0.00  0.00    -0.048 Br
BRANCH  11  15
ATOM     15  O1  <0> d          -2.127  -2.735  -1.018  0.00  0.00    -0.350 OA
BRANCH  15  16
ATOM     16  C4  <0> d          -0.795  -2.409  -1.422  0.00  0.00     0.175 C 
BRANCH  16  17
ATOM     17  C3  <0> d          -0.669  -0.894  -1.591  0.00  0.00     0.026 C 
BRANCH  17  18
ATOM     18  C2  <0> d           0.757  -0.546  -2.023  0.00  0.00    -0.002 C 
ATOM     19  C1  <0> d           0.882   0.970  -2.192  0.00  0.00     0.005 C 
ENDBRANCH  17  18
ENDBRANCH  16  17
ENDBRANCH  15  16
ENDBRANCH  11  15
ENDBRANCH   1   8
BRANCH   2  20
ATOM     20  C16 <0> d          -5.464  -7.897  -1.438  0.00  0.00     0.253 C 
ATOM     21  O2  <0> d          -5.318  -7.698  -2.629  0.00  0.00    -0.268 OA
ATOM     22  N4  <0> d          -6.517  -7.363  -0.789  0.00  0.00    -0.366 N 
ATOM     23  H18 <0> d          -6.633  -7.522   0.161  0.00  0.00     0.159 HD
ATOM     24  H19 <0> d          -7.160  -6.819  -1.272  0.00  0.00     0.159 HD
ENDBRANCH   2  20
BRANCH   5  25
ATOM     25  N3  <0> d          -1.802 -11.008   1.321  0.00  0.00    -0.231 N 
ATOM     26  H13 <0> d          -1.985 -11.949   1.470  0.00  0.00     0.174 HD
ATOM     27  H14 <0> d          -0.980 -10.616   1.655  0.00  0.00     0.174 HD
ENDBRANCH   5  25
TORSDOF 7
