REMARK  3 active torsions:
REMARK  status: ('A' for Active; 'I' for Inactive)
REMARK    1  A    between atoms: C7_7  and  N1_8 
REMARK       I    between atoms: N1_8  and  C8_9 
REMARK    2  A    between atoms: C8_9  and  C9_11 
REMARK    3  A    between atoms: N3_13  and  C13_18 
ROOT
ATOM      1  C9  <0> d          -3.676  -1.042  -0.199  0.00  0.00     0.123 C 
ATOM      2  N2  <0> d          -4.800  -0.395  -0.189  0.00  0.00    -0.168 NA
ATOM      3  N3  <0> d          -6.022  -1.066  -0.288  0.00  0.00    -0.232 N 
ATOM      4  C10 <0> d          -6.101  -2.383  -0.013  0.00  0.00     0.240 C 
ATOM      5  O2  <0> d          -7.165  -2.959  -0.096  0.00  0.00    -0.272 OA
ATOM      6  C11 <0> d          -4.862  -3.137   0.398  0.00  0.00     0.111 C 
ATOM      7  C12 <0> d          -3.649  -2.542  -0.326  0.00  0.00     0.076 C 
ENDROOT
BRANCH   1   8
ATOM      8  C8  <0> d          -2.414  -0.302  -0.090  0.00  0.00     0.272 C 
ATOM      9  N1  <0> d          -2.427   1.041   0.019  0.00  0.00    -0.321 N 
ATOM     10  H8  <0> d          -3.271   1.512   0.106  0.00  0.00     0.169 HD
ATOM     11  O1  <0> d          -1.355  -0.902  -0.099  0.00  0.00    -0.266 OA
BRANCH   9  12
ATOM     12  C7  <0> d          -1.225   1.756   0.006  0.00  0.00     0.041 A 
ATOM     13  C2  <0> d          -1.150   3.001   0.616  0.00  0.00    -0.034 A 
ATOM     14  C1  <0> d          -2.364   3.585   1.291  0.00  0.00     0.050 C 
ATOM     15  C3  <0> d           0.037   3.707   0.597  0.00  0.00     0.032 A 
ATOM     16  C4  <0> d           1.152   3.172  -0.023  0.00  0.00     0.034 A 
ATOM     17  C5  <0> d           1.081   1.928  -0.627  0.00  0.00     0.026 A 
ATOM     18 Cl1  <0> d           2.642   4.062  -0.045  0.00  0.00    -0.084 Cl
ATOM     19  C6  <0> d          -0.103   1.218  -0.611  0.00  0.00     0.032 A 
ENDBRANCH   9  12
ENDBRANCH   1   8
BRANCH   3  20
ATOM     20  C13 <0> d          -7.225  -0.334  -0.693  0.00  0.00     0.128 C 
ATOM     21  C16 <0> d          -7.492   0.811   0.313  0.00  0.00     0.167 C 
ATOM     22  S1  <0> d          -8.267   2.103  -0.741  0.00  0.00     0.146 S 
ATOM     23  C15 <0> d          -8.160   1.265  -2.379  0.00  0.00     0.142 C 
ATOM     24  O3  <0> d          -7.429   3.251  -0.754  0.00  0.00    -0.228 OA
ATOM     25  O4  <0> d          -9.634   2.239  -0.380  0.00  0.00    -0.228 OA
ATOM     26  C14 <0> d          -7.019   0.245  -2.103  0.00  0.00     0.043 C 
ENDBRANCH   3  20
TORSDOF 3
