REMARK  7 active torsions:
REMARK  status: ('A' for Active; 'I' for Inactive)
REMARK    1  A    between atoms: C2_2  and  C3_3 
REMARK    2  A    between atoms: C3_3  and  O1_4 
REMARK    3  A    between atoms: O1_4  and  C4_5 
REMARK    4  A    between atoms: N1_9  and  C9_11 
REMARK    5  A    between atoms: C9_11  and  C10_12 
REMARK    6  A    between atoms: C9_11  and  C11_14 
REMARK    7  A    between atoms: C10_12  and  N2_13 
ROOT
ATOM      1  C4  <0> d           0.019  -2.669  -2.171  0.00  0.00     0.147 C 
ATOM      2  C5  <0> d           1.376  -2.527  -1.474  0.00  0.00     0.035 C 
ATOM      3  C6  <0> d           2.488  -2.882  -2.465  0.00  0.00     0.030 C 
ATOM      4  C7  <0> d           2.255  -4.298  -2.998  0.00  0.00     0.236 C 
ATOM      5  N1  <0> d           0.955  -4.362  -3.675  0.00  0.00    -0.058 N 
ATOM      6  C8  <0> d          -0.122  -4.092  -2.715  0.00  0.00     0.267 C 
ATOM      7  H24 <0> d           0.926  -3.673  -4.412  0.00  0.00     0.280 HD
ENDROOT
BRANCH   5   8
ATOM      8  C9  <0> d           0.770  -5.700  -4.252  0.00  0.00     0.255 C 
BRANCH   8   9
ATOM      9  C10 <0> d           1.894  -5.985  -5.250  0.00  0.00     0.305 C 
BRANCH   9  10
ATOM     10  N2  <0> d           1.931  -4.921  -6.263  0.00  0.00     0.080 N 
ATOM     11  H20 <0> d           2.666  -5.086  -6.934  0.00  0.00     0.312 HD
ATOM     12  H21 <0> d           1.037  -4.827  -6.721  0.00  0.00     0.312 HD
ENDBRANCH   9  10
ENDBRANCH   8   9
BRANCH   8  13
ATOM     13  C11 <0> d           0.802  -6.730  -3.153  0.00  0.00     0.016 A 
ATOM     14  S1  <0> d           2.123  -7.120  -2.016  0.00  0.00    -0.103 SA
ATOM     15  C14 <0> d           1.298  -8.415  -1.106  0.00  0.00     0.069 A 
ATOM     16  C13 <0> d           0.092  -8.469  -1.725  0.00  0.00     0.018 A 
ATOM     17  C12 <0> d          -0.161  -7.605  -2.774  0.00  0.00     0.036 A 
ATOM     18 Br1  <0> d          -1.222  -9.706  -1.161  0.00  0.00    -0.051 Br
ENDBRANCH   8  13
ENDBRANCH   5   8
BRANCH   1  19
ATOM     19  O1  <0> d          -1.028  -2.410  -1.234  0.00  0.00    -0.384 OA
BRANCH  19  20
ATOM     20  C3  <0> d          -1.426  -1.039  -1.171  0.00  0.00     0.168 C 
BRANCH  20  21
ATOM     21  C2  <0> d          -2.546  -0.880  -0.141  0.00  0.00     0.022 C 
ATOM     22  C1  <0> d          -2.972   0.588  -0.073  0.00  0.00     0.007 C 
ENDBRANCH  20  21
ENDBRANCH  19  20
ENDBRANCH   1  19
TORSDOF 7
