REMARK  3 active torsions:
REMARK  status: ('A' for Active; 'I' for Inactive)
REMARK    1  A    between atoms: C7_8  and  N2_12 
REMARK       I    between atoms: N2_12  and  C10_13 
REMARK    2  A    between atoms: C10_13  and  C11_15 
REMARK    3  A    between atoms: C11_15  and  N3_16 
ROOT
ATOM      1  C1  <0> d           0.698  -2.018  -1.309  0.00  0.00     0.010 C 
ATOM      2  C2  <0> d           0.879  -0.507  -1.148  0.00  0.00    -0.014 C 
ATOM      3  C3  <0> d           0.002  -0.004   0.002  0.00  0.00     0.009 C 
ATOM      4  C4  <0> d          -0.019   1.526   0.010  0.00  0.00     0.042 C 
ATOM      5  C5  <0> d           1.417   2.035  -0.001  0.00  0.00    -0.021 A 
ATOM      6  C6  <0> d           2.437   1.234  -0.380  0.00  0.00    -0.007 A 
ATOM      7  S1  <0> d           3.884   2.243  -0.231  0.00  0.00    -0.075 SA
ATOM      8  C7  <0> d           3.146   3.709   0.326  0.00  0.00     0.098 A 
ATOM      9  C8  <0> d           1.800   3.383   0.384  0.00  0.00     0.085 A 
ATOM     10  C9  <0> d           0.822   4.340   0.807  0.00  0.00     0.103 C 
ATOM     11  N1  <0> d           0.046   5.099   1.142  0.00  0.00    -0.191 NA
ATOM     12  C17 <0> d           2.347  -0.193  -0.825  0.00  0.00     0.051 C 
ENDROOT
BRANCH   8  13
ATOM     13  N2  <0> d           3.756   4.916   0.638  0.00  0.00    -0.319 N 
ATOM     14  C10 <0> d           5.092   5.047   0.520  0.00  0.00     0.251 C 
ATOM     15  O1  <0> d           5.762   4.111   0.140  0.00  0.00    -0.271 OA
ATOM     16  H10 <0> d           3.148   5.766   0.983  0.00  0.00     0.169 HD
BRANCH  14  17
ATOM     17  C11 <0> d           5.753   6.358   0.860  0.00  0.00     0.375 C 
BRANCH  17  18
ATOM     18  N3  <0> d           7.202   6.244   0.649  0.00  0.00     0.105 N 
ATOM     19  C15 <0> d           7.906   7.419   1.184  0.00  0.00     0.243 C 
ATOM     20  C14 <0> d           9.414   7.232   0.998  0.00  0.00     0.203 C 
ATOM     21  C16 <0> d           7.590   7.570   2.673  0.00  0.00     0.045 C 
ATOM     22  O2  <0> d           9.695   7.017  -0.388  0.00  0.00    -0.387 OA
ATOM     23  C13 <0> d           9.027   5.880  -0.941  0.00  0.00     0.198 C 
ATOM     24  C12 <0> d           7.515   6.053  -0.775  0.00  0.00     0.299 C 
ENDBRANCH  17  18
ENDBRANCH  14  17
ENDBRANCH   8  13
TORSDOF 3
