REMARK  2 active torsions:
REMARK  status: ('A' for Active; 'I' for Inactive)
REMARK    1  A    between atoms: C5_5  and  C10_12 
REMARK    2  A    between atoms: C10_12  and  O2_15 
ROOT
ATOM      1  C1  <0> d           2.373   0.962   0.777  0.00  0.00     0.047 C 
ATOM      2  C2  <0> d           1.479   1.909  -0.026  0.00  0.00     0.133 C 
ATOM      3  C3  <0> d           1.566   3.349   0.527  0.00  0.00     0.041 C 
ATOM      4  C4  <0> d           2.875   3.877  -0.115  0.00  0.00     0.039 C 
ATOM      5  C5  <0> d           3.112   2.973  -1.345  0.00  0.00     0.222 C 
ATOM      6  C6  <0> d           2.259   0.785  -2.079  0.00  0.00     0.256 C 
ATOM      7  C7  <0> d           0.947   0.040  -2.349  0.00  0.00     0.150 C 
ATOM      8  N1  <0> d           0.566  -0.723  -1.151  0.00  0.00    -0.359 N 
ATOM      9  C8  <0> d           0.092  -0.113  -0.052  0.00  0.00     0.220 C 
ATOM     10  O1  <0> d          -0.288  -0.763   0.898  0.00  0.00    -0.274 OA
ATOM     11  C9  <0> d           0.040   1.403  -0.018  0.00  0.00     0.141 C 
ATOM     12  H13 <0> d           0.659  -1.689  -1.154  0.00  0.00     0.162 HD
ATOM     13  N2  <0> d           1.946   2.094  -1.401  0.00  0.00    -0.053 N 
ATOM     14  H23 <0> d           1.207   2.559  -1.941  0.00  0.00     0.281 HD
ENDROOT
BRANCH   5  15
ATOM     15  C10 <0> d           3.145   3.819  -2.620  0.00  0.00     0.079 C 
ATOM     16  C11 <0> d           1.805   4.537  -2.790  0.00  0.00     0.047 C 
ATOM     17  C12 <0> d           4.269   4.852  -2.517  0.00  0.00     0.047 C 
BRANCH  15  18
ATOM     18  O2  <0> d           3.378   2.972  -3.747  0.00  0.00    -0.388 OA
ATOM     19  H22 <0> d           3.412   3.442  -4.592  0.00  0.00     0.210 HD
ENDBRANCH  15  18
ENDBRANCH   5  15
TORSDOF 2
