REMARK  5 active torsions:
REMARK  status: ('A' for Active; 'I' for Inactive)
REMARK    1  A    between atoms: C2_2  and  C4_4 
REMARK    2  A    between atoms: C10_14  and  N3_16 
REMARK    3  A    between atoms: N3_16  and  C11_17 
REMARK    4  A    between atoms: C11_17  and  C12_18 
REMARK    5  A    between atoms: C12_18  and  N4_19 
ROOT
ATOM      1  C4  <0> d          -1.412  -0.526   0.013  0.00  0.00    -0.053 A 
ATOM      2  C5  <0> d          -2.259  -0.204   1.057  0.00  0.00     0.010 A 
ATOM      3  C6  <0> d          -3.556  -0.679   1.074  0.00  0.00     0.032 A 
ATOM      4  C7  <0> d          -4.013  -1.484   0.038  0.00  0.00     0.072 A 
ATOM      5  C8  <0> d          -3.154  -1.801  -1.009  0.00  0.00     0.110 A 
ATOM      6  C9  <0> d          -1.863  -1.322  -1.026  0.00  0.00     0.035 A 
ATOM      7  S1  <0> d          -3.758  -2.818  -2.317  0.00  0.00     0.300 S 
ATOM      8  O1  <0> d          -3.485  -2.131  -3.531  0.00  0.00    -0.198 OA
ATOM      9  O2  <0> d          -3.291  -4.136  -2.062  0.00  0.00    -0.198 OA
ATOM     10  N1  <0> d          -5.407  -2.848  -2.145  0.00  0.00     0.030 NA
ATOM     11  C10 <0> d          -5.969  -2.444  -1.052  0.00  0.00     0.711 C 
ATOM     12  N2  <0> d          -5.316  -1.974   0.046  0.00  0.00    -0.188 N 
ATOM     13  H11 <0> d          -5.792  -1.980   0.891  0.00  0.00     0.184 HD
ENDROOT
BRANCH  11  14
ATOM     14  N3  <0> d          -7.342  -2.493  -0.995  0.00  0.00    -0.222 N 
ATOM     15  H12 <0> d          -7.805  -2.199  -0.195  0.00  0.00     0.177 HD
BRANCH  14  16
ATOM     16  C11 <0> d          -8.105  -2.988  -2.143  0.00  0.00     0.166 C 
BRANCH  16  17
ATOM     17  C12 <0> d          -9.600  -2.938  -1.821  0.00  0.00     0.254 C 
BRANCH  17  18
ATOM     18  N4  <0> d         -10.366  -3.435  -2.972  0.00  0.00    -0.077 N 
ATOM     19  C13 <0> d         -11.791  -3.500  -2.621  0.00  0.00     0.269 C 
ATOM     20  C14 <0> d         -10.183  -2.525  -4.111  0.00  0.00     0.269 C 
ATOM     21  H23 <0> d         -10.039  -4.356  -3.221  0.00  0.00     0.279 HD
ENDBRANCH  17  18
ENDBRANCH  16  17
ENDBRANCH  14  16
ENDBRANCH  11  14
BRANCH   1  22
ATOM     22  C2  <0> d           0.002  -0.004   0.002  0.00  0.00     0.010 C 
ATOM     23  C1  <0> d          -0.019   1.526   0.010  0.00  0.00     0.015 C 
ATOM     24  C3  <0> d           0.742  -0.511   1.242  0.00  0.00     0.015 C 
ENDBRANCH   1  22
TORSDOF 5
