REMARK  2 active torsions:
REMARK  status: ('A' for Active; 'I' for Inactive)
REMARK    1  A    between atoms: C5_6  and  N3_8 
REMARK    2  A    between atoms: N3_8  and  S1_9 
ROOT
ATOM      1  C1  <0> d          -3.988  -1.616   0.657  0.00  0.00     0.072 C 
ATOM      2  C2  <0> d          -3.523  -0.396   1.409  0.00  0.00     0.065 A 
ATOM      3  C3  <0> d          -4.302   0.152   2.437  0.00  0.00     0.060 A 
ATOM      4  C4  <0> d          -3.837   1.285   3.112  0.00  0.00     0.070 A 
ATOM      5  N1  <0> d          -2.669   1.795   2.759  0.00  0.00    -0.066 NA
ATOM      6  C5  <0> d          -1.960   1.253   1.777  0.00  0.00     0.736 A 
ATOM      7  N2  <0> d          -2.372   0.180   1.114  0.00  0.00    -0.066 NA
ATOM      8  C7  <0> d          -4.628   1.923   4.218  0.00  0.00     0.065 C 
ATOM      9  C8  <0> d          -5.610   0.930   4.837  0.00  0.00    -0.006 C 
ATOM     10  C9  <0> d          -6.492   0.330   3.735  0.00  0.00     0.088 C 
ATOM     11  C10 <0> d          -5.589  -0.455   2.806  0.00  0.00     0.164 C 
ATOM     12  O3  <0> d          -5.915  -1.544   2.382  0.00  0.00    -0.292 OA
ATOM     13  C11 <0> d          -6.490   1.653   5.858  0.00  0.00     0.011 C 
ENDROOT
BRANCH   6  14
ATOM     14  N3  <0> d          -0.751   1.822   1.438  0.00  0.00    -0.113 N 
ATOM     15  H5  <0> d          -0.330   2.459   2.036  0.00  0.00     0.197 HD
BRANCH  14  16
ATOM     16  S1  <0> d          -0.017   1.417   0.010  0.00  0.00     0.240 S 
ATOM     17  O1  <0> d           0.002  -0.004   0.002  0.00  0.00    -0.206 OA
ATOM     18  O2  <0> d           1.195   2.158   0.002  0.00  0.00    -0.206 OA
ATOM     19  C6  <0> d          -1.135   2.034  -1.279  0.00  0.00     0.186 C 
ENDBRANCH  14  16
ENDBRANCH   6  14
TORSDOF 2
