REMARK  10 active torsions:
REMARK  status: ('A' for Active; 'I' for Inactive)
REMARK    1  A    between atoms: C5_5  and  C8_8 
REMARK    2  A    between atoms: C8_8  and  C9_9 
REMARK    3  A    between atoms: C10_10  and  C17_22 
REMARK    4  A    between atoms: N1_11  and  C13_16 
REMARK    5  A    between atoms: C13_16  and  C14_17 
REMARK    6  A    between atoms: C14_17  and  O3_18 
REMARK    7  A    between atoms: O3_18  and  C15_19 
REMARK    8  A    between atoms: C15_19  and  C16_20 
REMARK    9  A    between atoms: C16_20  and  O4_21 
REMARK   10  A    between atoms: C20_25  and  O5_28 
ROOT
ATOM      1  C9  <0> d          -0.001  -5.352   1.326  0.00  0.00     0.062 A 
ATOM      2  C10 <0> d           0.105  -4.576   2.618  0.00  0.00     0.161 A 
ATOM      3  N1  <0> d           0.356  -5.567   3.671  0.00  0.00    -0.331 N 
ATOM      4  C11 <0> d           0.398  -6.782   3.095  0.00  0.00     0.281 A 
ATOM      5  O1  <0> d           0.588  -7.827   3.684  0.00  0.00    -0.265 OA
ATOM      6  C12 <0> d           0.171  -6.658   1.639  0.00  0.00     0.187 A 
ATOM      7  O2  <0> d           0.143  -7.685   0.760  0.00  0.00    -0.185 OA
ENDROOT
BRANCH   1   8
ATOM      8  C8  <0> d          -0.248  -4.798  -0.009  0.00  0.00     0.193 C 
ATOM      9  O6  <0> d          -1.295  -5.035  -0.581  0.00  0.00    -0.287 OA
BRANCH   8  10
ATOM     10  C5  <0> d           0.776  -3.953  -0.660  0.00  0.00     0.015 A 
ATOM     11  C4  <0> d           0.543  -3.423  -1.931  0.00  0.00     0.016 A 
ATOM     12  C3  <0> d           1.502  -2.635  -2.532  0.00  0.00     0.007 A 
ATOM     13  C2  <0> d           2.693  -2.369  -1.879  0.00  0.00    -0.062 A 
ATOM     14  C1  <0> d           3.736  -1.508  -2.542  0.00  0.00     0.048 C 
ATOM     15  C7  <0> d           2.933  -2.896  -0.622  0.00  0.00     0.007 A 
ATOM     16  C6  <0> d           1.980  -3.681  -0.006  0.00  0.00     0.016 A 
ENDBRANCH   8  10
ENDBRANCH   1   8
BRANCH   2  17
ATOM     17  C17 <0> d          -1.185  -3.846   2.891  0.00  0.00    -0.030 A 
ATOM     18  C22 <0> d          -1.231  -2.467   2.795  0.00  0.00     0.012 A 
ATOM     19  C21 <0> d          -2.414  -1.796   3.039  0.00  0.00     0.037 A 
ATOM     20  C20 <0> d          -3.553  -2.506   3.391  0.00  0.00     0.065 A 
ATOM     21  C19 <0> d          -3.502  -3.889   3.491  0.00  0.00     0.037 A 
ATOM     22  C18 <0> d          -2.319  -4.555   3.241  0.00  0.00     0.012 A 
BRANCH  20  23
ATOM     23  O5  <0> d          -4.716  -1.847   3.636  0.00  0.00    -0.361 OA
ATOM     24  H22 <0> d          -4.834  -1.587   4.559  0.00  0.00     0.217 HD
ENDBRANCH  20  23
ENDBRANCH   2  17
BRANCH   3  25
ATOM     25  C13 <0> d           0.532  -5.283   5.098  0.00  0.00     0.153 C 
BRANCH  25  26
ATOM     26  C14 <0> d          -0.828  -5.328   5.798  0.00  0.00     0.187 C 
BRANCH  26  27
ATOM     27  O3  <0> d          -1.350  -6.657   5.738  0.00  0.00    -0.387 OA
BRANCH  27  28
ATOM     28  C15 <0> d          -2.624  -6.810   6.367  0.00  0.00     0.193 C 
BRANCH  28  29
ATOM     29  C16 <0> d          -3.083  -8.264   6.243  0.00  0.00     0.190 C 
BRANCH  29  30
ATOM     30  O4  <0> d          -2.196  -9.108   6.978  0.00  0.00    -0.399 OA
ATOM     31  H17 <0> d          -2.426 -10.046   6.944  0.00  0.00     0.209 HD
ENDBRANCH  29  30
ENDBRANCH  28  29
ENDBRANCH  27  28
ENDBRANCH  26  27
ENDBRANCH  25  26
ENDBRANCH   3  25
TORSDOF 10
