REMARK  3 active torsions:
REMARK  status: ('A' for Active; 'I' for Inactive)
REMARK    1  A    between atoms: C5_5  and  N1_9 
REMARK       I    between atoms: N1_9  and  C8_10 
REMARK    2  A    between atoms: C8_10  and  C9_12 
REMARK       I    between atoms: C9_12  and  N2_14 
REMARK    3  A    between atoms: N2_14  and  C10_15 
ROOT
ATOM      1  N1  <0> d           0.058  -4.169  -0.023  0.00  0.00    -0.318 N 
ATOM      2  C8  <0> d          -0.041  -4.837  -1.189  0.00  0.00     0.314 C 
ATOM      3  O1  <0> d          -0.054  -4.228  -2.239  0.00  0.00    -0.262 OA
ATOM      4  H8  <0> d           0.149  -4.658   0.810  0.00  0.00     0.169 HD
ENDROOT
BRANCH   2   5
ATOM      5  C9  <0> d          -0.133  -6.328  -1.190  0.00  0.00     0.310 C 
ATOM      6  O2  <0> d          -0.120  -6.937  -0.141  0.00  0.00    -0.262 OA
ATOM      7  N2  <0> d          -0.232  -6.996  -2.356  0.00  0.00    -0.347 N 
ATOM      8  H9  <0> d          -0.243  -6.509  -3.195  0.00  0.00     0.163 HD
BRANCH   7   9
ATOM      9  C10 <0> d          -0.323  -8.458  -2.357  0.00  0.00     0.112 C 
ATOM     10  C13 <0> d           0.156  -9.023  -3.708  0.00  0.00     0.259 C 
ATOM     11  N3  <0> d          -0.982  -9.769  -4.292  0.00  0.00    -0.073 N 
ATOM     12  C12 <0> d          -2.206  -9.170  -3.702  0.00  0.00     0.236 C 
ATOM     13  C14 <0> d          -0.994  -9.613  -5.752  0.00  0.00     0.269 C 
ATOM     14  H19 <0> d          -0.919 -10.746  -4.045  0.00  0.00     0.279 HD
ATOM     15  C11 <0> d          -1.798  -8.904  -2.231  0.00  0.00     0.054 C 
ENDBRANCH   7   9
ENDBRANCH   2   5
BRANCH   1  16
ATOM     16  C5  <0> d           0.029  -2.772  -0.013  0.00  0.00     0.052 A 
ATOM     17  C4  <0> d          -0.594  -2.081  -1.046  0.00  0.00     0.031 A 
ATOM     18  C3  <0> d          -0.622  -0.701  -1.033  0.00  0.00     0.009 A 
ATOM     19  C2  <0> d          -0.031  -0.005   0.006  0.00  0.00    -0.061 A 
ATOM     20  C1  <0> d          -0.063   1.502   0.015  0.00  0.00     0.048 C 
ATOM     21  C7  <0> d           0.595  -0.688   1.032  0.00  0.00     0.028 A 
ATOM     22  C6  <0> d           0.622  -2.069   1.029  0.00  0.00     0.038 A 
ATOM     23 Br1  <0> d           1.471  -3.003   2.437  0.00  0.00    -0.049 Br
ENDBRANCH   1  16
TORSDOF 3
