REMARK  5 active torsions:
REMARK  status: ('A' for Active; 'I' for Inactive)
REMARK    1  A    between atoms: C8_9  and  C10_13 
REMARK    2  A    between atoms: C10_13  and  S1_15 
REMARK    3  A    between atoms: S1_15  and  C12_16 
REMARK    4  A    between atoms: C13_19  and  C14_22 
REMARK    5  A    between atoms: N5_20  and  N6_21 
ROOT
ATOM      1  C10 <0> d           7.523  -3.104   0.793  0.00  0.00     0.118 C 
ATOM      2  C11 <0> d           8.393  -2.368   1.814  0.00  0.00     0.029 C 
ENDROOT
BRANCH   1   3
ATOM      3  C8  <0> d           6.254  -2.325   0.560  0.00  0.00     0.144 A 
ATOM      4  N1  <0> d           5.516  -2.025   1.629  0.00  0.00    -0.224 NA
ATOM      5  C7  <0> d           4.411  -1.344   1.435  0.00  0.00     0.112 A 
ATOM      6  C6  <0> d           3.969  -0.911   0.083  0.00  0.00     0.073 A 
ATOM      7  S3  <0> d           3.169  -0.735   2.531  0.00  0.00    -0.100 SA
ATOM      8  C5  <0> d           2.809  -0.264  -0.025  0.00  0.00    -0.047 C 
ATOM      9  C9  <0> d           4.875  -1.309  -1.047  0.00  0.00     0.282 A 
ATOM     10  C4  <0> d           2.123   0.085  -1.344  0.00  0.00     0.037 C 
ATOM     11  C18 <0> d           2.124   0.120   1.289  0.00  0.00     0.084 C 
ATOM     12  C3  <0> d           0.702  -0.489  -1.265  0.00  0.00     0.009 C 
ATOM     13  C2  <0> d           0.002  -0.004   0.002  0.00  0.00    -0.017 C 
ATOM     14  C1  <0> d          -0.019   1.526   0.010  0.00  0.00     0.010 C 
ATOM     15  C19 <0> d           0.729  -0.504   1.254  0.00  0.00     0.024 C 
ATOM     16  N2  <0> d           5.969  -1.998  -0.674  0.00  0.00    -0.193 NA
ATOM     17  O1  <0> d           4.637  -1.030  -2.210  0.00  0.00    -0.265 OA
ENDBRANCH   1   3
BRANCH   1  18
ATOM     18  S1  <0> d           8.429  -3.265  -0.770  0.00  0.00    -0.108 SA
BRANCH  18  19
ATOM     19  C12 <0> d           9.830  -4.341  -0.356  0.00  0.00     0.284 A 
ATOM     20  N5  <0> d          10.634  -3.748   0.725  0.00  0.00    -0.262 N 
ATOM     21  C13 <0> d          10.584  -4.649   1.792  0.00  0.00     0.179 A 
ATOM     22  N4  <0> d           9.871  -5.691   1.505  0.00  0.00    -0.156 NA
ATOM     23  N3  <0> d           9.353  -5.615   0.207  0.00  0.00    -0.278 N 
ATOM     24  H15 <0> d           8.791  -6.272  -0.234  0.00  0.00     0.185 HD
BRANCH  20  25
ATOM     25  N6  <0> d          11.297  -2.554   0.691  0.00  0.00    -0.243 NA
ATOM     26  H16 <0> d          11.773  -2.379   1.562  0.00  0.00     0.143 HD
ATOM     27  H17 <0> d          11.940  -2.520  -0.086  0.00  0.00     0.143 HD
ENDBRANCH  20  25
BRANCH  21  28
ATOM     28  C14 <0> d          11.259  -4.439   3.083  0.00  0.00     0.053 A 
ATOM     29  S2  <0> d          12.266  -3.064   3.616  0.00  0.00    -0.098 SA
ATOM     30  C17 <0> d          12.641  -3.648   5.261  0.00  0.00     0.050 A 
ATOM     31  C16 <0> d          11.991  -4.840   5.295  0.00  0.00     0.009 A 
ATOM     32  C15 <0> d          11.283  -5.252   4.189  0.00  0.00     0.023 A 
ENDBRANCH  21  28
ENDBRANCH  18  19
ENDBRANCH   1  18
TORSDOF 5
