REMARK  5 active torsions:
REMARK  status: ('A' for Active; 'I' for Inactive)
REMARK    1  A    between atoms: C3_3  and  S1_23 
REMARK    2  A    between atoms: C6_6  and  C7_7 
REMARK    3  A    between atoms: C7_7  and  N1_8 
REMARK       I    between atoms: N1_8  and  C8_9 
REMARK    4  A    between atoms: C8_9  and  C9_11 
REMARK    5  A    between atoms: S1_23  and  N2_26 
ROOT
ATOM      1  N1  <0> d          -0.018   1.461   0.010  0.00  0.00    -0.351 N 
ATOM      2  C8  <0> d           1.140   2.151   0.003  0.00  0.00     0.275 C 
ATOM      3  O1  <0> d           2.200   1.557  -0.011  0.00  0.00    -0.265 OA
ATOM      4  H7  <0> d          -0.978   1.998   0.022  0.00  0.00     0.163 HD
ENDROOT
BRANCH   1   5
ATOM      5  C7  <0> d           0.002  -0.004   0.002  0.00  0.00     0.161 C 
BRANCH   5   6
ATOM      6  C6  <0> d          -1.412  -0.526   0.013  0.00  0.00    -0.040 A 
ATOM      7  C1  <0> d          -2.047  -0.777   1.215  0.00  0.00     0.010 A 
ATOM      8  C2  <0> d          -3.345  -1.251   1.224  0.00  0.00     0.025 A 
ATOM      9  C3  <0> d          -4.005  -1.483   0.032  0.00  0.00     0.074 A 
ATOM     10  C4  <0> d          -3.369  -1.237  -1.170  0.00  0.00     0.025 A 
ATOM     11  C5  <0> d          -2.072  -0.758  -1.179  0.00  0.00     0.010 A 
BRANCH   9  12
ATOM     12  S1  <0> d          -5.659  -2.092   0.045  0.00  0.00     0.239 S 
ATOM     13  O4  <0> d          -6.218  -1.723   1.298  0.00  0.00    -0.206 OA
ATOM     14  O5  <0> d          -6.242  -1.708  -1.192  0.00  0.00    -0.206 OA
BRANCH  12  15
ATOM     15  N2  <0> d          -5.572  -3.745   0.034  0.00  0.00    -0.225 NA
ATOM     16  H12 <0> d          -6.588  -4.166   0.042  0.00  0.00     0.136 HD
ATOM     17  H13 <0> d          -5.026  -4.090   0.925  0.00  0.00     0.136 HD
ENDBRANCH  12  15
ENDBRANCH   9  12
ENDBRANCH   5   6
ENDBRANCH   1   5
BRANCH   2  18
ATOM     18  C9  <0> d           1.120   3.632   0.011  0.00  0.00     0.147 A 
ATOM     19  O3  <0> d          -0.065   4.261   0.026  0.00  0.00    -0.304 OA
ATOM     20  C17 <0> d          -0.188   5.602   0.034  0.00  0.00     0.091 A 
ATOM     21  C12 <0> d           0.956   6.419   0.028  0.00  0.00     0.048 A 
ATOM     22  C16 <0> d          -1.444   6.199   0.050  0.00  0.00     0.057 A 
ATOM     23  C11 <0> d           2.281   5.770   0.011  0.00  0.00     0.187 A 
ATOM     24  C13 <0> d           0.829   7.808   0.036  0.00  0.00     0.020 A 
ATOM     25  C10 <0> d           2.299   4.299   0.009  0.00  0.00     0.098 A 
ATOM     26  O2  <0> d           3.310   6.421   0.004  0.00  0.00    -0.287 OA
ATOM     27  C14 <0> d          -0.415   8.373   0.052  0.00  0.00     0.020 A 
ATOM     28  C15 <0> d          -1.551   7.574   0.059  0.00  0.00     0.013 A 
ATOM     29 Br1  <0> d          -3.262   8.379   0.081  0.00  0.00    -0.051 Br
ENDBRANCH   2  18
TORSDOF 5
