REMARK  5 active torsions:
REMARK  status: ('A' for Active; 'I' for Inactive)
REMARK    1  A    between atoms: C2_2  and  C3_3 
REMARK    2  A    between atoms: C3_3  and  N1_4 
REMARK    3  A    between atoms: N1_4  and  C4_5 
REMARK    4  A    between atoms: N2_7  and  N3_8 
REMARK       I    between atoms: N3_8  and  C5_9 
REMARK    5  A    between atoms: C5_9  and  C6_11 
ROOT
ATOM      1  N3  <0> d           4.600   5.532  -0.617  0.00  0.00    -0.263 N 
ATOM      2  C5  <0> d           4.831   4.247  -0.283  0.00  0.00     0.277 C 
ATOM      3  O1  <0> d           5.971   3.861  -0.101  0.00  0.00    -0.265 OA
ATOM      4  H11 <0> d           3.691   5.839  -0.762  0.00  0.00     0.190 HD
ENDROOT
BRANCH   2   5
ATOM      5  C6  <0> d           3.710   3.313  -0.139  0.00  0.00     0.075 A 
ATOM      6  S2  <0> d           1.963   3.612  -0.347  0.00  0.00    -0.089 SA
ATOM      7  C9  <0> d           1.396   2.023  -0.000  0.00  0.00    -0.010 A 
ATOM      8  C8  <0> d           2.522   1.297   0.266  0.00  0.00    -0.043 A 
ATOM      9  C10 <0> d          -0.019   1.531   0.011  0.00  0.00     0.047 C 
ATOM     10  C7  <0> d           3.730   1.971   0.193  0.00  0.00     0.033 A 
ATOM     11  C13 <0> d           2.423  -0.184   0.624  0.00  0.00     0.044 C 
ATOM     12  C12 <0> d           0.991  -0.489   1.066  0.00  0.00    -0.014 C 
ATOM     13  C11 <0> d           0.002  -0.004   0.002  0.00  0.00     0.009 C 
ATOM     14  C14 <0> d           0.830  -1.998   1.259  0.00  0.00     0.010 C 
ENDBRANCH   2   5
BRANCH   1  15
ATOM     15  N2  <0> d           5.671   6.424  -0.754  0.00  0.00    -0.274 N 
ATOM     16  C4  <0> d           5.439   7.709  -1.088  0.00  0.00     0.186 C 
ATOM     17  S1  <0> d           6.749   8.799  -1.256  0.00  0.00    -0.040 SA
ATOM     18  H10 <0> d           6.580   6.117  -0.609  0.00  0.00     0.189 HD
BRANCH  16  19
ATOM     19  N1  <0> d           4.177   8.136  -1.290  0.00  0.00    -0.366 N 
ATOM     20  H9  <0> d           3.435   7.518  -1.194  0.00  0.00     0.161 HD
BRANCH  19  21
ATOM     21  C3  <0> d           3.925   9.532  -1.653  0.00  0.00     0.121 C 
BRANCH  21  22
ATOM     22  C2  <0> d           2.420   9.752  -1.822  0.00  0.00     0.015 C 
ATOM     23  C1  <0> d           2.157  11.211  -2.201  0.00  0.00     0.006 C 
ENDBRANCH  21  22
ENDBRANCH  19  21
ENDBRANCH  16  19
ENDBRANCH   1  15
TORSDOF 5
