REMARK  5 active torsions:
REMARK  status: ('A' for Active; 'I' for Inactive)
REMARK    1  A    between atoms: C4_4  and  C14_19 
REMARK    2  A    between atoms: C7_7  and  S1_8 
REMARK    3  A    between atoms: S1_8  and  C8_9 
REMARK    4  A    between atoms: C11_12  and  C13_15 
REMARK    5  A    between atoms: C14_19  and  N2_20 
ROOT
ATOM      1  C1  <0> d          -0.028   1.998   0.315  0.00  0.00     0.049 C 
ATOM      2  C2  <0> d          -0.070   0.520   0.021  0.00  0.00    -0.044 A 
ATOM      3  C3  <0> d          -0.122   0.080  -1.282  0.00  0.00     0.023 A 
ATOM      4  C4  <0> d          -0.160  -1.290  -1.554  0.00  0.00     0.007 A 
ATOM      5  C5  <0> d          -0.145  -2.210  -0.502  0.00  0.00     0.016 A 
ATOM      6  C6  <0> d          -0.092  -1.764   0.799  0.00  0.00     0.020 A 
ATOM      7  C7  <0> d          -0.049  -0.398   1.067  0.00  0.00     0.013 A 
ENDROOT
BRANCH   7   8
ATOM      8  S1  <0> d           0.026   0.169   2.733  0.00  0.00    -0.070 SA
BRANCH   8   9
ATOM      9  C8  <0> d           1.706   0.656   2.943  0.00  0.00     0.098 A 
ATOM     10  N1  <0> d           2.584   0.414   1.982  0.00  0.00    -0.253 NA
ATOM     11  C12 <0> d           3.851   0.767   2.097  0.00  0.00     0.134 A 
ATOM     12  C11 <0> d           4.310   1.394   3.238  0.00  0.00     0.065 A 
ATOM     13  C10 <0> d           3.422   1.660   4.272  0.00  0.00     0.020 A 
ATOM     14  C9  <0> d           2.100   1.284   4.121  0.00  0.00     0.040 A 
BRANCH  12  15
ATOM     15  C13 <0> d           5.760   1.786   3.359  0.00  0.00     0.418 C 
ATOM     16  F1  <0> d           6.481   0.734   3.933  0.00  0.00    -0.166 F 
ATOM     17  F2  <0> d           6.275   2.067   2.089  0.00  0.00    -0.166 F 
ATOM     18  F3  <0> d           5.870   2.922   4.168  0.00  0.00    -0.166 F 
ENDBRANCH  12  15
ENDBRANCH   8   9
ENDBRANCH   7   8
BRANCH   4  19
ATOM     19  C14 <0> d          -0.217  -1.765  -2.951  0.00  0.00     0.102 C 
ATOM     20  N3  <0> d          -0.232  -0.887  -3.954  0.00  0.00    -0.385 N 
ATOM     21  H11 <0> d          -0.205   0.064  -3.766  0.00  0.00     0.157 HD
ATOM     22  H12 <0> d          -0.269  -1.200  -4.872  0.00  0.00     0.157 HD
BRANCH  19  23
ATOM     23  N2  <0> d          -0.253  -3.072  -3.209  0.00  0.00    -0.385 N 
ATOM     24  H10 <0> d          -0.242  -3.712  -2.480  0.00  0.00     0.157 HD
ATOM     25  H13 <0> d          -0.290  -3.385  -4.127  0.00  0.00     0.157 HD
ENDBRANCH  19  23
ENDBRANCH   4  19
TORSDOF 5
