REMARK  7 active torsions:
REMARK  status: ('A' for Active; 'I' for Inactive)
REMARK    1  A    between atoms: C2_2  and  O1_3 
REMARK    2  A    between atoms: O1_3  and  C3_4 
REMARK    3  A    between atoms: C6_7  and  C10_12 
REMARK    4  A    between atoms: C8_9  and  O2_10 
REMARK    5  A    between atoms: C13_19  and  N4_32 
REMARK    6  A    between atoms: C15_21  and  C16_22 
REMARK    7  A    between atoms: C19_25  and  S1_28 
ROOT
ATOM      1  C10 <0> d          -1.994  -6.077  -0.012  0.00  0.00     0.099 A 
ATOM      2  C11 <0> d          -1.169  -6.998  -0.665  0.00  0.00     0.040 A 
ATOM      3  C12 <0> d          -1.661  -8.249  -0.428  0.00  0.00     0.175 A 
ATOM      4  N1  <0> d          -2.758  -8.118   0.346  0.00  0.00    -0.256 N 
ATOM      5  H1  <0> d          -3.316  -8.842   0.672  0.00  0.00     0.191 HD
ATOM      6  N2  <0> d          -2.948  -6.751   0.602  0.00  0.00    -0.172 NA
ATOM      7  O3  <0> d          -1.080  -9.370  -0.923  0.00  0.00    -0.274 OA
ATOM      8  C13 <0> d           0.161  -9.256  -1.437  0.00  0.00     0.161 C 
ATOM      9  C14 <0> d           0.750  -8.074  -1.726  0.00  0.00     0.086 C 
ATOM     10  C15 <0> d           0.060  -6.751  -1.501  0.00  0.00     0.106 C 
ATOM     11  C23 <0> d           2.077  -8.077  -2.264  0.00  0.00     0.100 C 
ATOM     12  N3  <0> d           3.129  -8.080  -2.692  0.00  0.00    -0.191 NA
ENDROOT
BRANCH   8  13
ATOM     13  N4  <0> d           0.869 -10.407  -1.680  0.00  0.00    -0.379 N 
ATOM     14  H21 <0> d           0.473 -11.270  -1.483  0.00  0.00     0.158 HD
ATOM     15  H22 <0> d           1.764 -10.357  -2.049  0.00  0.00     0.158 HD
ENDBRANCH   8  13
BRANCH  10  16
ATOM     16  C16 <0> d          -0.338  -6.154  -2.826  0.00  0.00    -0.044 A 
ATOM     17  C21 <0> d           0.140  -4.909  -3.193  0.00  0.00     0.009 A 
ATOM     18  C20 <0> d          -0.218  -4.361  -4.409  0.00  0.00     0.019 A 
ATOM     19  C19 <0> d          -1.068  -5.057  -5.259  0.00  0.00    -0.000 A 
ATOM     20  C18 <0> d          -1.551  -6.306  -4.885  0.00  0.00     0.019 A 
ATOM     21  C17 <0> d          -1.185  -6.850  -3.670  0.00  0.00     0.009 A 
BRANCH  19  22
ATOM     22  S1  <0> d          -1.533  -4.359  -6.809  0.00  0.00    -0.134 SA
ATOM     23  C22 <0> d          -0.673  -2.762  -6.846  0.00  0.00     0.095 C 
ENDBRANCH  19  22
ENDBRANCH  10  16
BRANCH   1  24
ATOM     24  C6  <0> d          -1.823  -4.603  -0.005  0.00  0.00    -0.002 A 
ATOM     25  C5  <0> d          -0.545  -4.049  -0.009  0.00  0.00     0.017 A 
ATOM     26  C4  <0> d          -0.387  -2.678  -0.003  0.00  0.00     0.040 A 
ATOM     27  C3  <0> d          -1.498  -1.849   0.006  0.00  0.00     0.102 A 
ATOM     28  C8  <0> d          -2.778  -2.398   0.016  0.00  0.00     0.102 A 
ATOM     29  C7  <0> d          -2.941  -3.771   0.004  0.00  0.00     0.053 A 
BRANCH  27  30
ATOM     30  O1  <0> d          -1.339  -0.499   0.012  0.00  0.00    -0.349 OA
BRANCH  30  31
ATOM     31  C2  <0> d           0.002  -0.004   0.002  0.00  0.00     0.171 C 
ATOM     32  C1  <0> d          -0.019   1.526   0.010  0.00  0.00     0.034 C 
ENDBRANCH  30  31
ENDBRANCH  27  30
BRANCH  28  33
ATOM     33  O2  <0> d          -3.867  -1.583   0.030  0.00  0.00    -0.353 OA
ATOM     34  C9  <0> d          -5.149  -2.215   0.039  0.00  0.00     0.210 C 
ENDBRANCH  28  33
ENDBRANCH   1  24
TORSDOF 7
