REMARK  6 active torsions:
REMARK  status: ('A' for Active; 'I' for Inactive)
REMARK    1  A    between atoms: C2_2  and  O1_3 
REMARK    2  A    between atoms: O1_3  and  C3_4 
REMARK    3  A    between atoms: C6_7  and  C11_13 
REMARK    4  A    between atoms: C8_9  and  O2_10 
REMARK    5  A    between atoms: O2_10  and  C9_11 
REMARK    6  A    between atoms: C18_21  and  N4_27 
ROOT
ATOM      1  C11 <0> d           1.532   0.033   6.141  0.00  0.00     0.072 C 
ATOM      2  C12 <0> d           3.002   0.451   6.193  0.00  0.00     0.059 C 
ATOM      3  C13 <0> d           3.168   1.948   6.275  0.00  0.00     0.280 C 
ATOM      4  N1  <0> d           3.513   2.537   4.978  0.00  0.00     0.087 N 
ATOM      5  C14 <0> d           4.772   1.959   4.476  0.00  0.00     0.297 C 
ATOM      6  C15 <0> d           4.537   0.487   4.243  0.00  0.00     0.012 C 
ATOM      7  C16 <0> d           3.706  -0.179   5.023  0.00  0.00    -0.031 C 
ATOM      8  C17 <0> d           3.428  -1.613   4.758  0.00  0.00     0.076 C 
ATOM      9  C18 <0> d           2.359  -2.200   5.355  0.00  0.00     0.062 C 
ATOM     10  C19 <0> d           1.441  -1.486   6.300  0.00  0.00     0.188 C 
ATOM     11  C20 <0> d           1.799  -1.846   7.681  0.00  0.00     0.092 C 
ATOM     12  N2  <0> d           2.076  -2.124   8.747  0.00  0.00    -0.195 NA
ATOM     13  C21 <0> d           0.057  -1.913   6.039  0.00  0.00     0.092 C 
ATOM     14  N3  <0> d          -1.011  -2.243   5.837  0.00  0.00    -0.195 NA
ATOM     15  C22 <0> d           4.277  -2.367   3.886  0.00  0.00     0.102 C 
ATOM     16  N5  <0> d           4.950  -2.966   3.194  0.00  0.00    -0.191 NA
ATOM     17  H18 <0> d           2.709   2.331   4.257  0.00  0.00     0.316 HD
ENDROOT
BRANCH   1  18
ATOM     18  C6  <0> d           0.938   0.438   4.817  0.00  0.00    -0.047 A 
ATOM     19  C5  <0> d           1.008  -0.422   3.737  0.00  0.00     0.010 A 
ATOM     20  C4  <0> d           0.465  -0.054   2.520  0.00  0.00     0.040 A 
ATOM     21  C3  <0> d          -0.151   1.179   2.381  0.00  0.00     0.102 A 
ATOM     22  C8  <0> d          -0.216   2.048   3.466  0.00  0.00     0.102 A 
ATOM     23  C7  <0> d           0.325   1.670   4.685  0.00  0.00     0.047 A 
BRANCH  21  24
ATOM     24  O1  <0> d          -0.685   1.542   1.184  0.00  0.00    -0.349 OA
BRANCH  24  25
ATOM     25  C2  <0> d          -0.576   0.603   0.113  0.00  0.00     0.171 C 
ATOM     26  C1  <0> d          -1.230   1.183  -1.143  0.00  0.00     0.034 C 
ENDBRANCH  24  25
ENDBRANCH  21  24
BRANCH  22  27
ATOM     27  O2  <0> d          -0.814   3.261   3.333  0.00  0.00    -0.349 OA
BRANCH  27  28
ATOM     28  C9  <0> d          -0.844   4.101   4.489  0.00  0.00     0.171 C 
ATOM     29  C10 <0> d          -1.552   5.414   4.148  0.00  0.00     0.034 C 
ENDBRANCH  27  28
ENDBRANCH  22  27
ENDBRANCH   1  18
BRANCH   9  30
ATOM     30  N4  <0> d           2.107  -3.515   5.079  0.00  0.00    -0.399 N 
ATOM     31  H22 <0> d           1.249  -4.020   5.546  0.00  0.00     0.156 HD
ATOM     32  H23 <0> d           2.762  -4.068   4.390  0.00  0.00     0.156 HD
ENDBRANCH   9  30
TORSDOF 6
