REMARK  5 active torsions:
REMARK  status: ('A' for Active; 'I' for Inactive)
REMARK    1  A    between atoms: C2_2  and  C3_3 
REMARK    2  A    between atoms: C3_3  and  O1_4 
REMARK    3  A    between atoms: O1_4  and  C4_5 
REMARK    4  A    between atoms: C8_9  and  C10_11 
REMARK    5  A    between atoms: C11_13  and  N5_29 
ROOT
ATOM      1  C10 <0> d          -3.956  -6.129   0.018  0.00  0.00     0.259 C 
ATOM      2  N1  <0> d          -5.051  -6.591   0.890  0.00  0.00    -0.200 N 
ATOM      3  C11 <0> d          -6.336  -6.619   0.414  0.00  0.00     0.688 C 
ATOM      4  N2  <0> d          -6.592  -6.817  -0.867  0.00  0.00    -0.021 N 
ATOM      5  C12 <0> d          -5.547  -6.933  -1.722  0.00  0.00     0.724 A 
ATOM      6  N3  <0> d          -4.257  -6.619  -1.331  0.00  0.00    -0.152 N 
ATOM      7  C13 <0> d          -3.424  -6.851  -2.400  0.00  0.00     0.086 A 
ATOM      8  C14 <0> d          -2.055  -6.737  -2.605  0.00  0.00     0.072 A 
ATOM      9  C15 <0> d          -1.514  -7.060  -3.834  0.00  0.00     0.104 A 
ATOM     10  C16 <0> d          -2.330  -7.500  -4.872  0.00  0.00     0.104 A 
ATOM     11  C17 <0> d          -3.692  -7.616  -4.687  0.00  0.00     0.074 A 
ATOM     12  C18 <0> d          -4.254  -7.292  -3.448  0.00  0.00     0.106 A 
ATOM     13  N4  <0> d          -5.537  -7.309  -2.974  0.00  0.00    -0.062 NA
ATOM     14  O2  <0> d          -1.775  -7.817  -6.079  0.00  0.00    -0.348 OA
ATOM     15  C19 <0> d          -1.238  -6.725  -6.827  0.00  0.00     0.178 C 
ATOM     16  C20 <0> d           0.183  -6.415  -6.381  0.00  0.00     0.053 C 
ATOM     17  C21 <0> d           0.245  -5.924  -4.944  0.00  0.00     0.178 C 
ATOM     18  O3  <0> d          -0.167  -6.950  -4.039  0.00  0.00    -0.348 OA
ATOM     19  H13 <0> d          -4.864  -6.875   1.798  0.00  0.00     0.180 HD
ATOM     20  H24 <0> d          -7.505  -6.878  -1.188  0.00  0.00     0.203 HD
ENDROOT
BRANCH   1  21
ATOM     21  C8  <0> d          -3.895  -4.623   0.020  0.00  0.00    -0.012 A 
ATOM     22  C7  <0> d          -5.064  -3.885   0.029  0.00  0.00     0.011 A 
ATOM     23  C6  <0> d          -5.012  -2.503   0.030  0.00  0.00     0.003 A 
ATOM     24  C5  <0> d          -3.791  -1.857   0.022  0.00  0.00     0.037 A 
ATOM     25  C4  <0> d          -2.616  -2.596   0.013  0.00  0.00     0.069 A 
ATOM     26  C9  <0> d          -2.671  -3.982   0.006  0.00  0.00     0.047 A 
BRANCH  25  27
ATOM     27  O1  <0> d          -1.414  -1.962   0.005  0.00  0.00    -0.351 OA
BRANCH  27  28
ATOM     28  C3  <0> d          -1.433  -0.534   0.013  0.00  0.00     0.175 C 
BRANCH  28  29
ATOM     29  C2  <0> d           0.002  -0.004   0.002  0.00  0.00     0.022 C 
ATOM     30  C1  <0> d          -0.019   1.526   0.010  0.00  0.00     0.007 C 
ENDBRANCH  28  29
ENDBRANCH  27  28
ENDBRANCH  25  27
ENDBRANCH   1  21
BRANCH   3  31
ATOM     31  N5  <0> d          -7.376  -6.438   1.285  0.00  0.00    -0.234 N 
ATOM     32  H22 <0> d          -7.200  -6.292   2.227  0.00  0.00     0.174 HD
ATOM     33  H23 <0> d          -8.290  -6.455   0.959  0.00  0.00     0.174 HD
ENDBRANCH   3  31
TORSDOF 5
