REMARK  4 active torsions:
REMARK  status: ('A' for Active; 'I' for Inactive)
REMARK    1  A    between atoms: C9_10  and  C12_14 
REMARK    2  A    between atoms: C9_10  and  C13_16 
REMARK    3  A    between atoms: C12_14  and  O3_15 
REMARK    4  A    between atoms: C13_16  and  O4_17 
ROOT
ATOM      1  C1  <0> d          -0.018   1.503   0.010  0.00  0.00     0.048 C 
ATOM      2  C2  <0> d           0.002  -0.004   0.002  0.00  0.00    -0.060 A 
ATOM      3  C3  <0> d           0.006  -0.687  -1.204  0.00  0.00     0.016 A 
ATOM      4  C4  <0> d           0.029  -2.068  -1.233  0.00  0.00    -0.027 A 
ATOM      5  C5  <0> d           0.049  -2.780  -0.045  0.00  0.00     0.088 A 
ATOM      6  C6  <0> d           0.037  -2.092   1.177  0.00  0.00     0.045 A 
ATOM      7  C7  <0> d           0.023  -0.696   1.195  0.00  0.00     0.024 A 
ATOM      8  C8  <0> d           0.036  -2.870   2.427  0.00  0.00     0.175 C 
ATOM      9  O1  <0> d           0.962  -2.806   3.208  0.00  0.00    -0.291 OA
ATOM     10  C9  <0> d          -1.163  -3.753   2.700  0.00  0.00     0.070 C 
ATOM     11  C10 <0> d          -1.055  -5.038   1.905  0.00  0.00     0.049 C 
ATOM     12  C11 <0> d          -1.086  -4.812   0.401  0.00  0.00     0.177 C 
ATOM     13  O2  <0> d           0.086  -4.143  -0.055  0.00  0.00    -0.350 OA
ATOM     14  C14 <0> d           0.033  -2.797  -2.551  0.00  0.00     0.051 C 
ENDROOT
BRANCH  10  15
ATOM     15  C12 <0> d          -1.221  -4.083   4.193  0.00  0.00     0.184 C 
BRANCH  15  16
ATOM     16  O3  <0> d          -1.337  -2.873   4.945  0.00  0.00    -0.400 OA
ATOM     17  H12 <0> d          -1.379  -3.007   5.902  0.00  0.00     0.209 HD
ENDBRANCH  15  16
ENDBRANCH  10  15
BRANCH  10  18
ATOM     18  C13 <0> d          -2.440  -3.013   2.297  0.00  0.00     0.184 C 
BRANCH  18  19
ATOM     19  O4  <0> d          -2.552  -1.807   3.056  0.00  0.00    -0.400 OA
ATOM     20  H15 <0> d          -3.340  -1.285   2.853  0.00  0.00     0.209 HD
ENDBRANCH  18  19
ENDBRANCH  10  18
TORSDOF 4
