REMARK  5 active torsions:
REMARK  status: ('A' for Active; 'I' for Inactive)
REMARK    1  A    between atoms: C2_2  and  C3_4 
REMARK    2  A    between atoms: C5_6  and  C7_9 
REMARK       I    between atoms: C7_9  and  N2_11 
REMARK    3  A    between atoms: N2_11  and  C8_12 
REMARK    4  A    between atoms: C8_12  and  C9_13 
REMARK    5  A    between atoms: N4_16  and  C12_18 
ROOT
ATOM      1  C7  <0> d           0.011  -3.736  -3.459  0.00  0.00     0.270 C 
ATOM      2  O2  <0> d           0.025  -4.704  -2.726  0.00  0.00    -0.266 OA
ATOM      3  N2  <0> d           0.003  -3.903  -4.796  0.00  0.00    -0.351 N 
ATOM      4  H7  <0> d          -0.008  -3.130  -5.382  0.00  0.00     0.163 HD
ENDROOT
BRANCH   3   5
ATOM      5  C8  <0> d           0.011  -5.253  -5.365  0.00  0.00     0.164 C 
BRANCH   5   6
ATOM      6  C9  <0> d          -0.001  -5.164  -6.870  0.00  0.00    -0.004 A 
ATOM      7  C11 <0> d           1.087  -5.107  -7.672  0.00  0.00     0.129 A 
ATOM      8  N4  <0> d           0.653  -5.038  -8.951  0.00  0.00    -0.245 N 
ATOM      9  N3  <0> d          -0.748  -5.044  -8.930  0.00  0.00    -0.180 NA
ATOM     10  C10 <0> d          -1.138  -5.119  -7.683  0.00  0.00     0.149 A 
BRANCH   8  11
ATOM     11  C12 <0> d           1.460  -4.969 -10.094  0.00  0.00     0.058 A 
ATOM     12  C17 <0> d           0.879  -4.896 -11.353  0.00  0.00     0.031 A 
ATOM     13  C16 <0> d           1.678  -4.823 -12.478  0.00  0.00     0.002 A 
ATOM     14  C15 <0> d           3.055  -4.833 -12.351  0.00  0.00     0.000 A 
ATOM     15  C14 <0> d           3.637  -4.910 -11.099  0.00  0.00     0.002 A 
ATOM     16  C13 <0> d           2.843  -4.978  -9.971  0.00  0.00     0.031 A 
ENDBRANCH   8  11
ENDBRANCH   5   6
ENDBRANCH   3   5
BRANCH   1  17
ATOM     17  C5  <0> d           0.003  -2.365  -2.881  0.00  0.00     0.119 A 
ATOM     18  C4  <0> d           0.011  -2.069  -1.442  0.00  0.00     0.049 A 
ATOM     19  C3  <0> d          -0.000  -0.728  -1.268  0.00  0.00     0.009 A 
ATOM     20  C6  <0> d          -0.021  -0.132  -2.658  0.00  0.00     0.192 A 
ATOM     21  N1  <0> d          -0.012  -1.274  -3.579  0.00  0.00    -0.280 NA
BRANCH  19  22
ATOM     22  C2  <0> d           0.002  -0.004   0.002  0.00  0.00     0.153 C 
ATOM     23  C1  <0> d          -0.018   1.503   0.010  0.00  0.00     0.096 C 
ATOM     24  O1  <0> d           0.020  -0.616   1.049  0.00  0.00    -0.293 OA
ENDBRANCH  19  22
ENDBRANCH   1  17
TORSDOF 5
