REMARK  8 active torsions:
REMARK  status: ('A' for Active; 'I' for Inactive)
REMARK    1  A    between atoms: C2_2  and  N1_4 
REMARK    2  A    between atoms: N1_4  and  C4_5 
REMARK    3  A    between atoms: N1_4  and  S1_8 
REMARK    4  A    between atoms: C4_5  and  C5_6 
REMARK    5  A    between atoms: C5_6  and  O1_7 
REMARK    6  A    between atoms: S1_8  and  C6_11 
REMARK    7  A    between atoms: C10_15  and  C12_17 
REMARK    8  A    between atoms: C12_17  and  N2_18 
ROOT
ATOM      1  C6  <0> d          -1.265  -3.130  -0.407  0.00  0.00     0.080 A 
ATOM      2  C7  <0> d          -0.015  -3.634  -0.712  0.00  0.00     0.025 A 
ATOM      3  C8  <0> d           0.353  -4.888  -0.263  0.00  0.00     0.002 A 
ATOM      4  C9  <0> d          -0.529  -5.638   0.492  0.00  0.00     0.009 A 
ATOM      5  C10 <0> d          -1.779  -5.134   0.798  0.00  0.00    -0.032 A 
ATOM      6  C11 <0> d          -2.145  -3.877   0.352  0.00  0.00     0.034 A 
ENDROOT
BRANCH   1   7
ATOM      7  S1  <0> d          -1.734  -1.531  -0.979  0.00  0.00     0.261 S 
ATOM      8  O2  <0> d          -3.155  -1.512  -1.014  0.00  0.00    -0.200 OA
ATOM      9  O3  <0> d          -0.940  -1.261  -2.127  0.00  0.00    -0.200 OA
BRANCH   7  10
ATOM     10  N1  <0> d          -1.275  -0.441   0.180  0.00  0.00    -0.301 N 
BRANCH  10  11
ATOM     11  C2  <0> d           0.056   0.169   0.126  0.00  0.00     0.088 C 
ATOM     12  C1  <0> d          -0.081   1.693   0.128  0.00  0.00     0.032 C 
ATOM     13  C3  <0> d           0.868  -0.272   1.346  0.00  0.00     0.032 C 
ENDBRANCH  10  11
BRANCH  10  14
ATOM     14  C4  <0> d          -2.200  -0.087   1.260  0.00  0.00     0.162 C 
BRANCH  14  15
ATOM     15  C5  <0> d          -2.978   1.172   0.873  0.00  0.00     0.184 C 
BRANCH  15  16
ATOM     16  O1  <0> d          -3.808   0.891  -0.256  0.00  0.00    -0.399 OA
ATOM     17  H12 <0> d          -4.332   1.647  -0.557  0.00  0.00     0.209 HD
ENDBRANCH  15  16
ENDBRANCH  14  15
ENDBRANCH  10  14
ENDBRANCH   7  10
ENDBRANCH   1   7
BRANCH   5  18
ATOM     18  C12 <0> d          -2.741  -5.952   1.621  0.00  0.00     0.268 C 
BRANCH  18  19
ATOM     19  N2  <0> d          -2.542  -5.654   3.046  0.00  0.00    -0.075 N 
ATOM     20  H19 <0> d          -2.709  -4.673   3.211  0.00  0.00     0.274 HD
ATOM     21  H20 <0> d          -3.186  -6.202   3.596  0.00  0.00     0.274 HD
ATOM     22  H21 <0> d          -1.596  -5.883   3.309  0.00  0.00     0.274 HD
ENDBRANCH  18  19
ENDBRANCH   5  18
TORSDOF 8
