REMARK  4 active torsions:
REMARK  status: ('A' for Active; 'I' for Inactive)
REMARK    1  A    between atoms: C5_5  and  N2_14 
REMARK    2  A    between atoms: C7_7  and  C8_8 
REMARK       I    between atoms: C8_8  and  N1_10 
REMARK    3  A    between atoms: N1_10  and  C9_11 
REMARK       I    between atoms: N2_14  and  C12_15 
REMARK    4  A    between atoms: C12_15  and  C13_17 
ROOT
ATOM      1  N2  <0> d           0.546  -4.112   0.263  0.00  0.00    -0.323 N 
ATOM      2  C12 <0> d           1.339  -4.551   1.261  0.00  0.00     0.258 C 
ATOM      3  O2  <0> d           1.897  -3.753   1.990  0.00  0.00    -0.267 OA
ATOM      4  H16 <0> d           0.162  -4.744  -0.364  0.00  0.00     0.169 HD
ENDROOT
BRANCH   1   5
ATOM      5  C5  <0> d           0.279  -2.745   0.133  0.00  0.00     0.036 A 
ATOM      6  C4  <0> d           0.117  -2.186  -1.130  0.00  0.00     0.030 A 
ATOM      7  C3  <0> d          -0.148  -0.837  -1.264  0.00  0.00     0.010 A 
ATOM      8  C2  <0> d          -0.255  -0.035  -0.146  0.00  0.00    -0.046 A 
ATOM      9  C1  <0> d          -0.543   1.437  -0.299  0.00  0.00     0.049 C 
ATOM     10  C7  <0> d          -0.089  -0.585   1.126  0.00  0.00     0.040 A 
ATOM     11  C6  <0> d           0.174  -1.948   1.262  0.00  0.00     0.047 A 
BRANCH  10  12
ATOM     12  C8  <0> d          -0.196   0.273   2.325  0.00  0.00     0.252 C 
ATOM     13  O1  <0> d          -0.308   1.477   2.203  0.00  0.00    -0.268 OA
ATOM     14  N1  <0> d          -0.170  -0.280   3.554  0.00  0.00    -0.353 N 
ATOM     15  H8  <0> d          -0.081  -1.241   3.651  0.00  0.00     0.163 HD
BRANCH  14  16
ATOM     16  C9  <0> d          -0.277   0.570   4.742  0.00  0.00     0.076 C 
ATOM     17  C10 <0> d          -0.836  -0.249   5.907  0.00  0.00     0.032 C 
ATOM     18  C11 <0> d           1.108   1.104   5.113  0.00  0.00     0.032 C 
ENDBRANCH  14  16
ENDBRANCH  10  12
ENDBRANCH   1   5
BRANCH   2  19
ATOM     19  C13 <0> d           1.529  -5.997   1.469  0.00  0.00     0.066 A 
ATOM     20  C18 <0> d           2.358  -6.463   2.511  0.00  0.00     0.100 A 
ATOM     21  C17 <0> d           2.521  -7.846   2.697  0.00  0.00     0.066 A 
ATOM     22  N3  <0> d           3.091  -5.847   3.460  0.00  0.00    -0.241 NA
ATOM     23  C16 <0> d           1.881  -8.741   1.852  0.00  0.00     0.074 A 
ATOM     24  N4  <0> d           3.366  -7.987   3.781  0.00  0.00    -0.349 N 
ATOM     25  C15 <0> d           1.075  -8.275   0.828  0.00  0.00     0.119 A 
ATOM     26  C14 <0> d           0.898  -6.916   0.634  0.00  0.00     0.061 A 
ATOM     27  F1  <0> d           0.456  -9.155   0.011  0.00  0.00    -0.206 F 
ATOM     28  C19 <0> d           3.690  -6.735   4.201  0.00  0.00     0.208 A 
ATOM     29  H1  <0> d           3.679  -8.822   4.163  0.00  0.00     0.167 HD
ENDBRANCH   2  19
TORSDOF 4
