REMARK  6 active torsions:
REMARK  status: ('A' for Active; 'I' for Inactive)
REMARK    1  A    between atoms: C3_3  and  C7_8 
REMARK    2  A    between atoms: C5_5  and  N1_7 
REMARK    3  A    between atoms: C7_8  and  S1_9 
REMARK    4  A    between atoms: S1_9  and  N2_12 
REMARK    5  A    between atoms: N2_12  and  C8_13 
REMARK    6  A    between atoms: C8_13  and  C9_14 
ROOT
ATOM      1  S1  <0> d           4.206   2.496   1.684  0.00  0.00     0.230 S 
ATOM      2  O1  <0> d           3.308   3.389   2.327  0.00  0.00    -0.206 OA
ATOM      3  O2  <0> d           4.581   1.274   2.304  0.00  0.00    -0.206 OA
ENDROOT
BRANCH   1   4
ATOM      4  C7  <0> d           3.671   2.193  -0.023  0.00  0.00     0.201 C 
BRANCH   4   5
ATOM      5  C3  <0> d           2.380   1.416  -0.013  0.00  0.00    -0.041 A 
ATOM      6  C2  <0> d           1.171   2.086   0.002  0.00  0.00     0.008 A 
ATOM      7  C1  <0> d          -0.017   1.377   0.010  0.00  0.00     0.003 A 
ATOM      8  C6  <0> d           0.002  -0.004   0.002  0.00  0.00     0.029 A 
ATOM      9  C5  <0> d           1.215  -0.681  -0.013  0.00  0.00     0.026 A 
ATOM     10  C4  <0> d           2.406   0.035  -0.021  0.00  0.00     0.037 A 
BRANCH   9  11
ATOM     11  N1  <0> d           1.238  -2.077  -0.021  0.00  0.00    -0.399 N 
ATOM     12  H6  <0> d           2.086  -2.549  -0.032  0.00  0.00     0.156 HD
ATOM     13  H7  <0> d           0.406  -2.576  -0.015  0.00  0.00     0.156 HD
ENDBRANCH   9  11
ENDBRANCH   4   5
ENDBRANCH   1   4
BRANCH   1  14
ATOM     14  N2  <0> d           5.619   3.348   1.542  0.00  0.00    -0.319 N 
ATOM     15  H10 <0> d           6.454   2.958   1.846  0.00  0.00     0.172 HD
BRANCH  14  16
ATOM     16  C8  <0> d           5.609   4.691   0.955  0.00  0.00     0.137 C 
BRANCH  16  17
ATOM     17  C9  <0> d           6.929   5.396   1.274  0.00  0.00     0.019 C 
ATOM     18  C12 <0> d           6.978   6.771   0.548  0.00  0.00     0.146 C 
ATOM     19  S2  <0> d           8.277   7.627   1.536  0.00  0.00     0.144 S 
ATOM     20  C11 <0> d           8.190   6.632   3.080  0.00  0.00     0.141 C 
ATOM     21  O3  <0> d           9.540   7.416   0.921  0.00  0.00    -0.228 OA
ATOM     22  O4  <0> d           7.847   8.953   1.815  0.00  0.00    -0.228 OA
ATOM     23  C10 <0> d           7.031   5.649   2.787  0.00  0.00     0.022 C 
ENDBRANCH  16  17
ENDBRANCH  14  16
ENDBRANCH   1  14
TORSDOF 6
