REMARK  6 active torsions:
REMARK  status: ('A' for Active; 'I' for Inactive)
REMARK    1  A    between atoms: C2_2  and  C13_20 
REMARK    2  A    between atoms: N1_5  and  C5_9 
REMARK    3  A    between atoms: C5_9  and  C6_10 
REMARK       I    between atoms: C6_10  and  N3_12 
REMARK    4  A    between atoms: N3_12  and  C8_14 
REMARK    5  A    between atoms: C8_14  and  C9_15 
REMARK    6  A    between atoms: C13_20  and  O4_21 
ROOT
ATOM      1  C1  <0> d          -0.019   1.526   0.010  0.00  0.00     0.051 C 
ATOM      2  C2  <0> d           0.002  -0.004   0.002  0.00  0.00     0.133 A 
ATOM      3  C3  <0> d           0.815  -0.520  -1.169  0.00  0.00     0.258 A 
ATOM      4  O1  <0> d           0.595  -0.342  -2.348  0.00  0.00    -0.270 OA
ATOM      5  N1  <0> d           1.833  -1.217  -0.627  0.00  0.00    -0.259 N 
ATOM      6  C4  <0> d           1.777  -1.214   0.710  0.00  0.00     0.326 A 
ATOM      7  O2  <0> d           2.586  -1.776   1.421  0.00  0.00    -0.247 OA
ATOM      8  N2  <0> d           0.724  -0.519   1.178  0.00  0.00    -0.323 N 
ATOM      9  H4  <0> d           0.487  -0.383   2.109  0.00  0.00     0.165 HD
ENDROOT
BRANCH   5  10
ATOM     10  C5  <0> d           2.871  -1.896  -1.406  0.00  0.00     0.239 C 
BRANCH  10  11
ATOM     11  C6  <0> d           4.020  -0.950  -1.644  0.00  0.00     0.238 C 
ATOM     12  O3  <0> d           3.975   0.180  -1.206  0.00  0.00    -0.272 OA
ATOM     13  N3  <0> d           5.097  -1.360  -2.343  0.00  0.00    -0.350 N 
ATOM     14  C7  <0> d           5.151  -2.725  -2.872  0.00  0.00     0.153 C 
BRANCH  13  15
ATOM     15  C8  <0> d           6.213  -0.440  -2.574  0.00  0.00     0.171 C 
BRANCH  15  16
ATOM     16  C9  <0> d           7.209  -0.566  -1.450  0.00  0.00     0.000 A 
ATOM     17  S1  <0> d           7.283   0.330   0.093  0.00  0.00    -0.105 SA
ATOM     18  C12 <0> d           8.737  -0.455   0.770  0.00  0.00     0.050 A 
ATOM     19  C11 <0> d           9.068  -1.328  -0.213  0.00  0.00     0.008 A 
ATOM     20  C10 <0> d           8.285  -1.385  -1.351  0.00  0.00     0.017 A 
ENDBRANCH  15  16
ENDBRANCH  13  15
ENDBRANCH  10  11
ENDBRANCH   5  10
BRANCH   2  21
ATOM     21  C13 <0> d          -1.423  -0.560  -0.041  0.00  0.00     0.207 C 
BRANCH  21  22
ATOM     22  O4  <0> d          -2.148  -0.099   1.101  0.00  0.00    -0.393 OA
ATOM     23  C14 <0> d          -3.498  -0.563   1.158  0.00  0.00     0.201 C 
ENDBRANCH  21  22
ENDBRANCH   2  21
TORSDOF 6
