REMARK  3 active torsions:
REMARK  status: ('A' for Active; 'I' for Inactive)
REMARK    1  A    between atoms: C11_14  and  C19_24 
REMARK    2  A    between atoms: N4_17  and  C13_18 
REMARK       I    between atoms: C19_24  and  N5_26 
REMARK    3  A    between atoms: N5_26  and  C20_27 
ROOT
ATOM      1  C1  <0> d           1.326  10.485   0.043  0.00  0.00     0.052 C 
ATOM      2  C2  <0> d           0.007   9.763  -0.058  0.00  0.00    -0.015 A 
ATOM      3  C3  <0> d          -1.156  10.467  -0.145  0.00  0.00     0.012 A 
ATOM      4  C4  <0> d          -2.375   9.781  -0.237  0.00  0.00     0.018 A 
ATOM      5  C5  <0> d          -2.393   8.429  -0.239  0.00  0.00     0.102 A 
ATOM      6  N1  <0> d          -1.235   7.716  -0.153  0.00  0.00    -0.272 N 
ATOM      7  C6  <0> d          -0.031   8.356  -0.062  0.00  0.00     0.145 A 
ATOM      8  N2  <0> d           1.114   7.679   0.024  0.00  0.00    -0.211 NA
ATOM      9  C7  <0> d           1.141   6.352   0.023  0.00  0.00     0.150 A 
ATOM     10  C8  <0> d          -0.075   5.636  -0.069  0.00  0.00     0.080 A 
ATOM     11  C9  <0> d          -1.289   6.365  -0.159  0.00  0.00     0.267 A 
ATOM     12  O1  <0> d          -2.357   5.786  -0.239  0.00  0.00    -0.267 OA
ATOM     13  C10 <0> d          -0.082   4.234  -0.070  0.00  0.00     0.042 A 
ATOM     14  C11 <0> d           1.121   3.546   0.019  0.00  0.00     0.077 A 
ATOM     15  C12 <0> d           2.375   4.308   0.119  0.00  0.00     0.119 A 
ATOM     16  N3  <0> d           3.520   3.681   0.210  0.00  0.00    -0.384 N 
ATOM     17  N4  <0> d           2.338   5.686   0.112  0.00  0.00    -0.312 N 
ATOM     18  H8  <0> d           4.456   4.254   0.285  0.00  0.00     0.157 HD
ATOM     19  H24 <0> d           3.547   2.582   0.211  0.00  0.00     0.157 HD
ENDROOT
BRANCH  14  20
ATOM     20  C19 <0> d           1.140   2.079   0.019  0.00  0.00     0.261 C 
ATOM     21  O2  <0> d           2.201   1.484  -0.008  0.00  0.00    -0.267 OA
ATOM     22  N5  <0> d          -0.018   1.390   0.050  0.00  0.00    -0.303 N 
ATOM     23  H20 <0> d          -0.978   1.927   0.074  0.00  0.00     0.171 HD
BRANCH  22  24
ATOM     24  C20 <0> d           0.000  -0.004   0.050  0.00  0.00     0.149 A 
ATOM     25  O3  <0> d           1.099  -0.777   0.016  0.00  0.00    -0.306 OA
ATOM     26  C23 <0> d           0.736  -2.072   0.032  0.00  0.00     0.144 A 
ATOM     27  C22 <0> d          -0.607  -2.140   0.067  0.00  0.00     0.029 A 
ATOM     28  C21 <0> d          -1.086  -0.811   0.079  0.00  0.00     0.058 A 
ENDBRANCH  22  24
ENDBRANCH  14  20
BRANCH  17  29
ATOM     29  C13 <0> d           3.587   6.446   0.206  0.00  0.00     0.093 C 
ATOM     30  C18 <0> d           4.301   6.093   1.512  0.00  0.00     0.026 C 
ATOM     31  C17 <0> d           5.606   6.887   1.611  0.00  0.00     0.002 C 
ATOM     32  C16 <0> d           6.507   6.536   0.426  0.00  0.00     0.000 C 
ATOM     33  C15 <0> d           5.793   6.890  -0.880  0.00  0.00     0.002 C 
ATOM     34  C14 <0> d           4.489   6.096  -0.979  0.00  0.00     0.026 C 
ENDBRANCH  17  29
TORSDOF 3
