REMARK  4 active torsions:
REMARK  status: ('A' for Active; 'I' for Inactive)
REMARK    1  A    between atoms: C2_2  and  C3_3 
REMARK    2  A    between atoms: C3_3  and  C4_4 
REMARK    3  A    between atoms: N1_7  and  C7_11 
REMARK    4  A    between atoms: C7_11  and  C8_12 
ROOT
ATOM      1  C4  <0> d           0.763  -2.041   1.233  0.00  0.00     0.179 A 
ATOM      2  C5  <0> d           1.551  -2.570   2.415  0.00  0.00     0.251 A 
ATOM      3  O1  <0> d           2.724  -2.381   2.656  0.00  0.00    -0.271 OA
ATOM      4  N1  <0> d           0.677  -3.294   3.141  0.00  0.00    -0.264 N 
ATOM      5  C6  <0> d          -0.541  -3.296   2.589  0.00  0.00     0.326 A 
ATOM      6  O2  <0> d          -1.496  -3.880   3.061  0.00  0.00    -0.247 OA
ATOM      7  N2  <0> d          -0.592  -2.579   1.448  0.00  0.00    -0.329 N 
ATOM      8  H9  <0> d          -1.366  -2.442   0.880  0.00  0.00     0.165 HD
ENDROOT
BRANCH   4   9
ATOM      9  C7  <0> d           1.020  -3.994   4.382  0.00  0.00     0.180 C 
BRANCH   9  10
ATOM     10  C8  <0> d           0.797  -3.074   5.555  0.00  0.00     0.026 A 
ATOM     11  C10 <0> d          -0.353  -2.943   6.259  0.00  0.00     0.131 A 
ATOM     12  N4  <0> d          -0.141  -2.025   7.226  0.00  0.00    -0.262 N 
ATOM     13 Cl1  <0> d          -1.833  -3.804   5.971  0.00  0.00    -0.062 Cl
ATOM     14  N3  <0> d           1.179  -1.571   7.107  0.00  0.00    -0.176 NA
ATOM     15  C11 <0> d          -1.119  -1.579   8.220  0.00  0.00     0.181 C 
ATOM     16  C9  <0> d           1.740  -2.199   6.105  0.00  0.00     0.062 A 
ATOM     17  C12 <0> d           3.157  -2.014   5.628  0.00  0.00     0.073 C 
ENDBRANCH   9  10
ENDBRANCH   4   9
BRANCH   1  18
ATOM     18  C3  <0> d           0.742  -0.511   1.242  0.00  0.00     0.034 C 
BRANCH  18  19
ATOM     19  C2  <0> d           0.002  -0.004   0.002  0.00  0.00    -0.002 C 
ATOM     20  C1  <0> d          -0.019   1.526   0.010  0.00  0.00     0.005 C 
ENDBRANCH  18  19
ENDBRANCH   1  18
TORSDOF 4
