REMARK  4 active torsions:
REMARK  status: ('A' for Active; 'I' for Inactive)
REMARK    1  A    between atoms: N1_12  and  C11_15 
REMARK    2  A    between atoms: C11_15  and  C13_17 
REMARK       I    between atoms: C13_17  and  N3_19 
REMARK    3  A    between atoms: N3_19  and  C14_20 
REMARK    4  A    between atoms: C17_23  and  O3_26 
ROOT
ATOM      1  C1  <0> d           1.429   3.566   0.266  0.00  0.00     0.010 C 
ATOM      2  C2  <0> d           1.441   2.059   0.004  0.00  0.00    -0.014 C 
ATOM      3  C3  <0> d           0.007   1.522   0.024  0.00  0.00     0.009 C 
ATOM      4  C4  <0> d           0.024  -0.006   0.012  0.00  0.00     0.041 C 
ATOM      5  C5  <0> d           0.886  -0.483  -1.154  0.00  0.00    -0.026 A 
ATOM      6  C6  <0> d           1.774   0.354  -1.739  0.00  0.00    -0.008 A 
ATOM      7  S1  <0> d           2.538  -0.603  -3.024  0.00  0.00    -0.073 SA
ATOM      8  C7  <0> d           1.669  -2.119  -2.774  0.00  0.00     0.115 A 
ATOM      9  C8  <0> d           0.807  -1.829  -1.693  0.00  0.00     0.075 A 
ATOM     10  C9  <0> d          -0.051  -2.888  -1.243  0.00  0.00     0.263 A 
ATOM     11  O1  <0> d          -0.832  -2.741  -0.318  0.00  0.00    -0.267 OA
ATOM     12  N1  <0> d           0.062  -4.060  -1.911  0.00  0.00    -0.294 N 
ATOM     13  C10 <0> d           0.922  -4.244  -2.942  0.00  0.00     0.214 A 
ATOM     14  N2  <0> d           1.723  -3.300  -3.383  0.00  0.00    -0.235 NA
ATOM     15  C20 <0> d           2.051   1.780  -1.377  0.00  0.00     0.051 C 
ENDROOT
BRANCH  12  16
ATOM     16  C11 <0> d          -0.786  -5.182  -1.501  0.00  0.00     0.182 C 
ATOM     17  C12 <0> d          -1.669  -5.611  -2.675  0.00  0.00     0.043 C 
BRANCH  16  18
ATOM     18  C13 <0> d           0.082  -6.339  -1.076  0.00  0.00     0.245 C 
ATOM     19  O2  <0> d           1.290  -6.236  -1.113  0.00  0.00    -0.271 OA
ATOM     20  N3  <0> d          -0.484  -7.487  -0.656  0.00  0.00    -0.325 N 
ATOM     21  H14 <0> d          -1.448  -7.547  -0.563  0.00  0.00     0.169 HD
BRANCH  20  22
ATOM     22  C14 <0> d           0.319  -8.595  -0.354  0.00  0.00     0.035 A 
ATOM     23  C19 <0> d           1.570  -8.410   0.219  0.00  0.00     0.032 A 
ATOM     24  C18 <0> d           2.361  -9.502   0.517  0.00  0.00     0.039 A 
ATOM     25  C17 <0> d           1.906 -10.783   0.244  0.00  0.00     0.065 A 
ATOM     26  C16 <0> d           0.656 -10.969  -0.329  0.00  0.00     0.039 A 
ATOM     27  C15 <0> d          -0.138  -9.878  -0.622  0.00  0.00     0.032 A 
BRANCH  25  28
ATOM     28  O3  <0> d           2.686 -11.858   0.537  0.00  0.00    -0.361 OA
ATOM     29  H19 <0> d           2.549 -12.212   1.427  0.00  0.00     0.217 HD
ENDBRANCH  25  28
ENDBRANCH  20  22
ENDBRANCH  16  18
ENDBRANCH  12  16
TORSDOF 4
