REMARK  4 active torsions:
REMARK  status: ('A' for Active; 'I' for Inactive)
REMARK    1  A    between atoms: C4_4  and  S1_7 
REMARK    2  A    between atoms: S1_7  and  N1_10 
REMARK    3  A    between atoms: N1_10  and  C7_11 
REMARK    4  A    between atoms: C12_16  and  C13_17 
ROOT
ATOM      1  C7  <0> d           3.551  -1.816   2.386  0.00  0.00     0.051 A 
ATOM      2  C8  <0> d           2.911  -2.957   1.919  0.00  0.00     0.031 A 
ATOM      3  C9  <0> d           2.094  -3.684   2.762  0.00  0.00     0.002 A 
ATOM      4  C10 <0> d           1.913  -3.277   4.072  0.00  0.00     0.001 A 
ATOM      5  C11 <0> d           2.548  -2.142   4.540  0.00  0.00     0.012 A 
ATOM      6  C12 <0> d           3.371  -1.413   3.703  0.00  0.00     0.001 A 
ENDROOT
BRANCH   6   7
ATOM      7  C13 <0> d           4.068  -0.180   4.217  0.00  0.00     0.210 A 
ATOM      8  N3  <0> d           4.298  -0.362   5.659  0.00  0.00    -0.371 N 
ATOM      9  C20 <0> d           3.803   0.515   6.482  0.00  0.00     0.056 A 
ATOM     10  H17 <0> d           4.808  -1.118   5.988  0.00  0.00     0.161 HD
ATOM     11  C15 <0> d           3.019   1.675   5.988  0.00  0.00     0.061 A 
ATOM     12  C19 <0> d           4.005   0.380   7.935  0.00  0.00     0.031 A 
ATOM     13  N2  <0> d           2.796   1.865   4.698  0.00  0.00    -0.323 N 
ATOM     14  C16 <0> d           2.510   2.588   6.939  0.00  0.00     0.032 A 
ATOM     15  C14 <0> d           3.263   1.022   3.776  0.00  0.00     0.249 A 
ATOM     16  H16 <0> d           2.280   2.637   4.416  0.00  0.00     0.169 HD
ATOM     17  O3  <0> d           3.045   1.217   2.596  0.00  0.00    -0.270 OA
ATOM     18  C17 <0> d           2.737   2.399   8.260  0.00  0.00     0.002 A 
ATOM     19  C18 <0> d           3.473   1.311   8.756  0.00  0.00     0.002 A 
ENDBRANCH   6   7
BRANCH   1  20
ATOM     20  N1  <0> d           4.378  -1.079   1.536  0.00  0.00    -0.280 N 
ATOM     21  H7  <0> d           5.175  -0.651   1.885  0.00  0.00     0.179 HD
BRANCH  20  22
ATOM     22  S1  <0> d           3.997  -0.935  -0.070  0.00  0.00     0.263 S 
ATOM     23  O1  <0> d           3.822  -2.255  -0.565  0.00  0.00    -0.200 OA
ATOM     24  O2  <0> d           4.937  -0.028  -0.630  0.00  0.00    -0.200 OA
BRANCH  22  25
ATOM     25  C4  <0> d           2.422  -0.149  -0.163  0.00  0.00     0.079 A 
ATOM     26  C3  <0> d           2.341   1.230  -0.231  0.00  0.00     0.025 A 
ATOM     27  C2  <0> d           1.105   1.846  -0.305  0.00  0.00     0.002 A 
ATOM     28  C1  <0> d          -0.048   1.084  -0.312  0.00  0.00     0.000 A 
ATOM     29  C6  <0> d           0.034  -0.294  -0.244  0.00  0.00     0.002 A 
ATOM     30  C5  <0> d           1.269  -0.911  -0.169  0.00  0.00     0.025 A 
ENDBRANCH  22  25
ENDBRANCH  20  22
ENDBRANCH   1  20
TORSDOF 4
