REMARK  6 active torsions:
REMARK  status: ('A' for Active; 'I' for Inactive)
REMARK    1  A    between atoms: C2_2  and  C6_12 
REMARK    2  A    between atoms: C3_4  and  C4_6 
REMARK    3  A    between atoms: C6_12  and  C7_13 
REMARK       I    between atoms: C7_13  and  N5_15 
REMARK    4  A    between atoms: N6_18  and  C12_21 
REMARK    5  A    between atoms: C12_21  and  C13_22 
REMARK    6  A    between atoms: C13_22  and  N7_23 
ROOT
ATOM      1  C7  <0> d           2.736   3.691   1.159  0.00  0.00     0.225 C 
ATOM      2  O1  <0> d           2.992   2.771   1.907  0.00  0.00    -0.273 OA
ATOM      3  N5  <0> d           3.296   4.900   1.362  0.00  0.00    -0.348 N 
ATOM      4  C8  <0> d           2.994   6.030   0.470  0.00  0.00     0.156 C 
ATOM      5  C9  <0> d           4.316   6.646   0.001  0.00  0.00     0.292 C 
ATOM      6  N6  <0> d           5.139   6.981   1.171  0.00  0.00     0.093 N 
ATOM      7  C10 <0> d           5.498   5.776   1.932  0.00  0.00     0.292 C 
ATOM      8  C11 <0> d           4.219   5.126   2.484  0.00  0.00     0.156 C 
ENDROOT
BRANCH   1   9
ATOM      9  C6  <0> d           1.792   3.481   0.003  0.00  0.00     0.162 C 
BRANCH   9  10
ATOM     10  C2  <0> d           1.310   2.053   0.001  0.00  0.00     0.051 A 
ATOM     11  C1  <0> d          -0.022   1.784   0.012  0.00  0.00     0.079 A 
ATOM     12  S1  <0> d           0.002  -0.004   0.002  0.00  0.00    -0.076 SA
ATOM     13  C3  <0> d           1.780  -0.198  -0.016  0.00  0.00     0.147 A 
ATOM     14  N1  <0> d           2.176   1.067  -0.013  0.00  0.00    -0.241 NA
BRANCH  13  15
ATOM     15  C4  <0> d           2.589  -1.435  -0.031  0.00  0.00     0.206 A 
ATOM     16  N2  <0> d           2.105  -2.686  -0.033  0.00  0.00    -0.219 NA
ATOM     17  C5  <0> d           3.092  -3.542  -0.048  0.00  0.00     0.228 A 
ATOM     18  N3  <0> d           4.249  -2.854  -0.056  0.00  0.00    -0.270 N 
ATOM     19  H1  <0> d           5.144  -3.225  -0.068  0.00  0.00     0.190 HD
ATOM     20  N4  <0> d           3.904  -1.492  -0.050  0.00  0.00    -0.151 NA
ENDBRANCH  13  15
ENDBRANCH   9  10
ENDBRANCH   1   9
BRANCH   6  21
ATOM     21  C12 <0> d           6.339   7.729   0.774  0.00  0.00     0.300 C 
BRANCH  21  22
ATOM     22  C13 <0> d           7.037   8.273   2.022  0.00  0.00     0.265 C 
BRANCH  22  23
ATOM     23  N7  <0> d           8.237   9.021   1.625  0.00  0.00    -0.069 N 
ATOM     24  C17 <0> d           8.990   9.452   2.824  0.00  0.00     0.235 C 
ATOM     25  C16 <0> d           9.589  10.835   2.508  0.00  0.00     0.029 C 
ATOM     26  C15 <0> d           9.104  11.169   1.079  0.00  0.00     0.029 C 
ATOM     27  C14 <0> d           7.852  10.270   0.919  0.00  0.00     0.235 C 
ATOM     28  H26 <0> d           8.823   8.452   1.033  0.00  0.00     0.279 HD
ENDBRANCH  22  23
ENDBRANCH  21  22
ENDBRANCH   6  21
TORSDOF 6
