REMARK  5 active torsions:
REMARK  status: ('A' for Active; 'I' for Inactive)
REMARK    1  A    between atoms: C4_4  and  N1_11 
REMARK    2  A    between atoms: C5_5  and  O1_9 
REMARK    3  A    between atoms: C11_15  and  C22_30 
REMARK    4  A    between atoms: C22_30  and  C23_31 
REMARK    5  A    between atoms: C23_31  and  S1_32 
ROOT
ATOM      1  N1  <0> d           0.028  -2.768  -2.429  0.00  0.00    -0.249 N 
ATOM      2  C9  <0> d          -1.096  -3.137  -3.054  0.00  0.00     0.238 A 
ATOM      3  O2  <0> d          -2.221  -2.927  -2.655  0.00  0.00    -0.272 OA
ATOM      4  C10 <0> d          -0.744  -3.857  -4.336  0.00  0.00     0.128 A 
ATOM      5  C11 <0> d          -1.154  -5.340  -4.219  0.00  0.00     0.237 C 
ATOM      6  N2  <0> d           0.011  -6.008  -3.581  0.00  0.00     0.113 N 
ATOM      7  C12 <0> d           1.183  -5.351  -4.188  0.00  0.00     0.279 A 
ATOM      8  C13 <0> d           0.810  -3.854  -4.335  0.00  0.00     0.147 A 
ATOM      9  C14 <0> d           1.155  -3.111  -3.063  0.00  0.00     0.239 A 
ATOM     10  O3  <0> d           2.278  -2.868  -2.677  0.00  0.00    -0.272 OA
ATOM     11  C15 <0> d           1.530  -5.959  -5.517  0.00  0.00     0.017 A 
ATOM     12  C16 <0> d           0.840  -6.112  -6.699  0.00  0.00     0.012 A 
ATOM     13  C17 <0> d           1.444  -6.732  -7.779  0.00  0.00     0.001 A 
ATOM     14  C18 <0> d           2.741  -7.197  -7.667  0.00  0.00     0.002 A 
ATOM     15  C19 <0> d           3.437  -7.046  -6.486  0.00  0.00     0.030 A 
ATOM     16  C20 <0> d           2.836  -6.424  -5.394  0.00  0.00     0.044 A 
ATOM     17  N3  <0> d           3.324  -6.157  -4.113  0.00  0.00    -0.324 N 
ATOM     18  C21 <0> d           2.414  -5.530  -3.342  0.00  0.00     0.267 A 
ATOM     19  O4  <0> d           2.559  -5.177  -2.191  0.00  0.00    -0.270 OA
ATOM     20  H12 <0> d           0.001  -5.876  -2.580  0.00  0.00     0.318 HD
ATOM     21  H17 <0> d           4.214  -6.397  -3.812  0.00  0.00     0.169 HD
ENDROOT
BRANCH   1  22
ATOM     22  C4  <0> d           0.025  -2.073  -1.209  0.00  0.00     0.079 A 
ATOM     23  C3  <0> d           0.006  -0.687  -1.200  0.00  0.00     0.041 A 
ATOM     24  C2  <0> d           0.002  -0.004   0.002  0.00  0.00    -0.038 A 
ATOM     25  C1  <0> d          -0.018   1.503   0.010  0.00  0.00     0.050 C 
ATOM     26  C7  <0> d           0.023  -0.701   1.197  0.00  0.00     0.042 A 
ATOM     27  C6  <0> d           0.036  -2.084   1.195  0.00  0.00     0.063 A 
ATOM     28 Cl1  <0> d           0.026   0.163   2.703  0.00  0.00    -0.084 Cl
ATOM     29  C5  <0> d           0.040  -2.775  -0.006  0.00  0.00     0.097 A 
BRANCH  29  30
ATOM     30  O1  <0> d           0.058  -4.134  -0.010  0.00  0.00    -0.354 OA
ATOM     31  C8  <0> d           0.073  -4.787   1.261  0.00  0.00     0.210 C 
ENDBRANCH  29  30
ENDBRANCH   1  22
BRANCH   5  32
ATOM     32  C22 <0> d          -2.398  -5.481  -3.339  0.00  0.00     0.046 C 
BRANCH  32  33
ATOM     33  C23 <0> d          -2.859  -6.939  -3.337  0.00  0.00     0.075 C 
BRANCH  33  34
ATOM     34  S1  <0> d          -4.334  -7.106  -2.295  0.00  0.00    -0.173 SA
ATOM     35  C24 <0> d          -4.747  -8.870  -2.398  0.00  0.00     0.089 C 
ENDBRANCH  33  34
ENDBRANCH  32  33
ENDBRANCH   5  32
TORSDOF 5
