REMARK  7 active torsions:
REMARK  status: ('A' for Active; 'I' for Inactive)
REMARK    1  A    between atoms: C2_2  and  C3_3 
REMARK    2  A    between atoms: C2_2  and  N1_6 
REMARK       I    between atoms: N1_6  and  C6_7 
REMARK    3  A    between atoms: C6_7  and  C7_9 
REMARK    4  A    between atoms: C9_12  and  C10_14 
REMARK    5  A    between atoms: C10_14  and  C11_15 
REMARK    6  A    between atoms: C10_14  and  N3_19 
REMARK    7  A    between atoms: C11_15  and  C12_16 
ROOT
ATOM      1  C7  <0> d           3.183  -0.873  -2.530  0.00  0.00     0.149 A 
ATOM      2  C8  <0> d           4.494  -1.161  -2.755  0.00  0.00     0.181 A 
ATOM      3  O2  <0> d           4.574  -1.680  -3.991  0.00  0.00    -0.303 OA
ATOM      4  C9  <0> d           3.340  -1.711  -4.513  0.00  0.00     0.176 A 
ATOM      5  N2  <0> d           2.496  -1.235  -3.647  0.00  0.00    -0.219 NA
ENDROOT
BRANCH   1   6
ATOM      6  C6  <0> d           2.614  -0.286  -1.303  0.00  0.00     0.272 C 
ATOM      7  N1  <0> d           1.288  -0.059  -1.217  0.00  0.00    -0.351 N 
ATOM      8  H13 <0> d           0.708  -0.283  -1.962  0.00  0.00     0.163 HD
ATOM      9  O1  <0> d           3.340  -0.005  -0.369  0.00  0.00    -0.266 OA
BRANCH   7  10
ATOM     10  C2  <0> d           0.722   0.524   0.001  0.00  0.00     0.084 C 
ATOM     11  C1  <0> d           0.829   2.049  -0.066  0.00  0.00     0.032 C 
BRANCH  10  12
ATOM     12  C3  <0> d          -0.749   0.121   0.124  0.00  0.00    -0.000 C 
ATOM     13  C4  <0> d          -0.856  -1.403   0.192  0.00  0.00     0.011 C 
ATOM     14  C5  <0> d          -1.340   0.731   1.397  0.00  0.00     0.011 C 
ENDBRANCH  10  12
ENDBRANCH   7  10
ENDBRANCH   1   6
BRANCH   4  15
ATOM     15  C10 <0> d           2.986  -2.221  -5.886  0.00  0.00     0.260 C 
BRANCH  15  16
ATOM     16  C11 <0> d           3.036  -3.750  -5.891  0.00  0.00     0.045 C 
BRANCH  16  17
ATOM     17  C12 <0> d           2.595  -4.271  -7.260  0.00  0.00    -0.020 C 
ATOM     18  C13 <0> d           2.783  -5.788  -7.313  0.00  0.00     0.009 C 
ATOM     19  C14 <0> d           1.120  -3.931  -7.485  0.00  0.00     0.009 C 
ENDBRANCH  16  17
ENDBRANCH  15  16
BRANCH  15  20
ATOM     20  N3  <0> d           3.948  -1.698  -6.866  0.00  0.00    -0.068 N 
ATOM     21  H24 <0> d           3.656  -1.957  -7.796  0.00  0.00     0.275 HD
ATOM     22  H25 <0> d           3.987  -0.692  -6.794  0.00  0.00     0.275 HD
ATOM     23  H26 <0> d           4.862  -2.084  -6.680  0.00  0.00     0.275 HD
ENDBRANCH  15  20
ENDBRANCH   4  15
TORSDOF 7
