REMARK  6 active torsions:
REMARK  status: ('A' for Active; 'I' for Inactive)
REMARK    1  A    between atoms: C3_3  and  C6_7 
REMARK    2  A    between atoms: C6_7  and  C7_8 
REMARK    3  A    between atoms: C7_8  and  C8_9 
REMARK    4  A    between atoms: C9_10  and  C10_11 
REMARK    5  A    between atoms: C15_16  and  C20_22 
REMARK    6  A    between atoms: C20_22  and  N2_23 
ROOT
ATOM      1  C10 <0> d           6.949   4.818   2.061  0.00  0.00    -0.034 A 
ATOM      2  C11 <0> d           7.102   6.004   2.760  0.00  0.00     0.023 A 
ATOM      3  C12 <0> d           8.342   6.657   2.749  0.00  0.00    -0.024 A 
ATOM      4  C13 <0> d           8.530   7.864   3.450  0.00  0.00     0.013 A 
ATOM      5  C14 <0> d           9.738   8.482   3.427  0.00  0.00     0.016 A 
ATOM      6  C15 <0> d          10.814   7.933   2.708  0.00  0.00     0.008 A 
ATOM      7  C16 <0> d          10.662   6.747   2.009  0.00  0.00     0.029 A 
ATOM      8  C17 <0> d           9.421   6.093   2.020  0.00  0.00    -0.008 A 
ATOM      9  C18 <0> d           9.234   4.886   1.320  0.00  0.00     0.022 A 
ATOM     10  C19 <0> d           8.026   4.265   1.348  0.00  0.00     0.031 A 
ATOM     11 Br1  <0> d          10.666   4.126   0.346  0.00  0.00    -0.050 Br
ENDROOT
BRANCH   1  12
ATOM     12  C9  <0> d           5.644   4.125   2.070  0.00  0.00     0.007 C 
ATOM     13  C8  <0> d           5.492   2.987   1.407  0.00  0.00    -0.026 C 
BRANCH  13  14
ATOM     14  C7  <0> d           4.161   2.280   1.417  0.00  0.00     0.032 C 
BRANCH  14  15
ATOM     15  C6  <0> d           3.696   2.049  -0.023  0.00  0.00     0.043 C 
BRANCH  15  16
ATOM     16  C3  <0> d           2.365   1.343  -0.013  0.00  0.00    -0.040 A 
ATOM     17  C2  <0> d           1.185   2.070   0.002  0.00  0.00     0.010 A 
ATOM     18  C1  <0> d          -0.017   1.378   0.010  0.00  0.00     0.020 A 
ATOM     19  C5  <0> d           0.002  -0.004   0.002  0.00  0.00     0.116 A 
ATOM     20  N1  <0> d           1.144  -0.663  -0.013  0.00  0.00    -0.273 NA
ATOM     21  C4  <0> d           2.305  -0.038  -0.020  0.00  0.00     0.123 A 
ENDBRANCH  15  16
ENDBRANCH  14  15
ENDBRANCH  13  14
ENDBRANCH   1  12
BRANCH   6  22
ATOM     22  C20 <0> d          12.120   8.627   2.699  0.00  0.00     0.102 C 
ATOM     23  N3  <0> d          13.246   7.925   2.578  0.00  0.00    -0.385 N 
ATOM     24  H17 <0> d          13.210   6.959   2.496  0.00  0.00     0.157 HD
ATOM     25  H18 <0> d          14.103   8.380   2.572  0.00  0.00     0.157 HD
BRANCH  22  26
ATOM     26  N2  <0> d          12.170   9.953   2.812  0.00  0.00    -0.385 N 
ATOM     27  H16 <0> d          11.350  10.463   2.900  0.00  0.00     0.157 HD
ATOM     28  H19 <0> d          13.027  10.408   2.805  0.00  0.00     0.157 HD
ENDBRANCH  22  26
ENDBRANCH   6  22
TORSDOF 6
