REMARK  5 active torsions:
REMARK  status: ('A' for Active; 'I' for Inactive)
REMARK    1  A    between atoms: C2_2  and  C3_3 
REMARK    2  A    between atoms: C3_3  and  N1_5 
REMARK    3  A    between atoms: C7_9  and  C8_10 
REMARK    4  A    between atoms: C9_11  and  N4_22 
REMARK    5  A    between atoms: C19_25  and  C22_28 
REMARK       I    between atoms: C22_28  and  N5_30 
ROOT
ATOM      1  C8  <0> d          -5.737   2.212   1.718  0.00  0.00     0.080 A 
ATOM      2  C9  <0> d          -6.742   3.149   2.056  0.00  0.00     0.143 A 
ATOM      3  N2  <0> d          -7.349   3.831   1.095  0.00  0.00    -0.212 NA
ATOM      4  C10 <0> d          -7.036   3.659  -0.190  0.00  0.00     0.145 A 
ATOM      5  C11 <0> d          -7.714   4.412  -1.165  0.00  0.00    -0.015 A 
ATOM      6  C12 <0> d          -7.402   4.243  -2.482  0.00  0.00     0.012 A 
ATOM      7  C13 <0> d          -6.410   3.322  -2.844  0.00  0.00     0.018 A 
ATOM      8  C14 <0> d          -5.768   2.607  -1.893  0.00  0.00     0.102 A 
ATOM      9  N3  <0> d          -6.073   2.768  -0.574  0.00  0.00    -0.272 N 
ATOM     10  C15 <0> d          -5.410   2.042   0.351  0.00  0.00     0.267 A 
ATOM     11  O2  <0> d          -4.546   1.250   0.015  0.00  0.00    -0.267 OA
ATOM     12  C16 <0> d          -8.778   5.399  -0.759  0.00  0.00     0.052 C 
ENDROOT
BRANCH   1  13
ATOM     13  C7  <0> d          -5.072   1.469   2.721  0.00  0.00     0.045 C 
ATOM     14  C6  <0> d          -3.739   1.661   2.941  0.00  0.00     0.077 A 
ATOM     15  C5  <0> d          -2.827   2.532   2.279  0.00  0.00     0.266 A 
ATOM     16  S1  <0> d          -2.662   0.887   4.140  0.00  0.00    -0.055 SA
ATOM     17  N1  <0> d          -1.568   2.537   2.680  0.00  0.00    -0.294 N 
ATOM     18  O1  <0> d          -3.198   3.252   1.369  0.00  0.00    -0.266 OA
ATOM     19  C23 <0> d          -1.156   1.735   3.687  0.00  0.00     0.149 A 
ATOM     20  S2  <0> d           0.410   1.573   4.358  0.00  0.00    -0.052 SA
BRANCH  17  21
ATOM     21  C3  <0> d          -0.604   3.422   2.021  0.00  0.00     0.090 C 
ATOM     22  C4  <0> d           0.515   2.583   1.400  0.00  0.00     0.033 C 
BRANCH  21  23
ATOM     23  C2  <0> d          -0.009   4.385   3.050  0.00  0.00     0.021 C 
ATOM     24  C1  <0> d          -1.107   5.308   3.580  0.00  0.00     0.007 C 
ENDBRANCH  21  23
ENDBRANCH  17  21
ENDBRANCH   1  13
BRANCH   2  25
ATOM     25  N4  <0> d          -7.089   3.350   3.374  0.00  0.00    -0.365 N 
ATOM     26  C21 <0> d          -8.497   3.504   3.763  0.00  0.00     0.125 C 
ATOM     27  C20 <0> d          -8.655   4.796   4.561  0.00  0.00     0.034 C 
ATOM     28  C19 <0> d          -7.675   4.790   5.737  0.00  0.00     0.081 C 
ATOM     29  C18 <0> d          -6.241   4.719   5.207  0.00  0.00     0.034 C 
ATOM     30  C17 <0> d          -6.056   3.420   4.417  0.00  0.00     0.125 C 
BRANCH  28  31
ATOM     31  C22 <0> d          -7.850   6.051   6.543  0.00  0.00     0.219 C 
ATOM     32  O3  <0> d          -6.920   6.817   6.681  0.00  0.00    -0.273 OA
ATOM     33  N5  <0> d          -9.041   6.327   7.111  0.00  0.00    -0.370 N 
ATOM     34  H26 <0> d          -9.784   5.714   7.001  0.00  0.00     0.159 HD
ATOM     35  H27 <0> d          -9.154   7.139   7.630  0.00  0.00     0.159 HD
ENDBRANCH  28  31
ENDBRANCH   2  25
TORSDOF 5
