REMARK  5 active torsions:
REMARK  status: ('A' for Active; 'I' for Inactive)
REMARK    1  A    between atoms: C6_6  and  N1_8 
REMARK    2  A    between atoms: C10_12  and  N2_15 
REMARK    3  A    between atoms: N2_15  and  C12_16 
REMARK    4  A    between atoms: C12_16  and  C13_17 
REMARK    5  A    between atoms: C13_17  and  C14_18 
ROOT
ATOM      1  N2  <0> d          -1.217  -5.282   4.264  0.00  0.00    -0.061 N 
ATOM      2  H11 <0> d          -1.249  -5.409   5.264  0.00  0.00     0.278 HD
ATOM      3  H23 <0> d          -2.015  -4.741   3.968  0.00  0.00     0.278 HD
ENDROOT
BRANCH   1   4
ATOM      4  C10 <0> d           0.017  -4.573   3.900  0.00  0.00     0.286 A 
ATOM      5  C9  <0> d           0.130  -3.246   4.677  0.00  0.00     0.146 A 
ATOM      6  C8  <0> d           0.141  -2.196   3.587  0.00  0.00     0.233 A 
ATOM      7  N1  <0> d           0.050  -2.798   2.395  0.00  0.00    -0.251 N 
ATOM      8  O1  <0> d           0.218  -1.000   3.766  0.00  0.00    -0.273 OA
ATOM      9  C11 <0> d          -0.030  -4.133   2.453  0.00  0.00     0.262 A 
ATOM     10  O2  <0> d          -0.124  -4.873   1.497  0.00  0.00    -0.270 OA
BRANCH   7  11
ATOM     11  C6  <0> d           0.035  -2.089   1.186  0.00  0.00     0.045 A 
ATOM     12  C5  <0> d           1.169  -1.406   0.766  0.00  0.00     0.030 A 
ATOM     13  C4  <0> d           1.151  -0.708  -0.425  0.00  0.00     0.003 A 
ATOM     14  C3  <0> d           0.006  -0.689  -1.200  0.00  0.00     0.007 A 
ATOM     15  C2  <0> d          -1.124  -1.368  -0.785  0.00  0.00    -0.060 A 
ATOM     16  C1  <0> d          -2.370  -1.345  -1.632  0.00  0.00     0.048 C 
ATOM     17  C7  <0> d          -1.115  -2.063   0.409  0.00  0.00     0.037 A 
ENDBRANCH   7  11
ENDBRANCH   1   4
BRANCH   1  18
ATOM     18  C12 <0> d          -1.242  -6.593   3.602  0.00  0.00     0.237 C 
BRANCH  18  19
ATOM     19  C13 <0> d          -2.527  -7.332   3.982  0.00  0.00     0.064 C 
BRANCH  19  20
ATOM     20  C14 <0> d          -2.553  -8.677   3.303  0.00  0.00    -0.048 A 
ATOM     21  C21 <0> d          -3.035  -8.979   1.902  0.00  0.00     0.155 A 
ATOM     22  N3  <0> d          -2.852 -10.423   1.716  0.00  0.00    -0.385 N 
ATOM     23  C20 <0> d          -2.351 -10.926   2.818  0.00  0.00     0.038 A 
ATOM     24  H22 <0> d          -3.069 -10.923   0.913  0.00  0.00     0.160 HD
ATOM     25  C15 <0> d          -2.154  -9.859   3.825  0.00  0.00    -0.006 A 
ATOM     26  C19 <0> d          -1.989 -12.255   3.174  0.00  0.00     0.030 A 
ATOM     27  C16 <0> d          -1.597 -10.232   5.131  0.00  0.00     0.014 A 
ATOM     28  C17 <0> d          -1.287 -11.527   5.367  0.00  0.00     0.001 A 
ATOM     29  C18 <0> d          -1.482 -12.520   4.396  0.00  0.00     0.002 A 
ENDBRANCH  19  20
ENDBRANCH  18  19
ENDBRANCH   1  18
TORSDOF 5
