REMARK  5 active torsions:
REMARK  status: ('A' for Active; 'I' for Inactive)
REMARK    1  A    between atoms: C3_3  and  O1_22 
REMARK    2  A    between atoms: C4_4  and  C7_8 
REMARK    3  A    between atoms: C7_8  and  N1_9 
REMARK    4  A    between atoms: N1_9  and  N2_10 
REMARK    5  A    between atoms: C8_11  and  C10_16 
ROOT
ATOM      1  N2  <0> d           6.029  -0.704   0.043  0.00  0.00    -0.211 N 
ATOM      2  C8  <0> d           7.379  -0.122   0.157  0.00  0.00     0.288 A 
ATOM      3  N3  <0> d           8.264  -1.295   0.214  0.00  0.00    -0.182 NA
ATOM      4  N4  <0> d           7.563  -2.308   0.147  0.00  0.00    -0.254 N 
ATOM      5  C9  <0> d           6.234  -2.039   0.050  0.00  0.00     0.213 A 
ATOM      6  S1  <0> d           4.999  -3.221  -0.052  0.00  0.00    -0.037 SA
ATOM      7  H11 <0> d           7.925  -3.208   0.166  0.00  0.00     0.191 HD
ENDROOT
BRANCH   1   8
ATOM      8  N1  <0> d           4.807  -0.024  -0.046  0.00  0.00    -0.179 NA
BRANCH   8   9
ATOM      9  C7  <0> d           3.691  -0.689  -0.022  0.00  0.00     0.153 C 
BRANCH   9  10
ATOM     10  C4  <0> d           2.405   0.031  -0.003  0.00  0.00     0.017 A 
ATOM     11  C3  <0> d           2.382   1.433  -0.011  0.00  0.00     0.077 A 
ATOM     12  C2  <0> d           1.169   2.100   0.006  0.00  0.00     0.039 A 
ATOM     13  C1  <0> d          -0.015   1.386   0.031  0.00  0.00     0.022 A 
ATOM     14  C6  <0> d           0.003   0.001   0.040  0.00  0.00     0.011 A 
ATOM     15  C5  <0> d           1.203  -0.679   0.023  0.00  0.00     0.034 A 
ATOM     16 Br1  <0> d          -1.625  -0.961   0.075  0.00  0.00    -0.051 Br
BRANCH  11  17
ATOM     17  O1  <0> d           3.545   2.134  -0.037  0.00  0.00    -0.360 OA
ATOM     18  H10 <0> d           3.898   2.343   0.839  0.00  0.00     0.217 HD
ENDBRANCH  11  17
ENDBRANCH   9  10
ENDBRANCH   8   9
ENDBRANCH   1   8
BRANCH   2  19
ATOM     19  C10 <0> d           7.694   0.724  -1.050  0.00  0.00    -0.008 A 
ATOM     20  C14 <0> d           8.999   0.863  -1.498  0.00  0.00     0.028 A 
ATOM     21  C13 <0> d           9.249   1.642  -2.611  0.00  0.00     0.088 A 
ATOM     22  N5  <0> d           8.265   2.258  -3.239  0.00  0.00    -0.375 N 
ATOM     23  C12 <0> d           7.014   2.153  -2.837  0.00  0.00     0.088 A 
ATOM     24  H12 <0> d           8.468   2.802  -4.016  0.00  0.00     0.164 HD
ATOM     25  C11 <0> d           6.687   1.386  -1.735  0.00  0.00     0.028 A 
ENDBRANCH   2  19
TORSDOF 5
