REMARK  5 active torsions:
REMARK  status: ('A' for Active; 'I' for Inactive)
REMARK    1  A    between atoms: C3_3  and  C7_11 
REMARK    2  A    between atoms: C6_6  and  N1_7 
REMARK    3  A    between atoms: C7_11  and  N2_12 
REMARK    4  A    between atoms: C10_16  and  C11_17 
REMARK    5  A    between atoms: C11_17  and  N4_18 
ROOT
ATOM      1  C7  <0> d           3.709   2.226  -0.039  0.00  0.00     0.169 C 
ENDROOT
BRANCH   1   2
ATOM      2  C3  <0> d           2.531   1.288  -0.089  0.00  0.00    -0.022 A 
ATOM      3  C2  <0> d           1.244   1.792  -0.055  0.00  0.00     0.012 A 
ATOM      4  C1  <0> d           0.163   0.931  -0.101  0.00  0.00     0.037 A 
ATOM      5  C6  <0> d           0.368  -0.434  -0.181  0.00  0.00     0.104 A 
ATOM      6  C5  <0> d           1.655  -0.939  -0.216  0.00  0.00     0.055 A 
ATOM      7  C4  <0> d           2.737  -0.078  -0.169  0.00  0.00     0.021 A 
ATOM      8 Br1  <0> d           4.497  -0.768  -0.217  0.00  0.00    -0.050 Br
BRANCH   5   9
ATOM      9  N1  <0> d          -0.789  -1.354  -0.231  0.00  0.00    -0.116 N 
ATOM     10  O1  <0> d          -1.914  -0.913  -0.201  0.00  0.00    -0.532 OA
ATOM     11  O2  <0> d          -0.610  -2.548  -0.301  0.00  0.00    -0.532 OA
ENDBRANCH   5   9
ENDBRANCH   1   2
BRANCH   1  12
ATOM     12  N2  <0> d           4.183   2.342   1.343  0.00  0.00    -0.338 N 
ATOM     13  C10 <0> d           3.683   3.159   2.295  0.00  0.00     0.131 A 
ATOM     14  N3  <0> d           4.360   2.981   3.396  0.00  0.00    -0.244 NA
ATOM     15  C9  <0> d           5.312   2.059   3.186  0.00  0.00     0.136 A 
ATOM     16  C8  <0> d           5.218   1.647   1.907  0.00  0.00     0.112 A 
BRANCH  13  17
ATOM     17  C11 <0> d           2.532   4.115   2.116  0.00  0.00     0.307 C 
BRANCH  17  18
ATOM     18  N4  <0> d           1.293   3.483   2.590  0.00  0.00    -0.073 N 
ATOM     19  H10 <0> d           1.119   2.643   2.057  0.00  0.00     0.274 HD
ATOM     20  H11 <0> d           1.387   3.248   3.566  0.00  0.00     0.274 HD
ATOM     21  H12 <0> d           0.522   4.123   2.470  0.00  0.00     0.274 HD
ENDBRANCH  17  18
ENDBRANCH  13  17
ENDBRANCH   1  12
TORSDOF 5
