REMARK  4 active torsions:
REMARK  status: ('A' for Active; 'I' for Inactive)
REMARK    1  A    between atoms: C4_4  and  C7_7 
REMARK    2  A    between atoms: C8_8  and  C19_23 
REMARK    3  A    between atoms: N1_9  and  C10_12 
REMARK    4  A    between atoms: C10_12  and  C11_13 
ROOT
ATOM      1  C7  <0> d           3.656  -0.612   0.229  0.00  0.00     0.286 C 
ATOM      2  C8  <0> d           4.085  -1.240   1.573  0.00  0.00     0.234 C 
ATOM      3  N1  <0> d           4.713  -2.533   1.227  0.00  0.00    -0.035 N 
ATOM      4  C9  <0> d           4.677  -2.649  -0.247  0.00  0.00     0.504 C 
ATOM      5  N2  <0> d           3.552  -1.781  -0.686  0.00  0.00     0.120 N 
ATOM      6  H12 <0> d           2.667  -2.252  -0.571  0.00  0.00     0.319 HD
ATOM      7  H31 <0> d           4.192  -3.291   1.644  0.00  0.00     0.282 HD
ENDROOT
BRANCH   3   8
ATOM      8  C10 <0> d           6.104  -2.557   1.698  0.00  0.00     0.271 C 
BRANCH   8   9
ATOM      9  C11 <0> d           6.684  -3.959   1.505  0.00  0.00     0.188 A 
ATOM     10  N4  <0> d           6.639  -4.355   0.083  0.00  0.00    -0.181 NA
ATOM     11  N3  <0> d           7.809  -4.529  -0.294  0.00  0.00    -0.159 NA
ATOM     12  C13 <0> d           8.744  -4.318   0.661  0.00  0.00     0.061 A 
ATOM     13  C12 <0> d           8.160  -3.974   1.801  0.00  0.00    -0.026 A 
ATOM     14  C14 <0> d          10.251  -4.444   0.485  0.00  0.00     0.061 C 
ATOM     15  C18 <0> d           8.870  -3.688   3.106  0.00  0.00     0.038 C 
ATOM     16  C17 <0> d           9.696  -2.407   2.897  0.00  0.00     0.004 C 
ATOM     17  C16 <0> d          10.976  -2.713   2.156  0.00  0.00     0.001 C 
ATOM     18  C15 <0> d          10.847  -3.045   0.691  0.00  0.00     0.006 C 
ENDBRANCH   8   9
ENDBRANCH   3   8
BRANCH   2  19
ATOM     19  C19 <0> d           5.094  -0.334   2.281  0.00  0.00     0.045 C 
ATOM     20  C22 <0> d           6.245   0.040   1.328  0.00  0.00     0.174 C 
ATOM     21  O1  <0> d           6.195   1.468   1.142  0.00  0.00    -0.391 OA
ATOM     22  C21 <0> d           5.579   2.025   2.323  0.00  0.00     0.168 C 
ATOM     23  C20 <0> d           4.442   1.022   2.645  0.00  0.00     0.035 C 
ENDBRANCH   2  19
BRANCH   1  24
ATOM     24  C4  <0> d           2.322   0.075   0.367  0.00  0.00    -0.023 A 
ATOM     25  C3  <0> d           2.235   1.449   0.234  0.00  0.00     0.009 A 
ATOM     26  C2  <0> d           1.011   2.079   0.359  0.00  0.00     0.001 A 
ATOM     27  C1  <0> d          -0.126   1.336   0.617  0.00  0.00     0.000 A 
ATOM     28  C6  <0> d          -0.039  -0.037   0.749  0.00  0.00     0.001 A 
ATOM     29  C5  <0> d           1.185  -0.667   0.625  0.00  0.00     0.009 A 
ENDBRANCH   1  24
TORSDOF 4
