REMARK  3 active torsions:
REMARK  status: ('A' for Active; 'I' for Inactive)
REMARK    1  A    between atoms: C3_3  and  C7_8 
REMARK    2  A    between atoms: C10_11  and  N3_21 
REMARK    3  A    between atoms: C14_16  and  N2_20 
ROOT
ATOM      1  C7  <0> d           1.229  -2.186  -0.021  0.00  0.00     0.102 C 
ATOM      2  C8  <0> d           1.934  -2.668  -1.261  0.00  0.00    -0.008 A 
ATOM      3  C9  <0> d           1.275  -2.632  -2.476  0.00  0.00     0.040 A 
ATOM      4  C10 <0> d           1.911  -3.073  -3.627  0.00  0.00     0.026 A 
ATOM      5  C11 <0> d           3.213  -3.553  -3.558  0.00  0.00     0.032 A 
ATOM      6  C12 <0> d           3.870  -3.589  -2.345  0.00  0.00     0.040 A 
ATOM      7  C13 <0> d           3.233  -3.146  -1.192  0.00  0.00     0.085 A 
ATOM      8  O1  <0> d           3.896  -3.191  -0.009  0.00  0.00    -0.293 OA
ATOM      9  C14 <0> d           3.210  -3.147   1.145  0.00  0.00     0.159 C 
ATOM     10  C15 <0> d           1.940  -2.680   1.207  0.00  0.00     0.086 C 
ATOM     11  C16 <0> d           1.261  -2.658   2.468  0.00  0.00     0.100 C 
ATOM     12  N1  <0> d           0.723  -2.640   3.468  0.00  0.00    -0.191 NA
ENDROOT
BRANCH   1  13
ATOM     13  C3  <0> d           1.209  -0.679  -0.013  0.00  0.00    -0.043 A 
ATOM     14  C2  <0> d           2.396   0.029  -0.021  0.00  0.00     0.008 A 
ATOM     15  C1  <0> d           2.378   1.411  -0.013  0.00  0.00     0.002 A 
ATOM     16  C6  <0> d           1.172   2.086   0.002  0.00  0.00     0.018 A 
ATOM     17  C5  <0> d          -0.017   1.379   0.010  0.00  0.00     0.007 A 
ATOM     18  C4  <0> d           0.002  -0.004   0.002  0.00  0.00     0.026 A 
ATOM     19  I1  <0> d          -1.845   2.401   0.024  0.00  0.00    -0.045 I 
ENDBRANCH   1  13
BRANCH   9  20
ATOM     20  N2  <0> d           3.814  -3.587   2.297  0.00  0.00    -0.379 N 
ATOM     21  H9  <0> d           4.723  -3.924   2.269  0.00  0.00     0.158 HD
ATOM     22  H10 <0> d           3.332  -3.562   3.138  0.00  0.00     0.158 HD
ENDBRANCH   9  20
BRANCH   4  23
ATOM     23  N3  <0> d           1.243  -3.035  -4.856  0.00  0.00    -0.399 N 
ATOM     24  H11 <0> d           0.334  -2.700  -4.903  0.00  0.00     0.156 HD
ATOM     25  H12 <0> d           1.689  -3.344  -5.660  0.00  0.00     0.156 HD
ENDBRANCH   4  23
TORSDOF 3
