REMARK  5 active torsions:
REMARK  status: ('A' for Active; 'I' for Inactive)
REMARK    1  A    between atoms: C3_3  and  C12_17 
REMARK    2  A    between atoms: N3_6  and  C4_7 
REMARK       I    between atoms: C12_17  and  N4_19 
REMARK    3  A    between atoms: N4_19  and  C13_20 
REMARK    4  A    between atoms: C13_20  and  C14_21 
REMARK    5  A    between atoms: C14_21  and  S1_22 
ROOT
ATOM      1  C1  <0> d          -0.018   1.503   0.010  0.00  0.00     0.073 C 
ATOM      2  C2  <0> d           0.002  -0.004   0.002  0.00  0.00     0.070 A 
ATOM      3  C3  <0> d           0.009  -0.813  -1.099  0.00  0.00     0.172 A 
ATOM      4  N1  <0> d           0.029  -2.092  -0.688  0.00  0.00    -0.124 NA
ATOM      5  N2  <0> d           0.035  -2.131   0.599  0.00  0.00    -0.060 NA
ATOM      6  N3  <0> d           0.023  -0.815   1.082  0.00  0.00    -0.218 N 
ENDROOT
BRANCH   3   7
ATOM      7  C12 <0> d          -0.005  -0.358  -2.503  0.00  0.00     0.274 C 
ATOM      8  O3  <0> d          -0.023   0.831  -2.757  0.00  0.00    -0.266 OA
ATOM      9  N4  <0> d           0.004  -1.261  -3.503  0.00  0.00    -0.355 N 
ATOM     10  H11 <0> d           0.019  -2.210  -3.301  0.00  0.00     0.162 HD
BRANCH   9  11
ATOM     11  C13 <0> d          -0.009  -0.810  -4.897  0.00  0.00     0.138 C 
BRANCH  11  12
ATOM     12  C14 <0> d           0.004  -2.025  -5.827  0.00  0.00     0.159 C 
BRANCH  12  13
ATOM     13  S1  <0> d          -0.012  -1.466  -7.552  0.00  0.00     0.142 S 
ATOM     14  O4  <0> d          -1.248  -0.811  -7.801  0.00  0.00    -0.228 OA
ATOM     15  O5  <0> d           1.201  -0.775  -7.812  0.00  0.00    -0.228 OA
ATOM     16  C15 <0> d           0.006  -3.026  -8.479  0.00  0.00     0.161 C 
ENDBRANCH  12  13
ENDBRANCH  11  12
ENDBRANCH   9  11
ENDBRANCH   3   7
BRANCH   6  17
ATOM     17  C4  <0> d           0.030  -0.417   2.427  0.00  0.00     0.063 A 
ATOM     18  C9  <0> d          -0.640  -1.174   3.378  0.00  0.00     0.071 A 
ATOM     19  C8  <0> d          -0.629  -0.783   4.708  0.00  0.00     0.104 A 
ATOM     20  C7  <0> d           0.047   0.371   5.086  0.00  0.00     0.102 A 
ATOM     21  O1  <0> d          -1.292  -1.535   5.629  0.00  0.00    -0.346 OA
ATOM     22  C6  <0> d           0.710   1.128   4.131  0.00  0.00     0.042 A 
ATOM     23  O2  <0> d           0.069   0.771   6.387  0.00  0.00    -0.346 OA
ATOM     24  C5  <0> d           0.702   0.737   2.807  0.00  0.00     0.034 A 
ATOM     25  C11 <0> d          -0.916   0.197   7.253  0.00  0.00     0.202 C 
ATOM     26  C10 <0> d          -0.954  -1.316   7.003  0.00  0.00     0.202 C 
ENDBRANCH   6  17
TORSDOF 5
