REMARK  6 active torsions:
REMARK  status: ('A' for Active; 'I' for Inactive)
REMARK    1  A    between atoms: C5_5  and  C6_7 
REMARK    2  A    between atoms: C7_8  and  C12_17 
REMARK    3  A    between atoms: N1_12  and  C10_13 
REMARK    4  A    between atoms: C10_13  and  C11_14 
REMARK    5  A    between atoms: C11_14  and  O3_15 
REMARK    6  A    between atoms: C12_17  and  C13_19 
ROOT
ATOM      1  C6  <0> d           1.645  -3.199  -0.015  0.00  0.00     0.185 A 
ATOM      2  C7  <0> d           2.326  -3.385   1.321  0.00  0.00     0.064 A 
ATOM      3  C8  <0> d           3.656  -3.273   1.100  0.00  0.00     0.187 A 
ATOM      4  C9  <0> d           3.891  -3.018  -0.337  0.00  0.00     0.281 A 
ATOM      5  O2  <0> d           4.982  -2.871  -0.850  0.00  0.00    -0.265 OA
ATOM      6  N1  <0> d           2.716  -2.975  -0.994  0.00  0.00    -0.329 N 
ATOM      7  O4  <0> d           4.619  -3.377   2.045  0.00  0.00    -0.185 OA
ENDROOT
BRANCH   2   8
ATOM      8  C12 <0> d           1.671  -3.638   2.608  0.00  0.00     0.194 C 
ATOM      9  O5  <0> d           1.726  -2.804   3.493  0.00  0.00    -0.287 OA
BRANCH   8  10
ATOM     10  C13 <0> d           0.946  -4.904   2.831  0.00  0.00     0.015 A 
ATOM     11  C18 <0> d           0.215  -5.100   4.008  0.00  0.00     0.025 A 
ATOM     12  C17 <0> d          -0.461  -6.279   4.204  0.00  0.00    -0.021 A 
ATOM     13  C16 <0> d          -0.416  -7.296   3.254  0.00  0.00     0.075 A 
ATOM     14  C19 <0> d          -1.339  -6.771   5.338  0.00  0.00     0.073 C 
ATOM     15  C15 <0> d           0.315  -7.099   2.080  0.00  0.00     0.038 A 
ATOM     16  O6  <0> d          -1.133  -8.378   3.659  0.00  0.00    -0.345 OA
ATOM     17  C14 <0> d           0.988  -5.919   1.870  0.00  0.00     0.018 A 
ATOM     18  C20 <0> d          -2.054  -7.979   4.689  0.00  0.00     0.129 C 
ATOM     19  C21 <0> d          -2.253  -9.102   5.708  0.00  0.00     0.040 C 
ENDBRANCH   8  10
ENDBRANCH   2   8
BRANCH   1  20
ATOM     20  C5  <0> d           0.729  -2.003   0.033  0.00  0.00     0.081 A 
ATOM     21  C4  <0> d          -0.616  -2.042   0.019  0.00  0.00     0.038 A 
ATOM     22  C3  <0> d          -1.065  -0.703   0.078  0.00  0.00     0.035 A 
ATOM     23  C2  <0> d           0.032   0.074   0.124  0.00  0.00     0.049 A 
ATOM     24  C1  <0> d           0.043   1.579   0.195  0.00  0.00     0.076 C 
ATOM     25  O1  <0> d           1.115  -0.719   0.090  0.00  0.00    -0.317 OA
ENDBRANCH   1  20
BRANCH   6  26
ATOM     26  C10 <0> d           2.537  -2.744  -2.429  0.00  0.00     0.153 C 
BRANCH  26  27
ATOM     27  C11 <0> d           2.395  -1.244  -2.692  0.00  0.00     0.184 C 
BRANCH  27  28
ATOM     28  O3  <0> d           3.616  -0.583  -2.352  0.00  0.00    -0.399 OA
ATOM     29  H12 <0> d           3.598   0.373  -2.493  0.00  0.00     0.209 HD
ENDBRANCH  27  28
ENDBRANCH  26  27
ENDBRANCH   6  26
TORSDOF 6
