REMARK  5 active torsions:
REMARK  status: ('A' for Active; 'I' for Inactive)
REMARK    1  A    between atoms: C5_5  and  S1_9 
REMARK    2  A    between atoms: S1_9  and  C9_10 
REMARK    3  A    between atoms: C9_10  and  C10_11 
REMARK    4  A    between atoms: C9_10  and  C14_17 
REMARK    5  A    between atoms: C14_17  and  N1_19 
ROOT
ATOM      1  C9  <0> d           0.110  -5.096  -1.756  0.00  0.00     0.122 C 
ENDROOT
BRANCH   1   2
ATOM      2  S1  <0> d           0.179  -4.900   0.046  0.00  0.00    -0.117 SA
BRANCH   2   3
ATOM      3  C5  <0> d          -1.498  -5.073   0.557  0.00  0.00     0.007 A 
ATOM      4  C4  <0> d          -2.509  -5.181  -0.391  0.00  0.00     0.019 A 
ATOM      5  C3  <0> d          -3.821  -5.317   0.014  0.00  0.00     0.008 A 
ATOM      6  C2  <0> d          -4.132  -5.346   1.361  0.00  0.00    -0.061 A 
ATOM      7  C1  <0> d          -5.566  -5.495   1.799  0.00  0.00     0.048 C 
ATOM      8  C7  <0> d          -3.130  -5.234   2.308  0.00  0.00     0.014 A 
ATOM      9  C6  <0> d          -1.814  -5.103   1.910  0.00  0.00    -0.045 A 
ATOM     10  C8  <0> d          -0.722  -4.987   2.943  0.00  0.00     0.049 C 
ENDBRANCH   2   3
ENDBRANCH   1   2
BRANCH   1  11
ATOM     11  C10 <0> d          -0.225  -6.526  -2.094  0.00  0.00    -0.000 A 
ATOM     12  S2  <0> d           0.670  -8.016  -1.685  0.00  0.00    -0.104 SA
ATOM     13  C13 <0> d          -0.428  -9.190  -2.462  0.00  0.00     0.069 A 
ATOM     14  C12 <0> d          -1.384  -8.380  -2.980  0.00  0.00     0.018 A 
ATOM     15  C11 <0> d          -1.280  -7.014  -2.791  0.00  0.00     0.035 A 
ATOM     16 Br1  <0> d          -2.839  -9.107  -3.945  0.00  0.00    -0.051 Br
ENDBRANCH   1  11
BRANCH   1  17
ATOM     17  C14 <0> d           1.468  -4.734  -2.361  0.00  0.00     0.198 C 
ATOM     18  C15 <0> d           1.767  -3.257  -2.096  0.00  0.00     0.041 C 
BRANCH  17  19
ATOM     19  N1  <0> d           2.514  -5.563  -1.747  0.00  0.00    -0.074 N 
ATOM     20  H17 <0> d           2.317  -6.537  -1.922  0.00  0.00     0.274 HD
ATOM     21  H18 <0> d           3.410  -5.324  -2.146  0.00  0.00     0.274 HD
ATOM     22  H19 <0> d           2.534  -5.397  -0.752  0.00  0.00     0.274 HD
ENDBRANCH  17  19
ENDBRANCH   1  17
TORSDOF 5
