REMARK  3 active torsions:
REMARK  status: ('A' for Active; 'I' for Inactive)
REMARK    1  A    between atoms: C4_4  and  N2_9 
REMARK    2  A    between atoms: N2_9  and  C8_10 
REMARK    3  A    between atoms: N3_12  and  C9_13 
ROOT
ATOM      1  C1  <0> d          -1.145   3.309  -1.638  0.00  0.00     0.002 A 
ATOM      2  C2  <0> d          -0.273   3.965  -0.784  0.00  0.00     0.002 A 
ATOM      3  C3  <0> d           0.902   3.361  -0.386  0.00  0.00     0.031 A 
ATOM      4  C4  <0> d           1.218   2.087  -0.839  0.00  0.00     0.055 A 
ATOM      5  C5  <0> d           0.337   1.419  -1.704  0.00  0.00     0.071 A 
ATOM      6  C6  <0> d          -0.846   2.047  -2.103  0.00  0.00     0.025 A 
ATOM      7  C7  <0> d           0.651   0.106  -2.179  0.00  0.00     0.102 C 
ATOM      8  N1  <0> d           0.900  -0.937  -2.555  0.00  0.00    -0.191 NA
ENDROOT
BRANCH   4   9
ATOM      9  N2  <0> d           2.404   1.475  -0.439  0.00  0.00    -0.332 N 
ATOM     10  H5  <0> d           2.389   0.569  -0.094  0.00  0.00     0.168 HD
BRANCH   9  11
ATOM     11  C8  <0> d           3.571   2.143  -0.530  0.00  0.00     0.176 C 
ATOM     12  S1  <0> d           3.582   3.784  -1.016  0.00  0.00    -0.041 SA
ATOM     13  N3  <0> d           4.729   1.518  -0.239  0.00  0.00    -0.332 N 
ATOM     14  H6  <0> d           4.729   0.572  -0.024  0.00  0.00     0.168 HD
BRANCH  13  15
ATOM     15  C9  <0> d           5.931   2.234  -0.247  0.00  0.00     0.051 A 
ATOM     16  C13 <0> d           6.853   2.074   0.779  0.00  0.00     0.145 A 
ATOM     17  N4  <0> d           7.986   2.747   0.776  0.00  0.00    -0.271 NA
ATOM     18  C12 <0> d           8.290   3.590  -0.191  0.00  0.00     0.116 A 
ATOM     19  C11 <0> d           7.424   3.802  -1.248  0.00  0.00     0.021 A 
ATOM     20  C10 <0> d           6.224   3.112  -1.288  0.00  0.00     0.032 A 
ENDBRANCH  13  15
ENDBRANCH   9  11
ENDBRANCH   4   9
TORSDOF 3
