REMARK  2 active torsions:
REMARK  status: ('A' for Active; 'I' for Inactive)
REMARK    1  A    between atoms: N1_10  and  N2_11 
REMARK       I    between atoms: N2_11  and  C9_12 
REMARK    2  A    between atoms: C9_12  and  C10_14 
ROOT
ATOM      1  C1  <0> d           0.781   1.502   0.079  0.00  0.00     0.049 C 
ATOM      2  C2  <0> d           0.585   0.009   0.048  0.00  0.00    -0.044 A 
ATOM      3  C3  <0> d           0.545  -0.659  -1.164  0.00  0.00     0.010 A 
ATOM      4  C4  <0> d           0.366  -2.027  -1.209  0.00  0.00     0.031 A 
ATOM      5  C5  <0> d           0.224  -2.751  -0.030  0.00  0.00     0.049 A 
ATOM      6  C6  <0> d           0.265  -2.073   1.195  0.00  0.00     0.045 A 
ATOM      7  C7  <0> d           0.451  -0.695   1.230  0.00  0.00     0.032 A 
ATOM      8 Br1  <0> d           0.514   0.213   2.888  0.00  0.00    -0.050 Br
ATOM      9  C8  <0> d           0.088  -3.100   2.248  0.00  0.00     0.158 A 
ATOM     10  N1  <0> d           0.061  -2.916   3.546  0.00  0.00    -0.165 NA
ATOM     11  C15 <0> d          -0.051  -4.375   1.517  0.00  0.00     0.277 A 
ATOM     12  O3  <0> d          -0.216  -5.473   2.016  0.00  0.00    -0.266 OA
ATOM     13  N3  <0> d           0.035  -4.109   0.202  0.00  0.00    -0.321 N 
ATOM     14  H12 <0> d          -0.026  -4.779  -0.496  0.00  0.00     0.169 HD
ENDROOT
BRANCH  10  15
ATOM     15  N2  <0> d          -0.463  -1.729   4.074  0.00  0.00    -0.242 N 
ATOM     16  C9  <0> d          -0.374  -1.484   5.397  0.00  0.00     0.274 C 
ATOM     17  O1  <0> d           0.242  -2.246   6.117  0.00  0.00    -0.266 OA
ATOM     18  H6  <0> d          -0.889  -1.084   3.489  0.00  0.00     0.192 HD
BRANCH  16  19
ATOM     19  C10 <0> d          -1.022  -0.292   5.970  0.00  0.00     0.064 A 
ATOM     20  C13 <0> d          -1.102   0.050   7.289  0.00  0.00     0.064 A 
ATOM     21  O2  <0> d          -1.770   1.204   7.385  0.00  0.00    -0.326 OA
ATOM     22  C14 <0> d          -0.532  -0.737   8.440  0.00  0.00     0.077 C 
ATOM     23  C12 <0> d          -2.148   1.641   6.173  0.00  0.00     0.143 A 
ATOM     24  C11 <0> d          -1.726   0.774   5.241  0.00  0.00     0.044 A 
ENDBRANCH  16  19
ENDBRANCH  10  15
TORSDOF 2
