REMARK  4 active torsions:
REMARK  status: ('A' for Active; 'I' for Inactive)
REMARK    1  A    between atoms: C4_4  and  C9_14 
REMARK       I    between atoms: C9_14  and  N4_16 
REMARK    2  A    between atoms: N5_19  and  C14_22 
REMARK    3  A    between atoms: C14_22  and  C15_23 
REMARK    4  A    between atoms: C15_23  and  C16_24 
ROOT
ATOM      1  C9  <0> d           0.029  -2.828  -2.491  0.00  0.00     0.255 C 
ATOM      2  O2  <0> d           0.147  -4.037  -2.477  0.00  0.00    -0.267 OA
ATOM      3  N4  <0> d          -0.088  -2.175  -3.664  0.00  0.00    -0.345 N 
ATOM      4  C10 <0> d          -0.105  -0.706  -3.712  0.00  0.00     0.156 C 
ATOM      5  C11 <0> d           0.930  -0.240  -4.742  0.00  0.00     0.292 C 
ATOM      6  N5  <0> d           0.674  -0.907  -6.025  0.00  0.00     0.091 N 
ATOM      7  C12 <0> d           0.837  -2.362  -5.912  0.00  0.00     0.292 C 
ATOM      8  C13 <0> d          -0.197  -2.914  -4.931  0.00  0.00     0.156 C 
ENDROOT
BRANCH   1   9
ATOM      9  C4  <0> d           0.013  -2.070  -1.217  0.00  0.00     0.053 A 
ATOM     10  C3  <0> d          -0.940  -1.077  -0.981  0.00  0.00     0.045 A 
ATOM     11  C2  <0> d          -0.919  -0.394   0.223  0.00  0.00     0.034 A 
ATOM     12  C1  <0> d          -1.946   0.679   0.478  0.00  0.00     0.070 C 
ATOM     13  N3  <0> d          -0.019  -0.655   1.149  0.00  0.00    -0.234 NA
ATOM     14  C7  <0> d           0.906  -1.590   0.986  0.00  0.00     0.161 A 
ATOM     15  C5  <0> d           0.954  -2.329  -0.208  0.00  0.00     0.096 A 
ATOM     16  N2  <0> d           1.933  -2.044   1.791  0.00  0.00    -0.276 N 
ATOM     17  C6  <0> d           2.081  -3.268  -0.080  0.00  0.00     0.275 A 
ATOM     18  O1  <0> d           2.445  -4.078  -0.911  0.00  0.00    -0.266 OA
ATOM     19  N1  <0> d           2.634  -3.058   1.132  0.00  0.00    -0.262 N 
ATOM     20  H1  <0> d           3.398  -3.536   1.491  0.00  0.00     0.190 HD
ATOM     21  C8  <0> d           2.240  -1.539   3.131  0.00  0.00     0.179 C 
ENDBRANCH   1   9
BRANCH   6  22
ATOM     22  C14 <0> d           1.535  -0.361  -7.083  0.00  0.00     0.277 C 
BRANCH  22  23
ATOM     23  C15 <0> d           1.073  -0.894  -8.441  0.00  0.00     0.076 C 
BRANCH  23  24
ATOM     24  C16 <0> d           1.957  -0.334  -9.527  0.00  0.00    -0.016 A 
ATOM     25  S1  <0> d           1.762   1.167 -10.472  0.00  0.00    -0.106 SA
ATOM     26  C19 <0> d           3.225   1.019 -11.484  0.00  0.00     0.050 A 
ATOM     27  C18 <0> d           3.752  -0.150 -11.046  0.00  0.00     0.008 A 
ATOM     28  C17 <0> d           3.102  -0.844 -10.042  0.00  0.00     0.015 A 
ENDBRANCH  23  24
ENDBRANCH  22  23
ENDBRANCH   6  22
TORSDOF 4
