REMARK  7 active torsions:
REMARK  status: ('A' for Active; 'I' for Inactive)
REMARK    1  A    between atoms: C2_2  and  N1_3 
REMARK    2  A    between atoms: N1_3  and  C3_4 
REMARK       I    between atoms: N1_3  and  C5_6 
REMARK    3  A    between atoms: C5_6  and  C6_8 
REMARK    4  A    between atoms: C9_11  and  N2_14 
REMARK       I    between atoms: N2_14  and  C12_15 
REMARK    5  A    between atoms: C12_15  and  C13_17 
REMARK    6  A    between atoms: C13_17  and  N3_18 
REMARK    7  A    between atoms: N4_23  and  C17_26 
ROOT
ATOM      1  N2  <0> d           3.834   4.538   1.632  0.00  0.00    -0.326 N 
ATOM      2  C12 <0> d           4.626   3.463   1.451  0.00  0.00     0.240 C 
ATOM      3  O2  <0> d           5.188   2.958   2.400  0.00  0.00    -0.271 OA
ATOM      4  H15 <0> d           3.441   4.985   0.866  0.00  0.00     0.169 HD
ENDROOT
BRANCH   1   5
ATOM      5  C9  <0> d           3.580   5.009   2.920  0.00  0.00     0.034 A 
ATOM      6  C8  <0> d           3.421   6.373   3.141  0.00  0.00     0.030 A 
ATOM      7  C7  <0> d           3.170   6.841   4.411  0.00  0.00     0.019 A 
ATOM      8  C6  <0> d           3.076   5.944   5.479  0.00  0.00     0.032 A 
ATOM      9  C11 <0> d           3.236   4.575   5.253  0.00  0.00     0.019 A 
ATOM     10  C10 <0> d           3.481   4.113   3.979  0.00  0.00     0.030 A 
BRANCH   8  11
ATOM     11  C5  <0> d           2.808   6.443   6.842  0.00  0.00     0.253 C 
ATOM     12  N1  <0> d           3.376   7.589   7.264  0.00  0.00    -0.349 N 
ATOM     13  O1  <0> d           2.074   5.818   7.584  0.00  0.00    -0.267 OA
BRANCH  12  14
ATOM     14  C2  <0> d           3.058   8.119   8.593  0.00  0.00     0.121 C 
ATOM     15  C1  <0> d           4.044   7.553   9.617  0.00  0.00     0.026 C 
ENDBRANCH  12  14
BRANCH  12  16
ATOM     16  C3  <0> d           4.312   8.307   6.395  0.00  0.00     0.121 C 
ATOM     17  C4  <0> d           3.611   9.521   5.783  0.00  0.00     0.026 C 
ENDBRANCH  12  16
ENDBRANCH   8  11
ENDBRANCH   1   5
BRANCH   2  18
ATOM     18  C13 <0> d           4.814   2.888   0.071  0.00  0.00     0.240 C 
BRANCH  18  19
ATOM     19  N3  <0> d           5.712   1.733   0.141  0.00  0.00    -0.253 N 
ATOM     20  C16 <0> d           7.049   1.775   0.020  0.00  0.00     0.335 A 
ATOM     21  N4  <0> d           7.590   0.551   0.128  0.00  0.00    -0.257 N 
ATOM     22  O5  <0> d           7.688   2.792  -0.165  0.00  0.00    -0.246 OA
ATOM     23  C15 <0> d           6.601  -0.347   0.328  0.00  0.00     0.320 A 
ATOM     24  C14 <0> d           5.332   0.452   0.336  0.00  0.00     0.320 A 
ATOM     25  O4  <0> d           6.715  -1.546   0.470  0.00  0.00    -0.262 OA
ATOM     26  O3  <0> d           4.202   0.035   0.482  0.00  0.00    -0.262 OA
BRANCH  21  27
ATOM     27  C17 <0> d           9.019   0.240   0.044  0.00  0.00     0.090 C 
ATOM     28  C18 <0> d           9.477  -0.411   1.350  0.00  0.00     0.032 C 
ATOM     29  C19 <0> d           9.263  -0.724  -1.119  0.00  0.00     0.032 C 
ENDBRANCH  21  27
ENDBRANCH  18  19
ENDBRANCH   2  18
TORSDOF 7
