REMARK  3 active torsions:
REMARK  status: ('A' for Active; 'I' for Inactive)
REMARK    1  A    between atoms: C5_6  and  C6_7 
REMARK    2  A    between atoms: N1_8  and  C7_9 
REMARK    3  A    between atoms: C12_14  and  O2_15 
ROOT
ATOM      1  C6  <0> d           1.145   1.654   0.000  0.00  0.00     0.107 C 
ATOM      2  N1  <0> d           0.013   0.974  -0.260  0.00  0.00    -0.363 N 
ATOM      3  H7  <0> d           0.054   0.030  -0.477  0.00  0.00     0.165 HD
ENDROOT
BRANCH   1   4
ATOM      4  C5  <0> d           2.356   0.980   0.090  0.00  0.00     0.071 C 
ATOM      5  C4  <0> d           3.563   1.714   0.189  0.00  0.00     0.165 C 
ATOM      6  C3  <0> d           4.885   0.998   0.284  0.00  0.00     0.093 C 
ATOM      7  O1  <0> d           3.533   2.928   0.196  0.00  0.00    -0.292 OA
ATOM      8  C2  <0> d           4.683  -0.352   0.977  0.00  0.00    -0.034 C 
ATOM      9  C1  <0> d           6.018  -1.095   1.049  0.00  0.00     0.015 C 
ATOM     10  C14 <0> d           3.678  -1.184   0.176  0.00  0.00     0.093 C 
ATOM     11  C15 <0> d           4.147  -0.125   2.392  0.00  0.00     0.015 C 
ATOM     12  C13 <0> d           2.372  -0.437   0.087  0.00  0.00     0.165 C 
ATOM     13  O3  <0> d           1.329  -1.052   0.009  0.00  0.00    -0.292 OA
ENDBRANCH   1   4
BRANCH   2  14
ATOM     14  C7  <0> d          -1.222   1.631  -0.223  0.00  0.00     0.065 A 
ATOM     15  C12 <0> d          -2.394   0.930  -0.498  0.00  0.00     0.092 A 
ATOM     16  C11 <0> d          -3.614   1.585  -0.460  0.00  0.00     0.039 A 
ATOM     17  C10 <0> d          -3.666   2.931  -0.150  0.00  0.00     0.003 A 
ATOM     18  C9  <0> d          -2.503   3.628   0.123  0.00  0.00     0.002 A 
ATOM     19  C8  <0> d          -1.283   2.981   0.092  0.00  0.00     0.032 A 
BRANCH  15  20
ATOM     20  O2  <0> d          -2.341  -0.394  -0.802  0.00  0.00    -0.358 OA
ATOM     21  H12 <0> d          -2.407  -0.978  -0.034  0.00  0.00     0.217 HD
ENDBRANCH  15  20
ENDBRANCH   2  14
TORSDOF 3
