REMARK  7 active torsions:
REMARK  status: ('A' for Active; 'I' for Inactive)
REMARK    1  A    between atoms: C2_2  and  N1_3 
REMARK    2  A    between atoms: N2_6  and  C7_9 
REMARK    3  A    between atoms: C7_9  and  C9_11 
REMARK    4  A    between atoms: C9_11  and  N3_12 
REMARK       I    between atoms: N3_12  and  C10_13 
REMARK    5  A    between atoms: C10_13  and  C11_15 
REMARK    6  A    between atoms: C13_17  and  C14_20 
REMARK    7  A    between atoms: C14_20  and  O4_22 
ROOT
ATOM      1  N3  <0> d          -3.945  -4.571   2.407  0.00  0.00    -0.357 N 
ATOM      2  C10 <0> d          -3.751  -5.877   2.681  0.00  0.00     0.249 C 
ATOM      3  O1  <0> d          -4.264  -6.725   1.982  0.00  0.00    -0.271 OA
ATOM      4  H21 <0> d          -3.535  -3.893   2.966  0.00  0.00     0.162 HD
ENDROOT
BRANCH   1   5
ATOM      5  C9  <0> d          -4.774  -4.177   1.266  0.00  0.00     0.158 C 
BRANCH   5   6
ATOM      6  C7  <0> d          -4.831  -2.651   1.179  0.00  0.00     0.236 C 
ATOM      7  C8  <0> d          -5.593  -2.239  -0.082  0.00  0.00     0.044 C 
BRANCH   6   8
ATOM      8  N2  <0> d          -3.465  -2.113   1.124  0.00  0.00     0.097 N 
ATOM      9  C4  <0> d          -3.468  -0.651   1.279  0.00  0.00     0.300 C 
ATOM     10  C3  <0> d          -2.026  -0.138   1.275  0.00  0.00     0.265 C 
ATOM     11  N1  <0> d          -1.376  -0.512   0.012  0.00  0.00    -0.068 N 
ATOM     12  C6  <0> d          -1.359  -1.976  -0.116  0.00  0.00     0.265 C 
ATOM     13  H27 <0> d          -1.888  -0.113  -0.760  0.00  0.00     0.280 HD
ATOM     14  C5  <0> d          -2.795  -2.504  -0.124  0.00  0.00     0.300 C 
BRANCH  11  15
ATOM     15  C2  <0> d           0.002  -0.004   0.002  0.00  0.00     0.230 C 
ATOM     16  C1  <0> d          -0.019   1.526   0.010  0.00  0.00     0.034 C 
ENDBRANCH  11  15
ENDBRANCH   6   8
ENDBRANCH   5   6
ENDBRANCH   1   5
BRANCH   2  17
ATOM     17  C11 <0> d          -2.898  -6.282   3.855  0.00  0.00     0.252 C 
ATOM     18  O2  <0> d          -2.813  -7.718   3.960  0.00  0.00    -0.241 OA
ATOM     19  N4  <0> d          -2.804  -8.045   5.336  0.00  0.00    -0.131 NA
ATOM     20  C13 <0> d          -3.225  -7.081   6.084  0.00  0.00     0.139 C 
ATOM     21  C12 <0> d          -3.580  -5.907   5.192  0.00  0.00     0.112 C 
BRANCH  20  22
ATOM     22  C14 <0> d          -3.339  -7.115   7.554  0.00  0.00     0.309 C 
ATOM     23  O3  <0> d          -3.749  -6.142   8.154  0.00  0.00    -0.258 OA
BRANCH  22  24
ATOM     24  O4  <0> d          -2.988  -8.226   8.232  0.00  0.00    -0.322 OA
ATOM     25  C15 <0> d          -3.125  -8.188   9.654  0.00  0.00     0.213 C 
ENDBRANCH  22  24
ENDBRANCH  20  22
ENDBRANCH   2  17
TORSDOF 7
