REMARK  5 active torsions:
REMARK  status: ('A' for Active; 'I' for Inactive)
REMARK    1  A    between atoms: C12_13  and  O5_26 
REMARK    2  A    between atoms: C18_19  and  C19_20 
REMARK    3  A    between atoms: C18_19  and  O4_24 
REMARK    4  A    between atoms: C19_20  and  C20_22 
REMARK    5  A    between atoms: C20_22  and  O3_23 
ROOT
ATOM      1  C1  <0> d          -0.253   1.430  -0.107  0.00  0.00     0.020 C 
ATOM      2  C2  <0> d          -0.158  -0.107  -0.188  0.00  0.00    -0.014 C 
ATOM      3  C3  <0> d          -1.581  -0.584  -0.382  0.00  0.00     0.022 C 
ATOM      4  C4  <0> d          -2.351  -0.690   0.934  0.00  0.00     0.084 C 
ATOM      5  C5  <0> d          -1.560  -1.560   1.887  0.00  0.00     0.149 C 
ATOM      6  O1  <0> d          -2.087  -2.456   2.516  0.00  0.00    -0.293 OA
ATOM      7  C6  <0> d          -0.130  -1.271   2.018  0.00  0.00     0.053 C 
ATOM      8  C7  <0> d           0.498  -0.567   1.080  0.00  0.00    -0.068 C 
ATOM      9  C8  <0> d           1.943  -0.180   1.331  0.00  0.00     0.035 C 
ATOM     10  C9  <0> d           2.787  -0.453   0.084  0.00  0.00     0.010 C 
ATOM     11  C10 <0> d           2.134   0.158  -1.152  0.00  0.00    -0.002 C 
ATOM     12  C11 <0> d           0.745  -0.458  -1.369  0.00  0.00     0.031 C 
ATOM     13  C12 <0> d           0.972  -1.962  -1.521  0.00  0.00     0.124 C 
ATOM     14  C13 <0> d           1.709  -2.193  -2.843  0.00  0.00     0.045 C 
ATOM     15  C14 <0> d           3.018  -1.454  -2.945  0.00  0.00     0.001 C 
ATOM     16  C15 <0> d           3.009  -0.032  -2.387  0.00  0.00     0.002 C 
ATOM     17  C16 <0> d           4.483   0.225  -1.973  0.00  0.00     0.009 C 
ATOM     18  C17 <0> d           5.034  -1.153  -1.561  0.00  0.00     0.047 C 
ATOM     19  C18 <0> d           4.188  -2.204  -2.301  0.00  0.00     0.128 C 
ATOM     20  C21 <0> d           3.342  -1.345  -4.454  0.00  0.00     0.019 C 
ENDROOT
BRANCH  19  21
ATOM     21  C19 <0> d           5.023  -2.860  -3.377  0.00  0.00     0.184 C 
ATOM     22  O2  <0> d           5.961  -2.270  -3.857  0.00  0.00    -0.292 OA
BRANCH  21  23
ATOM     23  C20 <0> d           4.685  -4.250  -3.852  0.00  0.00     0.245 C 
BRANCH  23  24
ATOM     24  O3  <0> d           5.612  -4.646  -4.865  0.00  0.00    -0.393 OA
ATOM     25  H25 <0> d           5.454  -5.532  -5.218  0.00  0.00     0.209 HD
ENDBRANCH  23  24
ENDBRANCH  21  23
ENDBRANCH  19  21
BRANCH  19  26
ATOM     26  O4  <0> d           3.719  -3.201  -1.392  0.00  0.00    -0.381 OA
ATOM     27  H26 <0> d           4.425  -3.702  -0.960  0.00  0.00     0.211 HD
ENDBRANCH  19  26
BRANCH  13  28
ATOM     28  O5  <0> d          -0.242  -2.707  -1.565  0.00  0.00    -0.395 OA
ATOM     29  H30 <0> d          -0.115  -3.661  -1.661  0.00  0.00     0.210 HD
ENDBRANCH  13  28
TORSDOF 5
