REMARK  3 active torsions:
REMARK  status: ('A' for Active; 'I' for Inactive)
REMARK       I    between atoms: N1_2  and  C2_3 
REMARK    1  A    between atoms: C2_3  and  C3_5 
REMARK    2  A    between atoms: C3_5  and  N2_6 
REMARK       I    between atoms: N3_9  and  C8_12 
REMARK    3  A    between atoms: C8_12  and  C9_14 
ROOT
ATOM      1  N2  <0> d           2.163  -2.884  -1.202  0.00  0.00     0.100 N 
ATOM      2  C4  <0> d           3.450  -2.407  -1.724  0.00  0.00     0.293 C 
ATOM      3  C5  <0> d           3.523  -2.688  -3.228  0.00  0.00     0.156 C 
ATOM      4  N3  <0> d           3.254  -4.117  -3.450  0.00  0.00    -0.344 N 
ATOM      5  C6  <0> d           2.049  -4.701  -2.840  0.00  0.00     0.156 C 
ATOM      6  C7  <0> d           2.034  -4.340  -1.351  0.00  0.00     0.293 C 
ATOM      7  C8  <0> d           4.088  -4.872  -4.192  0.00  0.00     0.270 C 
ATOM      8  O2  <0> d           5.062  -4.365  -4.717  0.00  0.00    -0.266 OA
ENDROOT
BRANCH   7   9
ATOM      9  C9  <0> d           3.822  -6.304  -4.368  0.00  0.00     0.122 C 
ATOM     10  C12 <0> d           4.966  -7.244  -4.638  0.00  0.00     0.076 C 
ATOM     11  C11 <0> d           4.684  -8.596  -3.972  0.00  0.00     0.111 C 
ATOM     12  C10 <0> d           3.279  -9.027  -4.307  0.00  0.00     0.237 C 
ATOM     13  N5  <0> d           2.312  -8.100  -4.455  0.00  0.00    -0.247 N 
ATOM     14  O3  <0> d           3.019 -10.204  -4.443  0.00  0.00    -0.272 OA
ATOM     15  N4  <0> d           2.603  -6.742  -4.294  0.00  0.00    -0.171 NA
ATOM     16  H15 <0> d           1.408  -8.377  -4.674  0.00  0.00     0.192 HD
ENDBRANCH   7   9
BRANCH   1  17
ATOM     17  C3  <0> d           1.980  -2.481   0.199  0.00  0.00     0.374 C 
BRANCH  17  18
ATOM     18  C2  <0> d           1.873  -0.979   0.279  0.00  0.00     0.245 C 
ATOM     19  N1  <0> d           1.701  -0.379   1.473  0.00  0.00    -0.364 N 
ATOM     20  C1  <0> d           1.597   1.080   1.551  0.00  0.00     0.149 C 
ATOM     21  H4  <0> d           1.646  -0.913   2.281  0.00  0.00     0.161 HD
ATOM     22  O1  <0> d           1.942  -0.312  -0.731  0.00  0.00    -0.272 OA
ENDBRANCH  17  18
ENDBRANCH   1  17
TORSDOF 3
