REMARK  3 active torsions:
REMARK  status: ('A' for Active; 'I' for Inactive)
REMARK    1  A    between atoms: N2_6  and  C5_7 
REMARK    2  A    between atoms: C5_7  and  C6_8 
REMARK       I    between atoms: C6_8  and  N3_10 
REMARK    3  A    between atoms: N3_10  and  N4_11 
ROOT
ATOM      1  N4  <0> d           4.435   0.045  -0.034  0.00  0.00    -0.203 N 
ATOM      2  C7  <0> d           3.853  -1.182  -0.035  0.00  0.00     0.126 A 
ATOM      3  N5  <0> d           2.554  -1.315  -0.026  0.00  0.00    -0.226 NA
ATOM      4  C8  <0> d           1.758  -0.249  -0.014  0.00  0.00     0.116 A 
ATOM      5  C9  <0> d           2.267   1.057  -0.011  0.00  0.00     0.077 A 
ATOM      6  C10 <0> d           3.695   1.171  -0.022  0.00  0.00     0.281 A 
ATOM      7  O2  <0> d           4.231   2.266  -0.020  0.00  0.00    -0.265 OA
ATOM      8  C11 <0> d           1.272   2.139   0.001  0.00  0.00    -0.026 A 
ATOM      9  C12 <0> d          -0.022   1.774   0.012  0.00  0.00    -0.008 A 
ATOM     10  S1  <0> d           0.002  -0.004   0.002  0.00  0.00    -0.073 SA
ATOM     11  C13 <0> d          -0.947   2.961   0.032  0.00  0.00     0.047 C 
ATOM     12  C14 <0> d          -0.052   4.143   0.463  0.00  0.00     0.010 C 
ATOM     13  C15 <0> d           1.339   3.669   0.002  0.00  0.00     0.041 C 
ATOM     14  C16 <0> d           4.723  -2.412  -0.049  0.00  0.00     0.093 C 
ENDROOT
BRANCH   1  15
ATOM     15  N3  <0> d           5.832   0.143  -0.044  0.00  0.00    -0.258 N 
ATOM     16  C6  <0> d           6.493   0.485   1.080  0.00  0.00     0.256 C 
ATOM     17  O1  <0> d           5.877   0.709   2.100  0.00  0.00    -0.270 OA
ATOM     18  H7  <0> d           6.325  -0.036  -0.861  0.00  0.00     0.190 HD
BRANCH  16  19
ATOM     19  C5  <0> d           7.996   0.589   1.069  0.00  0.00     0.255 C 
BRANCH  19  20
ATOM     20  N2  <0> d           8.469   0.973   2.401  0.00  0.00    -0.264 N 
ATOM     21  C2  <0> d           8.655   2.234   2.845  0.00  0.00     0.046 A 
ATOM     22  C1  <0> d           8.414   3.497   2.060  0.00  0.00     0.071 C 
ATOM     23  C3  <0> d           9.095   2.160   4.123  0.00  0.00     0.054 A 
ATOM     24  C4  <0> d           9.188   0.808   4.469  0.00  0.00     0.160 A 
ATOM     25 Br1  <0> d           9.515   3.626   5.242  0.00  0.00    -0.047 Br
ATOM     26  N1  <0> d           8.813   0.095   3.437  0.00  0.00    -0.183 NA
ENDBRANCH  19  20
ENDBRANCH  16  19
ENDBRANCH   1  15
TORSDOF 3
