REMARK  2 active torsions:
REMARK  status: ('A' for Active; 'I' for Inactive)
REMARK    1  A    between atoms: C8_9  and  C10_13 
REMARK       I    between atoms: C10_13  and  N2_15 
REMARK    2  A    between atoms: N2_15  and  C11_16 
ROOT
ATOM      1  C1  <0> d           0.281   1.434   0.432  0.00  0.00     0.001 A 
ATOM      2  C2  <0> d           1.356   2.097  -0.143  0.00  0.00     0.002 A 
ATOM      3  C3  <0> d           2.418   1.394  -0.666  0.00  0.00     0.030 A 
ATOM      4  C4  <0> d           2.421   0.002  -0.621  0.00  0.00     0.046 A 
ATOM      5  C5  <0> d           1.331  -0.667  -0.038  0.00  0.00     0.042 A 
ATOM      6  C6  <0> d           0.262   0.058   0.488  0.00  0.00     0.018 A 
ATOM      7  C7  <0> d           1.347  -2.141   0.003  0.00  0.00     0.201 A 
ATOM      8  O1  <0> d           0.429  -2.772   0.497  0.00  0.00    -0.286 OA
ATOM      9  C8  <0> d           2.518  -2.817  -0.577  0.00  0.00     0.098 A 
ATOM     10  C9  <0> d           3.528  -2.051  -1.122  0.00  0.00     0.109 A 
ATOM     11  N1  <0> d           3.478  -0.713  -1.141  0.00  0.00    -0.364 N 
ATOM     12  H1  <0> d           4.217  -0.226  -1.538  0.00  0.00     0.165 HD
ENDROOT
BRANCH   9  13
ATOM     13  C10 <0> d           2.611  -4.285  -0.575  0.00  0.00     0.261 C 
ATOM     14  O2  <0> d           3.531  -4.837  -1.147  0.00  0.00    -0.267 OA
ATOM     15  N2  <0> d           1.676  -5.019   0.061  0.00  0.00    -0.323 N 
ATOM     16  H7  <0> d           0.902  -4.585   0.452  0.00  0.00     0.169 HD
BRANCH  15  17
ATOM     17  C11 <0> d           1.822  -6.402   0.158  0.00  0.00     0.037 A 
ATOM     18  C15 <0> d           0.708  -7.240   0.166  0.00  0.00     0.049 A 
ATOM     19  C14 <0> d           0.895  -8.604   0.258  0.00  0.00     0.118 A 
ATOM     20  N3  <0> d           2.108  -9.116   0.347  0.00  0.00    -0.273 NA
ATOM     21  C13 <0> d           3.188  -8.356   0.348  0.00  0.00     0.118 A 
ATOM     22  C12 <0> d           3.086  -6.983   0.254  0.00  0.00     0.049 A 
ENDBRANCH  15  17
ENDBRANCH   9  13
TORSDOF 2
