REMARK  4 active torsions:
REMARK  status: ('A' for Active; 'I' for Inactive)
REMARK       I    between atoms: N1_5  and  C7_8 
REMARK    1  A    between atoms: C7_8  and  C8_10 
REMARK    2  A    between atoms: C14_17  and  C20_23 
REMARK    3  A    between atoms: C22_25  and  N3_30 
REMARK    4  A    between atoms: C25_28  and  O2_29 
ROOT
ATOM      1  C8  <0> d          -0.128  -3.930   2.988  0.00  0.00     0.059 A 
ATOM      2  C9  <0> d           1.151  -3.376   3.079  0.00  0.00     0.019 A 
ATOM      3  C10 <0> d           2.024  -3.816   4.049  0.00  0.00     0.002 A 
ATOM      4  C11 <0> d           1.641  -4.812   4.932  0.00  0.00     0.010 A 
ATOM      5  C12 <0> d           0.386  -5.374   4.856  0.00  0.00    -0.022 A 
ATOM      6  C13 <0> d          -0.525  -4.929   3.891  0.00  0.00     0.051 A 
ATOM      7  N2  <0> d          -1.817  -5.440   3.815  0.00  0.00    -0.379 N 
ATOM      8  C14 <0> d          -2.279  -6.502   4.736  0.00  0.00     0.123 C 
ATOM      9  C15 <0> d          -1.579  -6.233   6.056  0.00  0.00     0.028 C 
ATOM     10  C16 <0> d          -0.057  -6.455   5.763  0.00  0.00     0.050 C 
ATOM     11  C17 <0> d           0.521  -6.631   7.119  0.00  0.00    -0.021 C 
ATOM     12  C18 <0> d          -0.412  -7.141   7.915  0.00  0.00    -0.029 C 
ATOM     13  C19 <0> d          -1.750  -7.280   7.165  0.00  0.00     0.035 C 
ATOM     14  H19 <0> d          -2.428  -5.094   3.146  0.00  0.00     0.160 HD
ENDROOT
BRANCH   8  15
ATOM     15  C20 <0> d          -1.890  -7.857   4.204  0.00  0.00     0.000 A 
ATOM     16  C25 <0> d          -2.616  -8.981   4.570  0.00  0.00     0.074 A 
ATOM     17  C24 <0> d          -2.258 -10.227   4.074  0.00  0.00     0.039 A 
ATOM     18  C23 <0> d          -1.174 -10.346   3.226  0.00  0.00     0.039 A 
ATOM     19  C22 <0> d          -0.449  -9.225   2.867  0.00  0.00     0.103 A 
ATOM     20  C21 <0> d          -0.806  -7.982   3.356  0.00  0.00     0.048 A 
BRANCH  16  21
ATOM     21  O2  <0> d          -3.679  -8.862   5.408  0.00  0.00    -0.360 OA
ATOM     22  H27 <0> d          -4.520  -8.709   4.956  0.00  0.00     0.217 HD
ENDBRANCH  16  21
BRANCH  19  23
ATOM     23  N3  <0> d           0.712  -9.356   1.959  0.00  0.00    -0.116 N 
ATOM     24  O3  <0> d           1.347  -8.376   1.644  0.00  0.00    -0.532 OA
ATOM     25  O4  <0> d           1.026 -10.442   1.531  0.00  0.00    -0.532 OA
ENDBRANCH  19  23
ENDBRANCH   8  15
BRANCH   1  26
ATOM     26  C7  <0> d          -1.063  -3.461   1.948  0.00  0.00     0.256 C 
ATOM     27  N1  <0> d          -1.345  -2.148   1.839  0.00  0.00    -0.348 N 
ATOM     28  C4  <0> d          -2.175  -1.650   0.733  0.00  0.00     0.126 C 
ATOM     29  C5  <0> d          -0.830  -1.186   2.823  0.00  0.00     0.126 C 
ATOM     30  C3  <0> d          -3.333  -0.834   1.314  0.00  0.00     0.024 C 
ATOM     31  C2  <0> d          -2.773   0.264   2.223  0.00  0.00    -0.015 C 
ATOM     32  C1  <0> d          -3.925   1.103   2.778  0.00  0.00     0.010 C 
ATOM     33  C6  <0> d          -2.003  -0.375   3.381  0.00  0.00     0.024 C 
ATOM     34  O1  <0> d          -1.579  -4.259   1.190  0.00  0.00    -0.267 OA
ENDBRANCH   1  26
TORSDOF 4
