REMARK  6 active torsions:
REMARK  status: ('A' for Active; 'I' for Inactive)
REMARK    1  A    between atoms: C2_2  and  N1_3 
REMARK    2  A    between atoms: C8_12  and  S2_13 
REMARK    3  A    between atoms: S2_13  and  C9_14 
REMARK    4  A    between atoms: C9_14  and  C10_15 
REMARK       I    between atoms: C10_15  and  N3_17 
REMARK    5  A    between atoms: N3_17  and  C11_18 
REMARK    6  A    between atoms: C12_19  and  C18_26 
REMARK       I    between atoms: C18_26  and  N4_28 
ROOT
ATOM      1  C9  <0> d           6.449  -0.497  -0.062  0.00  0.00     0.185 C 
ENDROOT
BRANCH   1   2
ATOM      2  S2  <0> d           5.560  -2.074  -0.062  0.00  0.00    -0.082 SA
BRANCH   2   3
ATOM      3  C8  <0> d           3.898  -1.488  -0.043  0.00  0.00     0.172 A 
ATOM      4  N1  <0> d           2.885  -2.398  -0.038  0.00  0.00    -0.293 N 
ATOM      5  C3  <0> d           1.578  -2.046  -0.024  0.00  0.00     0.263 A 
ATOM      6  O1  <0> d           0.685  -2.876  -0.020  0.00  0.00    -0.267 OA
ATOM      7  C4  <0> d           1.310  -0.639  -0.014  0.00  0.00     0.075 A 
ATOM      8  C7  <0> d           2.424   0.232  -0.020  0.00  0.00     0.117 A 
ATOM      9  C5  <0> d           0.002  -0.004   0.002  0.00  0.00    -0.026 A 
ATOM     10  S1  <0> d           1.690   1.837  -0.004  0.00  0.00    -0.073 SA
ATOM     11  N2  <0> d           3.685  -0.179  -0.035  0.00  0.00    -0.216 NA
ATOM     12  C6  <0> d          -0.016   1.348   0.009  0.00  0.00    -0.008 A 
ATOM     13  C19 <0> d          -1.220   2.239   0.020  0.00  0.00     0.047 C 
ATOM     14  C20 <0> d          -2.452   1.399  -0.341  0.00  0.00     0.005 C 
ATOM     15  C21 <0> d          -2.433   0.113   0.491  0.00  0.00     0.005 C 
ATOM     16  C22 <0> d          -1.302  -0.797   0.011  0.00  0.00     0.041 C 
BRANCH   4  17
ATOM     17  C2  <0> d           3.226  -3.823  -0.049  0.00  0.00     0.130 C 
ATOM     18  C1  <0> d           3.331  -4.311  -1.496  0.00  0.00     0.027 C 
ENDBRANCH   4  17
ENDBRANCH   2   3
ENDBRANCH   1   2
BRANCH   1  19
ATOM     19  C10 <0> d           7.933  -0.757  -0.077  0.00  0.00     0.232 C 
ATOM     20  O2  <0> d           8.349  -1.896  -0.087  0.00  0.00    -0.272 OA
ATOM     21  N3  <0> d           8.799   0.277  -0.080  0.00  0.00    -0.320 N 
ATOM     22  H8  <0> d           8.466   1.188  -0.072  0.00  0.00     0.169 HD
BRANCH  21  23
ATOM     23  C11 <0> d          10.164   0.037  -0.094  0.00  0.00     0.093 A 
ATOM     24  S3  <0> d          10.990  -1.484  -0.110  0.00  0.00    -0.075 SA
ATOM     25  C14 <0> d          12.668  -0.903  -0.122  0.00  0.00    -0.008 A 
ATOM     26  C13 <0> d          12.566   0.438  -0.115  0.00  0.00    -0.026 A 
ATOM     27  C15 <0> d          14.102  -1.360  -0.136  0.00  0.00     0.047 C 
ATOM     28  C12 <0> d          11.199   0.957  -0.105  0.00  0.00     0.072 A 
ATOM     29  C17 <0> d          13.976   1.032  -0.127  0.00  0.00     0.041 C 
ATOM     30  C16 <0> d          14.910  -0.118   0.302  0.00  0.00     0.010 C 
BRANCH  28  31
ATOM     31  C18 <0> d          10.933   2.399  -0.102  0.00  0.00     0.252 C 
ATOM     32  O3  <0> d          10.834   2.997   0.954  0.00  0.00    -0.268 OA
ATOM     33  N4  <0> d          10.799   3.062  -1.267  0.00  0.00    -0.366 N 
ATOM     34  H15 <0> d          10.877   2.585  -2.108  0.00  0.00     0.159 HD
ATOM     35  H16 <0> d          10.623   4.016  -1.265  0.00  0.00     0.159 HD
ENDBRANCH  28  31
ENDBRANCH  21  23
ENDBRANCH   1  19
TORSDOF 6
