REMARK  6 active torsions:
REMARK  status: ('A' for Active; 'I' for Inactive)
REMARK    1  A    between atoms: C5_5  and  N1_7 
REMARK       I    between atoms: N1_7  and  C7_8 
REMARK    2  A    between atoms: C7_8  and  C8_10 
REMARK    3  A    between atoms: C8_10  and  O2_11 
REMARK    4  A    between atoms: O2_11  and  C9_12 
REMARK    5  A    between atoms: C14_19  and  C16_21 
REMARK    6  A    between atoms: C19_24  and  N4_27 
ROOT
ATOM      1  C9  <0> d          -1.365  -6.122   0.399  0.00  0.00     0.114 A 
ATOM      2  C10 <0> d          -0.272  -6.939   0.405  0.00  0.00     0.042 A 
ATOM      3  C11 <0> d          -0.443  -8.329   0.512  0.00  0.00     0.020 A 
ATOM      4  C12 <0> d          -1.681  -8.858   0.608  0.00  0.00     0.098 A 
ATOM      5  N2  <0> d          -2.786  -8.054   0.604  0.00  0.00    -0.315 N 
ATOM      6  C13 <0> d          -2.655  -6.693   0.508  0.00  0.00     0.146 A 
ATOM      7  N3  <0> d          -3.865  -6.155   0.533  0.00  0.00    -0.338 N 
ATOM      8  C14 <0> d          -4.778  -7.132   0.650  0.00  0.00     0.060 A 
ATOM      9  C15 <0> d          -4.123  -8.326   0.686  0.00  0.00     0.128 A 
ATOM     10  H18 <0> d          -4.060  -5.207   0.477  0.00  0.00     0.167 HD
ENDROOT
BRANCH   1  11
ATOM     11  O2  <0> d          -1.216  -4.775   0.297  0.00  0.00    -0.338 OA
BRANCH  11  12
ATOM     12  C8  <0> d           0.118  -4.276   0.191  0.00  0.00     0.278 C 
BRANCH  12  13
ATOM     13  C7  <0> d           0.086  -2.773   0.087  0.00  0.00     0.246 C 
ATOM     14  N1  <0> d           1.237  -2.080  -0.022  0.00  0.00    -0.324 N 
ATOM     15  H5  <0> d           2.080  -2.551  -0.115  0.00  0.00     0.169 HD
ATOM     16  O1  <0> d          -0.976  -2.187   0.102  0.00  0.00    -0.271 OA
BRANCH  14  17
ATOM     17  C5  <0> d           1.216  -0.681  -0.003  0.00  0.00     0.056 A 
ATOM     18  C4  <0> d           2.239   0.040  -0.607  0.00  0.00     0.060 A 
ATOM     19  C3  <0> d           2.214   1.422  -0.586  0.00  0.00     0.026 A 
ATOM     20 Cl1  <0> d           3.546  -0.795  -1.388  0.00  0.00    -0.082 Cl
ATOM     21  C2  <0> d           1.173   2.086   0.035  0.00  0.00     0.002 A 
ATOM     22  C1  <0> d           0.153   1.372   0.637  0.00  0.00     0.002 A 
ATOM     23  C6  <0> d           0.172  -0.009   0.620  0.00  0.00     0.031 A 
ENDBRANCH  14  17
ENDBRANCH  12  13
ENDBRANCH  11  12
ENDBRANCH   1  11
BRANCH   8  24
ATOM     24  C16 <0> d          -6.248  -6.944   0.715  0.00  0.00    -0.008 A 
ATOM     25  C21 <0> d          -7.088  -8.050   0.837  0.00  0.00     0.016 A 
ATOM     26  C20 <0> d          -8.454  -7.873   0.902  0.00  0.00     0.030 A 
ATOM     27  C19 <0> d          -8.994  -6.594   0.836  0.00  0.00     0.025 A 
ATOM     28  C18 <0> d          -8.159  -5.490   0.709  0.00  0.00     0.030 A 
ATOM     29  C17 <0> d          -6.792  -5.662   0.649  0.00  0.00     0.016 A 
BRANCH  27  30
ATOM     30  N4  <0> d         -10.378  -6.417   0.897  0.00  0.00    -0.399 N 
ATOM     31  H16 <0> d         -10.756  -5.525   0.851  0.00  0.00     0.156 HD
ATOM     32  H17 <0> d         -10.962  -7.187   0.986  0.00  0.00     0.156 HD
ENDBRANCH  27  30
ENDBRANCH   8  24
TORSDOF 6
