REMARK  4 active torsions:
REMARK  status: ('A' for Active; 'I' for Inactive)
REMARK    1  A    between atoms: C2_2  and  C3_3 
REMARK    2  A    between atoms: C3_3  and  N3_29 
REMARK    3  A    between atoms: C11_12  and  C12_14 
REMARK    4  A    between atoms: C15_17  and  O1_20 
ROOT
ATOM      1  C4  <0> d           1.557  -2.488  -0.163  0.00  0.00     0.239 C 
ATOM      2  C5  <0> d           1.433  -4.013  -0.112  0.00  0.00     0.090 C 
ATOM      3  C6  <0> d           1.889  -4.602  -1.445  0.00  0.00     0.162 C 
ATOM      4  C7  <0> d           1.067  -4.004  -2.584  0.00  0.00     0.090 C 
ATOM      5  C8  <0> d           1.202  -2.479  -2.560  0.00  0.00     0.239 C 
ATOM      6  N1  <0> d           3.313  -4.324  -1.654  0.00  0.00    -0.260 N 
ATOM      7  C9  <0> d           4.028  -4.884  -2.825  0.00  0.00     0.149 C 
ATOM      8  C10 <0> d           5.508  -4.713  -2.458  0.00  0.00     0.094 C 
ATOM      9  C11 <0> d           5.473  -3.811  -1.241  0.00  0.00     0.067 C 
ATOM     10  N2  <0> d           4.247  -3.636  -0.870  0.00  0.00    -0.177 NA
ATOM     11  C18 <0> d           3.631  -6.334  -2.912  0.00  0.00     0.000 A 
ATOM     12  C19 <0> d           4.382  -7.193  -3.693  0.00  0.00     0.012 A 
ATOM     13  C20 <0> d           4.014  -8.518  -3.825  0.00  0.00     0.001 A 
ATOM     14  C21 <0> d           2.888  -8.985  -3.171  0.00  0.00     0.003 A 
ATOM     15  C22 <0> d           2.143  -8.135  -2.383  0.00  0.00     0.037 A 
ATOM     16  C23 <0> d           2.512  -6.797  -2.237  0.00  0.00     0.080 A 
ATOM     17  O2  <0> d           1.744  -6.023  -1.427  0.00  0.00    -0.318 OA
ATOM     18  N3  <0> d           0.710  -1.975  -1.261  0.00  0.00    -0.071 N 
ATOM     19  H28 <0> d          -0.253  -2.303  -1.119  0.00  0.00     0.279 HD
ENDROOT
BRANCH  18  20
ATOM     20  C3  <0> d           0.718  -0.497  -1.257  0.00  0.00     0.234 C 
BRANCH  20  21
ATOM     21  C2  <0> d           0.002  -0.004   0.002  0.00  0.00     0.023 C 
ATOM     22  C1  <0> d          -0.019   1.526   0.010  0.00  0.00     0.007 C 
ENDBRANCH  20  21
ENDBRANCH  18  20
BRANCH   9  23
ATOM     23  C12 <0> d           6.654  -3.223  -0.582  0.00  0.00    -0.010 A 
ATOM     24  C17 <0> d           6.496  -2.403   0.538  0.00  0.00     0.016 A 
ATOM     25  C16 <0> d           7.603  -1.856   1.150  0.00  0.00     0.037 A 
ATOM     26  C15 <0> d           8.874  -2.119   0.656  0.00  0.00     0.065 A 
ATOM     27  C14 <0> d           9.036  -2.934  -0.457  0.00  0.00     0.037 A 
ATOM     28  C13 <0> d           7.935  -3.489  -1.073  0.00  0.00     0.016 A 
BRANCH  26  29
ATOM     29  O1  <0> d           9.963  -1.577   1.263  0.00  0.00    -0.361 OA
ATOM     30  H23 <0> d          10.336  -2.128   1.964  0.00  0.00     0.217 HD
ENDBRANCH  26  29
ENDBRANCH   9  23
TORSDOF 4
