REMARK  5 active torsions:
REMARK  status: ('A' for Active; 'I' for Inactive)
REMARK    1  A    between atoms: O1_2  and  C2_3 
REMARK    2  A    between atoms: C2_3  and  C3_4 
REMARK    3  A    between atoms: C3_4  and  C4_5 
REMARK    4  A    between atoms: C4_5  and  N1_6 
REMARK       I    between atoms: N1_6  and  C5_7 
REMARK    5  A    between atoms: C5_7  and  C6_9 
ROOT
ATOM      1  C6  <0> d          -1.037   1.651  -3.596  0.00  0.00     0.117 A 
ATOM      2  C7  <0> d          -0.626   1.245  -4.871  0.00  0.00     0.142 A 
ATOM      3  N2  <0> d          -1.347   1.614  -5.917  0.00  0.00    -0.235 NA
ATOM      4  C8  <0> d          -2.426   2.356  -5.780  0.00  0.00     0.180 A 
ATOM      5  N3  <0> d          -2.901   2.802  -4.582  0.00  0.00    -0.259 N 
ATOM      6  C9  <0> d          -2.196   2.445  -3.466  0.00  0.00     0.271 A 
ATOM      7  O3  <0> d          -2.566   2.812  -2.364  0.00  0.00    -0.266 OA
ATOM      8  C10 <0> d          -4.052   3.575  -4.590  0.00  0.00     0.035 A 
ATOM      9  C11 <0> d          -4.613   3.828  -5.778  0.00  0.00     0.009 A 
ATOM     10  S1  <0> d          -3.554   2.994  -6.928  0.00  0.00    -0.054 SA
ATOM     11  C12 <0> d          -5.845   4.627  -6.059  0.00  0.00     0.048 C 
ATOM     12  C13 <0> d          -6.603   4.826  -4.738  0.00  0.00     0.006 C 
ATOM     13  C14 <0> d          -5.607   5.278  -3.665  0.00  0.00     0.006 C 
ATOM     14  C15 <0> d          -4.668   4.125  -3.307  0.00  0.00     0.059 C 
ENDROOT
BRANCH   1  15
ATOM     15  C5  <0> d          -0.268   1.258  -2.409  0.00  0.00     0.258 C 
ATOM     16  N1  <0> d          -0.734   1.550  -1.178  0.00  0.00    -0.357 N 
ATOM     17  H10 <0> d          -1.539   2.082  -1.078  0.00  0.00     0.162 HD
ATOM     18  O2  <0> d           0.790   0.670  -2.536  0.00  0.00    -0.267 OA
BRANCH  16  19
ATOM     19  C4  <0> d          -0.025   1.062   0.007  0.00  0.00     0.125 C 
BRANCH  19  20
ATOM     20  C3  <0> d          -0.757   1.529   1.267  0.00  0.00     0.046 C 
BRANCH  20  21
ATOM     21  C2  <0> d          -0.016   1.020   2.506  0.00  0.00     0.168 C 
BRANCH  21  22
ATOM     22  O1  <0> d          -0.700   1.457   3.682  0.00  0.00    -0.396 OA
ATOM     23  C1  <0> d          -0.087   1.033   4.901  0.00  0.00     0.201 C 
ENDBRANCH  21  22
ENDBRANCH  20  21
ENDBRANCH  19  20
ENDBRANCH  16  19
ENDBRANCH   1  15
TORSDOF 5
