REMARK  5 active torsions:
REMARK  status: ('A' for Active; 'I' for Inactive)
REMARK    1  A    between atoms: C5_6  and  N2_11 
REMARK       I    between atoms: N2_11  and  C9_12 
REMARK    2  A    between atoms: C9_12  and  C10_14 
REMARK    3  A    between atoms: C10_14  and  C11_15 
REMARK    4  A    between atoms: C11_15  and  C12_16 
REMARK    5  A    between atoms: C11_15  and  N3_23 
REMARK       I    between atoms: N3_23  and  C18_24 
REMARK       I    between atoms: C18_24  and  N4_26 
ROOT
ATOM      1  C10 <0> d           2.714   4.114  -1.469  0.00  0.00     0.133 C 
ENDROOT
BRANCH   1   2
ATOM      2  C9  <0> d           4.109   4.658  -1.639  0.00  0.00     0.224 C 
ATOM      3  N2  <0> d           4.589   4.905  -2.874  0.00  0.00    -0.327 N 
ATOM      4  H8  <0> d           3.940   4.778  -3.753  0.00  0.00     0.169 HD
ATOM      5  O2  <0> d           4.799   4.874  -0.666  0.00  0.00    -0.273 OA
BRANCH   3   6
ATOM      6  C5  <0> d           5.917   5.322  -3.039  0.00  0.00     0.037 A 
ATOM      7  C4  <0> d           6.499   6.151  -2.098  0.00  0.00     0.064 A 
ATOM      8  C3  <0> d           7.823   6.561  -2.264  0.00  0.00     0.095 A 
ATOM      9  N1  <0> d           8.662   7.348  -1.537  0.00  0.00    -0.226 NA
ATOM     10  C8  <0> d           8.547   6.136  -3.388  0.00  0.00     0.106 A 
ATOM     11  C2  <0> d           9.807   7.414  -2.147  0.00  0.00     0.142 A 
ATOM     12  C1  <0> d          11.001   8.192  -1.655  0.00  0.00     0.100 C 
ATOM     13  O1  <0> d           9.776   6.689  -3.276  0.00  0.00    -0.294 OA
ATOM     14  C7  <0> d           7.948   5.309  -4.326  0.00  0.00     0.042 A 
ATOM     15  C6  <0> d           6.642   4.904  -4.152  0.00  0.00     0.032 A 
ENDBRANCH   3   6
ENDBRANCH   1   2
BRANCH   1  16
ATOM     16  C11 <0> d           2.418   3.925   0.021  0.00  0.00     0.128 C 
BRANCH  16  17
ATOM     17  C12 <0> d           1.073   3.267   0.186  0.00  0.00    -0.034 A 
ATOM     18  C17 <0> d           0.402   3.361   1.391  0.00  0.00     0.028 A 
ATOM     19  C16 <0> d          -0.833   2.757   1.544  0.00  0.00     0.011 A 
ATOM     20  C15 <0> d          -1.399   2.064   0.488  0.00  0.00     0.019 A 
ATOM     21 Br1  <0> d          -1.752   2.885   3.192  0.00  0.00    -0.051 Br
ATOM     22  C14 <0> d          -0.724   1.966  -0.714  0.00  0.00     0.002 A 
ATOM     23  C13 <0> d           0.510   2.570  -0.866  0.00  0.00     0.009 A 
ENDBRANCH  16  17
BRANCH  16  24
ATOM     24  N3  <0> d           2.409   5.231   0.685  0.00  0.00    -0.334 N 
ATOM     25  C18 <0> d           1.474   6.146   0.361  0.00  0.00     0.314 C 
ATOM     26  O3  <0> d           0.585   5.857  -0.416  0.00  0.00    -0.248 OA
ATOM     27  N4  <0> d           1.525   7.380   0.899  0.00  0.00    -0.352 N 
ATOM     28  H16 <0> d           0.761   8.127   0.634  0.00  0.00     0.160 HD
ATOM     29  H17 <0> d           2.329   7.642   1.602  0.00  0.00     0.160 HD
ATOM     30  H15 <0> d           3.166   5.464   1.449  0.00  0.00     0.165 HD
ENDBRANCH  16  24
ENDBRANCH   1  16
TORSDOF 5
