REMARK  3 active torsions:
REMARK  status: ('A' for Active; 'I' for Inactive)
REMARK    1  A    between atoms: C5_5  and  N1_9 
REMARK       I    between atoms: N1_9  and  C8_10 
REMARK    2  A    between atoms: C8_10  and  C9_12 
REMARK    3  A    between atoms: N3_14  and  C13_19 
ROOT
ATOM      1  C9  <0> d           0.002  -0.005   0.019  0.00  0.00     0.123 C 
ATOM      2  N2  <0> d          -0.015   1.292   0.030  0.00  0.00    -0.168 NA
ATOM      3  N3  <0> d           1.173   2.031   0.033  0.00  0.00    -0.232 N 
ATOM      4  C10 <0> d           2.330   1.463  -0.357  0.00  0.00     0.240 C 
ATOM      5  O2  <0> d           3.356   2.110  -0.357  0.00  0.00    -0.272 OA
ATOM      6  C11 <0> d           2.346   0.020  -0.794  0.00  0.00     0.111 C 
ATOM      7  C12 <0> d           1.304  -0.761   0.010  0.00  0.00     0.076 C 
ENDROOT
BRANCH   1   8
ATOM      8  C8  <0> d          -1.264  -0.745   0.013  0.00  0.00     0.272 C 
ATOM      9  N1  <0> d          -2.435  -0.078   0.020  0.00  0.00    -0.321 N 
ATOM     10  H8  <0> d          -2.441   0.889   0.095  0.00  0.00     0.169 HD
ATOM     11  O1  <0> d          -1.258  -1.962   0.003  0.00  0.00    -0.266 OA
BRANCH   9  12
ATOM     12  C5  <0> d          -3.641  -0.779  -0.080  0.00  0.00     0.052 A 
ATOM     13  C4  <0> d          -3.768  -2.032   0.506  0.00  0.00     0.031 A 
ATOM     14  C3  <0> d          -4.961  -2.721   0.409  0.00  0.00     0.009 A 
ATOM     15  C2  <0> d          -6.026  -2.168  -0.279  0.00  0.00    -0.061 A 
ATOM     16  C1  <0> d          -7.324  -2.926  -0.388  0.00  0.00     0.048 C 
ATOM     17  C7  <0> d          -5.902  -0.923  -0.868  0.00  0.00     0.028 A 
ATOM     18  C6  <0> d          -4.713  -0.227  -0.770  0.00  0.00     0.038 A 
ATOM     19 Br1  <0> d          -4.544   1.476  -1.576  0.00  0.00    -0.049 Br
ENDBRANCH   9  12
ENDBRANCH   1   8
BRANCH   3  20
ATOM     20  C13 <0> d           1.157   3.431   0.462  0.00  0.00     0.128 C 
ATOM     21  C16 <0> d           0.656   3.515   1.924  0.00  0.00     0.167 C 
ATOM     22  S1  <0> d          -0.206   5.139   1.963  0.00  0.00     0.146 S 
ATOM     23  C15 <0> d          -0.018   5.627   0.196  0.00  0.00     0.142 C 
ATOM     24  O3  <0> d          -1.584   4.925   2.239  0.00  0.00    -0.228 OA
ATOM     25  O4  <0> d           0.538   6.038   2.774  0.00  0.00    -0.228 OA
ATOM     26  C14 <0> d           0.226   4.237  -0.458  0.00  0.00     0.043 C 
ENDBRANCH   3  20
TORSDOF 3
