REMARK  5 active torsions:
REMARK  status: ('A' for Active; 'I' for Inactive)
REMARK    1  A    between atoms: C6_7  and  C9_10 
REMARK    2  A    between atoms: C9_10  and  C10_11 
REMARK    3  A    between atoms: C10_11  and  N2_12 
REMARK       I    between atoms: N2_12  and  C11_13 
REMARK    4  A    between atoms: C11_13  and  C12_15 
REMARK    5  A    between atoms: C16_23  and  N6_25 
ROOT
ATOM      1  C12 <0> d          -1.736  -6.538  -2.622  0.00  0.00     0.129 C 
ATOM      2  C13 <0> d          -2.269  -7.054  -1.466  0.00  0.00     0.111 C 
ATOM      3  C14 <0> d          -3.166  -8.145  -1.527  0.00  0.00     0.245 C 
ATOM      4  O2  <0> d          -3.430  -8.755  -0.506  0.00  0.00    -0.268 OA
ATOM      5  N3  <0> d          -3.737  -8.527  -2.690  0.00  0.00    -0.326 N 
ATOM      6  C15 <0> d          -3.520  -7.704  -3.882  0.00  0.00     0.283 C 
ATOM      7  N4  <0> d          -2.132  -7.175  -3.785  0.00  0.00    -0.228 N 
ATOM      8  N5  <0> d          -1.343  -7.454  -4.879  0.00  0.00    -0.143 NA
ATOM      9  C16 <0> d          -1.707  -8.265  -5.832  0.00  0.00     0.187 C 
ATOM     10  S1  <0> d          -3.379  -8.760  -5.374  0.00  0.00    -0.042 SA
ATOM     11  H14 <0> d          -4.279  -9.330  -2.735  0.00  0.00     0.165 HD
ENDROOT
BRANCH   1  12
ATOM     12  C11 <0> d          -0.811  -5.380  -2.623  0.00  0.00     0.270 C 
ATOM     13  N2  <0> d          -0.458  -4.798  -1.460  0.00  0.00    -0.355 N 
ATOM     14  H12 <0> d          -0.810  -5.136  -0.622  0.00  0.00     0.162 HD
ATOM     15  O1  <0> d          -0.370  -4.956  -3.673  0.00  0.00    -0.266 OA
BRANCH  13  16
ATOM     16  C10 <0> d           0.457  -3.653  -1.462  0.00  0.00     0.127 C 
BRANCH  16  17
ATOM     17  C9  <0> d           0.691  -3.186  -0.024  0.00  0.00     0.056 C 
BRANCH  17  18
ATOM     18  C6  <0> d           1.631  -2.008  -0.025  0.00  0.00    -0.048 A 
ATOM     19  C5  <0> d           3.143  -2.053  -0.041  0.00  0.00     0.155 A 
ATOM     20  N1  <0> d           3.587  -0.654  -0.037  0.00  0.00    -0.385 N 
ATOM     21  C4  <0> d           2.529   0.120  -0.022  0.00  0.00     0.038 A 
ATOM     22  H23 <0> d           4.509  -0.353  -0.045  0.00  0.00     0.160 HD
ATOM     23  C3  <0> d           2.391   1.535  -0.013  0.00  0.00     0.030 A 
ATOM     24  C7  <0> d           1.295  -0.698  -0.014  0.00  0.00    -0.006 A 
ATOM     25  C2  <0> d           1.166   2.101   0.002  0.00  0.00     0.002 A 
ATOM     26  C1  <0> d          -0.016   1.348   0.009  0.00  0.00     0.001 A 
ATOM     27  C8  <0> d           0.002  -0.004   0.002  0.00  0.00     0.014 A 
ENDBRANCH  17  18
ENDBRANCH  16  17
ENDBRANCH  13  16
ENDBRANCH   1  12
BRANCH   9  28
ATOM     28  N6  <0> d          -0.980  -8.656  -6.941  0.00  0.00    -0.359 N 
ATOM     29  C20 <0> d           0.389  -8.218  -7.271  0.00  0.00     0.125 C 
ATOM     30  C19 <0> d           0.956  -9.344  -8.174  0.00  0.00     0.021 C 
ATOM     31  C18 <0> d          -0.295  -9.733  -9.006  0.00  0.00     0.021 C 
ATOM     32  C17 <0> d          -1.447  -9.573  -7.992  0.00  0.00     0.125 C 
ENDBRANCH   9  28
TORSDOF 5
