REMARK  5 active torsions:
REMARK  status: ('A' for Active; 'I' for Inactive)
REMARK    1  A    between atoms: C5_6  and  N2_8 
REMARK       I    between atoms: N2_8  and  C7_9 
REMARK    2  A    between atoms: C7_9  and  C8_11 
REMARK    3  A    between atoms: N3_14  and  C13_17 
REMARK    4  A    between atoms: C13_17  and  C15_19 
REMARK       I    between atoms: C15_19  and  N4_21 
REMARK       I    between atoms: N4_21  and  C16_22 
REMARK       I    between atoms: C16_22  and  N5_24 
REMARK    5  A    between atoms: N5_24  and  C17_25 
ROOT
ATOM      1  C8  <0> d           2.108  -3.749   5.599  0.00  0.00     0.081 C 
ATOM      2  C9  <0> d           0.666  -4.098   5.219  0.00  0.00     0.042 C 
ATOM      3  C10 <0> d          -0.031  -4.737   6.422  0.00  0.00     0.236 C 
ATOM      4  N3  <0> d          -0.035  -3.795   7.548  0.00  0.00    -0.059 N 
ATOM      5  C11 <0> d           1.344  -3.510   7.963  0.00  0.00     0.236 C 
ATOM      6  C12 <0> d           2.094  -2.825   6.820  0.00  0.00     0.042 C 
ATOM      7  H32 <0> d          -0.484  -2.936   7.265  0.00  0.00     0.280 HD
ENDROOT
BRANCH   4   8
ATOM      8  C13 <0> d          -0.773  -4.382   8.674  0.00  0.00     0.275 C 
ATOM      9  C14 <0> d          -2.193  -4.733   8.225  0.00  0.00     0.050 C 
BRANCH   8  10
ATOM     10  C15 <0> d          -0.835  -3.389   9.806  0.00  0.00     0.256 C 
ATOM     11  O2  <0> d          -0.797  -2.200   9.572  0.00  0.00    -0.271 OA
ATOM     12  N4  <0> d          -0.933  -3.823  11.078  0.00  0.00    -0.278 N 
ATOM     13  C16 <0> d          -0.988  -2.935  12.091  0.00  0.00     0.323 C 
ATOM     14  H21 <0> d          -0.963  -4.774  11.265  0.00  0.00     0.173 HD
ATOM     15  O3  <0> d          -0.951  -1.743  11.856  0.00  0.00    -0.247 OA
ATOM     16  N5  <0> d          -1.086  -3.369  13.363  0.00  0.00    -0.335 N 
ATOM     17  H22 <0> d          -1.116  -4.321  13.550  0.00  0.00     0.165 HD
BRANCH  16  18
ATOM     18  C17 <0> d          -1.146  -2.404  14.463  0.00  0.00     0.023 C 
ATOM     19  C18 <0> d          -2.370  -1.504  14.285  0.00  0.00     0.037 C 
ATOM     20  C19 <0> d          -1.254  -3.153  15.793  0.00  0.00     0.037 C 
ATOM     21  C20 <0> d           0.122  -1.548  14.461  0.00  0.00     0.037 C 
ENDBRANCH  16  18
ENDBRANCH   8  10
ENDBRANCH   4   8
BRANCH   1  22
ATOM     22  C7  <0> d           2.777  -3.049   4.444  0.00  0.00     0.227 C 
ATOM     23  N2  <0> d           2.904  -3.675   3.258  0.00  0.00    -0.311 N 
ATOM     24  H8  <0> d           2.501  -4.547   3.125  0.00  0.00     0.170 HD
ATOM     25  O1  <0> d           3.202  -1.921   4.583  0.00  0.00    -0.273 OA
BRANCH  23  26
ATOM     26  C5  <0> d           3.615  -3.070   2.222  0.00  0.00     0.130 A 
ATOM     27  N1  <0> d           4.067  -1.835   2.371  0.00  0.00    -0.243 NA
ATOM     28  C4  <0> d           4.743  -1.226   1.417  0.00  0.00     0.119 A 
ATOM     29  C3  <0> d           5.005  -1.861   0.219  0.00  0.00     0.026 A 
ATOM     30  C2  <0> d           4.548  -3.157   0.022  0.00  0.00    -0.057 A 
ATOM     31  C1  <0> d           4.816  -3.881  -1.272  0.00  0.00     0.048 C 
ATOM     32  C6  <0> d           3.836  -3.768   1.040  0.00  0.00     0.057 A 
ENDBRANCH  23  26
ENDBRANCH   1  22
TORSDOF 5
