REMARK  2 active torsions:
REMARK  status: ('A' for Active; 'I' for Inactive)
REMARK    1  A    between atoms: C5_5  and  O4_19 
REMARK    2  A    between atoms: C7_7  and  O3_17 
ROOT
ATOM      1  C1  <0> d          -0.860   1.573   1.155  0.00  0.00     0.013 C 
ATOM      2  C2  <0> d          -0.059   1.095  -0.069  0.00  0.00     0.019 C 
ATOM      3  C3  <0> d          -0.777   1.630  -1.318  0.00  0.00     0.010 C 
ATOM      4  C4  <0> d           0.015   1.442  -2.600  0.00  0.00     0.033 C 
ATOM      5  C5  <0> d           1.461   1.933  -2.482  0.00  0.00     0.129 C 
ATOM      6  C6  <0> d           2.115   1.241  -1.284  0.00  0.00     0.016 C 
ATOM      7  C7  <0> d           1.340   1.677  -0.030  0.00  0.00     0.098 C 
ATOM      8  C8  <0> d           2.176   1.478   1.186  0.00  0.00     0.172 C 
ATOM      9  C9  <0> d           3.246   0.373   1.023  0.00  0.00     0.031 C 
ATOM     10  C10 <0> d           4.241   0.736  -0.051  0.00  0.00     0.009 C 
ATOM     11  C11 <0> d           3.581   1.624  -1.117  0.00  0.00     0.015 C 
ATOM     12  C12 <0> d           3.812   0.391   2.460  0.00  0.00     0.088 C 
ATOM     13  C13 <0> d           2.607   0.832   3.287  0.00  0.00     0.263 C 
ATOM     14  O1  <0> d           2.580   0.946   4.487  0.00  0.00    -0.265 OA
ATOM     15  O2  <0> d           1.567   1.077   2.441  0.00  0.00    -0.312 OA
ATOM     16  C14 <0> d           4.271  -1.007   2.869  0.00  0.00     0.021 C 
ATOM     17  C15 <0> d           2.018  -0.264  -1.523  0.00  0.00     0.021 C 
ENDROOT
BRANCH   5  18
ATOM     18  O4  <0> d           2.182   1.592  -3.672  0.00  0.00    -0.395 OA
ATOM     19  H24 <0> d           1.827   1.993  -4.476  0.00  0.00     0.210 HD
ENDBRANCH   5  18
BRANCH   7  20
ATOM     20  O3  <0> d           1.167   3.116  -0.143  0.00  0.00    -0.386 OA
ATOM     21  H20 <0> d           0.639   3.506   0.566  0.00  0.00     0.210 HD
ENDBRANCH   7  20
TORSDOF 2
