REMARK  5 active torsions:
REMARK  status: ('A' for Active; 'I' for Inactive)
REMARK    1  A    between atoms: C2_2  and  N1_4 
REMARK    2  A    between atoms: C5_6  and  N3_9 
REMARK       I    between atoms: N3_9  and  C7_10 
REMARK    3  A    between atoms: C7_10  and  C8_12 
REMARK    4  A    between atoms: C8_12  and  C9_13 
REMARK    5  A    between atoms: C9_13  and  S1_14 
ROOT
ATOM      1  N3  <0> d          -4.439  -1.510   1.514  0.00  0.00    -0.325 N 
ATOM      2  C7  <0> d          -5.577  -1.978   0.964  0.00  0.00     0.223 C 
ATOM      3  O1  <0> d          -5.658  -2.115  -0.239  0.00  0.00    -0.273 OA
ATOM      4  H10 <0> d          -4.375  -1.400   2.475  0.00  0.00     0.169 HD
ENDROOT
BRANCH   1   5
ATOM      5  C5  <0> d          -3.345  -1.179   0.692  0.00  0.00     0.071 A 
ATOM      6  C4  <0> d          -2.147  -0.699   1.112  0.00  0.00     0.143 A 
ATOM      7  N1  <0> d          -1.372  -0.511   0.012  0.00  0.00    -0.275 N 
ATOM      8  N2  <0> d          -2.123  -0.883  -1.111  0.00  0.00    -0.183 NA
ATOM      9  C6  <0> d          -3.299  -1.286  -0.705  0.00  0.00     0.169 A 
BRANCH   7  10
ATOM     10  C2  <0> d           0.002  -0.004   0.002  0.00  0.00     0.101 C 
ATOM     11  C1  <0> d          -0.019   1.526   0.010  0.00  0.00     0.034 C 
ATOM     12  C3  <0> d           0.742  -0.511   1.242  0.00  0.00     0.034 C 
ENDBRANCH   7  10
ENDBRANCH   1   5
BRANCH   2  13
ATOM     13  C8  <0> d          -6.749  -2.333   1.843  0.00  0.00     0.118 C 
BRANCH  13  14
ATOM     14  C9  <0> d          -7.904  -2.836   0.975  0.00  0.00     0.149 C 
BRANCH  14  15
ATOM     15  S1  <0> d          -9.314  -3.263   2.034  0.00  0.00     0.141 S 
ATOM     16  O2  <0> d          -8.945  -4.364   2.852  0.00  0.00    -0.228 OA
ATOM     17  O3  <0> d          -9.790  -2.074   2.648  0.00  0.00    -0.228 OA
ATOM     18  C10 <0> d         -10.556  -3.828   0.838  0.00  0.00     0.161 C 
ENDBRANCH  14  15
ENDBRANCH  13  14
ENDBRANCH   2  13
TORSDOF 5
