REMARK  3 active torsions:
REMARK  status: ('A' for Active; 'I' for Inactive)
REMARK    1  A    between atoms: C3_3  and  C5_6 
REMARK       I    between atoms: C5_6  and  N1_8 
REMARK    2  A    between atoms: N1_8  and  C6_9 
REMARK       I    between atoms: N3_21  and  C17_23 
REMARK    3  A    between atoms: C17_23  and  C18_25 
ROOT
ATOM      1  C6  <0> d           2.452   0.100  -4.180  0.00  0.00     0.104 C 
ATOM      2  C7  <0> d           1.985   1.386  -4.200  0.00  0.00     0.037 C 
ATOM      3  C8  <0> d           1.715   2.025  -2.986  0.00  0.00     0.028 C 
ATOM      4  C9  <0> d           1.924   1.386  -1.805  0.00  0.00     0.020 C 
ATOM      5  N2  <0> d           2.471   0.146  -1.779  0.00  0.00    -0.315 N 
ATOM      6  C10 <0> d           2.671  -0.528  -2.939  0.00  0.00     0.274 C 
ATOM      7  O3  <0> d           3.045  -1.689  -2.906  0.00  0.00    -0.265 OA
ATOM      8  C11 <0> d           2.882  -0.521  -0.544  0.00  0.00     0.138 C 
ATOM      9  C12 <0> d           2.201   0.059   0.682  0.00  0.00     0.023 C 
ATOM     10  C13 <0> d           2.283   1.586   0.648  0.00  0.00     0.020 C 
ATOM     11  C14 <0> d           1.469   2.088  -0.546  0.00  0.00     0.054 C 
ATOM     12  C15 <0> d          -0.007   1.721  -0.314  0.00  0.00     0.137 C 
ATOM     13  N3  <0> d          -0.081   0.256  -0.194  0.00  0.00    -0.347 N 
ATOM     14  C16 <0> d           0.758  -0.409   0.809  0.00  0.00     0.132 C 
ATOM     15  C17 <0> d          -0.902  -0.460  -0.989  0.00  0.00     0.253 C 
ATOM     16  O4  <0> d          -1.653   0.110  -1.757  0.00  0.00    -0.267 OA
ENDROOT
BRANCH   1  17
ATOM     17  N1  <0> d           2.708  -0.582  -5.376  0.00  0.00    -0.317 N 
ATOM     18  C5  <0> d           3.927  -1.111  -5.604  0.00  0.00     0.280 C 
ATOM     19  O2  <0> d           4.830  -0.920  -4.811  0.00  0.00    -0.265 OA
ATOM     20  H6  <0> d           2.007  -0.674  -6.041  0.00  0.00     0.169 HD
BRANCH  18  21
ATOM     21  C3  <0> d           4.164  -1.915  -6.806  0.00  0.00     0.142 A 
ATOM     22  C2  <0> d           5.346  -2.501  -7.159  0.00  0.00     0.045 A 
ATOM     23  C1  <0> d           5.119  -3.169  -8.372  0.00  0.00     0.027 A 
ATOM     24  C4  <0> d           3.827  -2.958  -8.707  0.00  0.00     0.143 A 
ATOM     25  O1  <0> d           3.255  -2.202  -7.761  0.00  0.00    -0.317 OA
ENDBRANCH  18  21
ENDBRANCH   1  17
BRANCH  15  26
ATOM     26  C18 <0> d          -0.889  -1.935  -0.926  0.00  0.00     0.032 A 
ATOM     27  C23 <0> d          -0.899  -2.584   0.311  0.00  0.00     0.020 A 
ATOM     28  C22 <0> d          -0.887  -3.962   0.364  0.00  0.00     0.043 A 
ATOM     29  C21 <0> d          -0.865  -4.703  -0.808  0.00  0.00     0.116 A 
ATOM     30  C20 <0> d          -0.855  -4.064  -2.038  0.00  0.00     0.043 A 
ATOM     31  F1  <0> d          -0.853  -6.052  -0.750  0.00  0.00    -0.206 F 
ATOM     32  C19 <0> d          -0.874  -2.687  -2.103  0.00  0.00     0.020 A 
ENDBRANCH  15  26
TORSDOF 3
