REMARK  6 active torsions:
REMARK  status: ('A' for Active; 'I' for Inactive)
REMARK    1  A    between atoms: C5_5  and  C8_8 
REMARK    2  A    between atoms: C10_10  and  C24_32 
REMARK    3  A    between atoms: C12_14  and  C14_17 
REMARK       I    between atoms: C14_17  and  N4_19 
REMARK    4  A    between atoms: N4_19  and  C15_20 
REMARK    5  A    between atoms: C20_25  and  C21_26 
REMARK    6  A    between atoms: C21_26  and  O2_28 
ROOT
ATOM      1  C8  <0> d           0.754  -5.225  -0.725  0.00  0.00     0.118 C 
ATOM      2  C9  <0> d          -0.764  -5.326  -0.565  0.00  0.00     0.066 C 
ATOM      3  C10 <0> d          -1.128  -6.667   0.092  0.00  0.00     0.219 C 
ATOM      4  N1  <0> d          -0.329  -6.781   1.317  0.00  0.00    -0.263 N 
ATOM      5  C11 <0> d           0.874  -6.112   1.490  0.00  0.00     0.136 A 
ATOM      6  N2  <0> d           1.418  -5.359   0.578  0.00  0.00    -0.365 N 
ATOM      7  C12 <0> d           1.338  -6.446   2.842  0.00  0.00     0.094 A 
ATOM      8  C13 <0> d           0.408  -7.298   3.377  0.00  0.00     0.128 A 
ATOM      9  N3  <0> d          -0.581  -7.512   2.472  0.00  0.00    -0.306 N 
ATOM     10  H14 <0> d          -1.348  -8.089   2.611  0.00  0.00     0.186 HD
ATOM     11  H24 <0> d           2.250  -4.894   0.756  0.00  0.00     0.161 HD
ENDROOT
BRANCH   7  12
ATOM     12  C14 <0> d           2.560  -5.962   3.493  0.00  0.00     0.261 C 
ATOM     13  O1  <0> d           2.894  -6.415   4.572  0.00  0.00    -0.267 OA
ATOM     14  N4  <0> d           3.313  -5.017   2.896  0.00  0.00    -0.322 N 
ATOM     15  H15 <0> d           3.012  -4.608   2.070  0.00  0.00     0.169 HD
BRANCH  14  16
ATOM     16  C15 <0> d           4.529  -4.625   3.470  0.00  0.00     0.046 A 
ATOM     17  C20 <0> d           5.072  -3.384   3.166  0.00  0.00    -0.000 A 
ATOM     18  C19 <0> d           6.269  -2.994   3.735  0.00  0.00     0.051 A 
ATOM     19  C18 <0> d           6.936  -3.844   4.601  0.00  0.00     0.105 A 
ATOM     20  C17 <0> d           6.397  -5.092   4.904  0.00  0.00     0.107 A 
ATOM     21  O3  <0> d           8.114  -3.702   5.279  0.00  0.00    -0.323 OA
ATOM     22  C16 <0> d           5.194  -5.480   4.338  0.00  0.00     0.070 A 
ATOM     23  O4  <0> d           7.236  -5.731   5.770  0.00  0.00    -0.323 OA
ATOM     24  C23 <0> d           8.085  -4.703   6.313  0.00  0.00     0.352 C 
BRANCH  17  25
ATOM     25  C21 <0> d           4.351  -2.459   2.218  0.00  0.00     0.149 C 
ATOM     26  C22 <0> d           4.726  -2.813   0.777  0.00  0.00     0.044 C 
BRANCH  25  27
ATOM     27  O2  <0> d           4.730  -1.109   2.491  0.00  0.00    -0.391 OA
ATOM     28  H21 <0> d           5.677  -0.938   2.392  0.00  0.00     0.210 HD
ENDBRANCH  25  27
ENDBRANCH  17  25
ENDBRANCH  14  16
ENDBRANCH   7  12
BRANCH   3  29
ATOM     29  C24 <0> d          -2.619  -6.690   0.436  0.00  0.00     0.409 C 
ATOM     30  F1  <0> d          -3.370  -6.531  -0.733  0.00  0.00    -0.169 F 
ATOM     31  F2  <0> d          -2.940  -7.914   1.033  0.00  0.00    -0.169 F 
ATOM     32  F3  <0> d          -2.909  -5.648   1.323  0.00  0.00    -0.169 F 
ENDBRANCH   3  29
BRANCH   1  33
ATOM     33  C5  <0> d           1.102  -3.888  -1.325  0.00  0.00    -0.035 A 
ATOM     34  C4  <0> d           1.371  -3.786  -2.678  0.00  0.00     0.010 A 
ATOM     35  C3  <0> d           1.690  -2.559  -3.229  0.00  0.00     0.007 A 
ATOM     36  C2  <0> d           1.740  -1.434  -2.428  0.00  0.00    -0.062 A 
ATOM     37  C1  <0> d           2.088  -0.096  -3.029  0.00  0.00     0.048 C 
ATOM     38  C7  <0> d           1.477  -1.536  -1.075  0.00  0.00     0.007 A 
ATOM     39  C6  <0> d           1.153  -2.762  -0.524  0.00  0.00     0.010 A 
ENDBRANCH   1  33
TORSDOF 6
