REMARK  4 active torsions:
REMARK  status: ('A' for Active; 'I' for Inactive)
REMARK    1  A    between atoms: C3_3  and  N1_9 
REMARK       I    between atoms: N1_9  and  C8_10 
REMARK    2  A    between atoms: C8_10  and  C9_12 
REMARK    3  A    between atoms: C9_12  and  S1_13 
REMARK    4  A    between atoms: S1_13  and  C10_14 
ROOT
ATOM      1  C9  <0> d           0.192   0.111  -4.876  0.00  0.00     0.180 C 
ENDROOT
BRANCH   1   2
ATOM      2  C8  <0> d           0.095  -0.653  -3.581  0.00  0.00     0.231 C 
ATOM      3  N1  <0> d          -0.010   0.011  -2.413  0.00  0.00    -0.326 N 
ATOM      4  H8  <0> d          -0.104   0.977  -2.411  0.00  0.00     0.169 HD
ATOM      5  O1  <0> d           0.112  -1.866  -3.590  0.00  0.00    -0.272 OA
BRANCH   3   6
ATOM      6  C3  <0> d           0.017  -0.692  -1.204  0.00  0.00     0.042 A 
ATOM      7  C2  <0> d          -0.583  -0.153  -0.073  0.00  0.00    -0.013 A 
ATOM      8  C1  <0> d          -1.263   1.190  -0.146  0.00  0.00     0.052 C 
ATOM      9  C7  <0> d          -0.550  -0.848   1.122  0.00  0.00     0.042 A 
ATOM     10  C6  <0> d           0.069  -2.084   1.188  0.00  0.00     0.024 A 
ATOM     11 Cl1  <0> d          -1.293  -0.173   2.538  0.00  0.00    -0.084 Cl
ATOM     12  C5  <0> d           0.667  -2.621   0.064  0.00  0.00     0.004 A 
ATOM     13  C4  <0> d           0.642  -1.929  -1.132  0.00  0.00     0.030 A 
ENDBRANCH   3   6
ENDBRANCH   1   2
BRANCH   1  14
ATOM     14  S1  <0> d           0.322  -1.057  -6.259  0.00  0.00    -0.112 SA
BRANCH  14  15
ATOM     15  C10 <0> d           0.428   0.008  -7.724  0.00  0.00     0.274 A 
ATOM     16  N5  <0> d           1.600   0.890  -7.621  0.00  0.00    -0.337 N 
ATOM     17  C12 <0> d           1.121   2.166  -7.635  0.00  0.00     0.163 A 
ATOM     18  C15 <0> d           3.002   0.478  -7.523  0.00  0.00     0.154 C 
ATOM     19  C11 <0> d          -0.359   2.108  -7.748  0.00  0.00     0.170 A 
ATOM     20  N3  <0> d           1.691   3.355  -7.572  0.00  0.00    -0.222 NA
ATOM     21  N2  <0> d          -0.749   0.880  -7.798  0.00  0.00    -0.244 NA
ATOM     22  C14 <0> d          -1.076   3.416  -7.780  0.00  0.00     0.300 A 
ATOM     23  N4  <0> d          -0.324   4.527  -7.704  0.00  0.00    -0.201 NA
ATOM     24  O2  <0> d          -2.289   3.474  -7.871  0.00  0.00    -0.263 OA
ATOM     25  C13 <0> d           0.981   4.472  -7.607  0.00  0.00     0.239 A 
ENDBRANCH  14  15
ENDBRANCH   1  14
TORSDOF 4
