REMARK  1 active torsions:
REMARK  status: ('A' for Active; 'I' for Inactive)
REMARK    1  A    between atoms: C6_8  and  C8_11 
REMARK       I    between atoms: C8_11  and  N2_13 
ROOT
ATOM      1  C8  <0> d           0.420  -1.473   3.418  0.00  0.00     0.243 C 
ATOM      2  O2  <0> d           1.187  -2.362   3.115  0.00  0.00    -0.271 OA
ATOM      3  N2  <0> d           0.104  -1.267   4.713  0.00  0.00    -0.348 N 
ATOM      4  C9  <0> d          -0.915  -0.271   5.038  0.00  0.00     0.135 C 
ATOM      5  C10 <0> d          -0.281   0.862   5.854  0.00  0.00     0.122 C 
ATOM      6  C11 <0> d          -0.161   0.411   7.292  0.00  0.00     0.219 C 
ATOM      7  O3  <0> d          -0.880   0.898   8.138  0.00  0.00    -0.274 OA
ATOM      8  N3  <0> d           0.734  -0.520   7.638  0.00  0.00    -0.359 N 
ATOM      9  C12 <0> d           1.620  -1.117   6.629  0.00  0.00     0.142 C 
ATOM     10  C13 <0> d           0.789  -2.053   5.736  0.00  0.00     0.145 C 
ATOM     11  H15 <0> d           0.799  -0.803   8.563  0.00  0.00     0.162 HD
ENDROOT
BRANCH   1  12
ATOM     12  C6  <0> d          -0.180  -0.597   2.349  0.00  0.00     0.190 C 
ATOM     13  N1  <0> d           0.751  -0.517   1.211  0.00  0.00    -0.320 N 
ATOM     14  C2  <0> d           0.070   0.072   0.028  0.00  0.00     0.081 C 
ATOM     15  C5  <0> d           2.023  -0.838   0.887  0.00  0.00     0.222 C 
ATOM     16  C1  <0> d          -0.014   1.599   0.076  0.00  0.00     0.051 C 
ATOM     17  S1  <0> d          -1.574  -0.745   0.124  0.00  0.00    -0.135 SA
ATOM     18  C3  <0> d           0.854  -0.449  -1.189  0.00  0.00     0.051 C 
ATOM     19  C7  <0> d          -1.542  -1.192   1.912  0.00  0.00     0.111 C 
ATOM     20  C4  <0> d           2.269  -0.620  -0.588  0.00  0.00     0.106 C 
ATOM     21  O1  <0> d           2.853  -1.245   1.672  0.00  0.00    -0.273 OA
ENDBRANCH   1  12
TORSDOF 1
