REMARK  6 active torsions:
REMARK  status: ('A' for Active; 'I' for Inactive)
REMARK    1  A    between atoms: C4_5  and  C6_7 
REMARK    2  A    between atoms: C6_7  and  N2_8 
REMARK    3  A    between atoms: N2_8  and  S1_9 
REMARK    4  A    between atoms: S1_9  and  C7_12 
REMARK    5  A    between atoms: C9_14  and  N4_19 
REMARK    6  A    between atoms: C12_17  and  N3_18 
ROOT
ATOM      1  S1  <0> d           1.790  -5.561   2.152  0.00  0.00     0.261 S 
ATOM      2  O1  <0> d           2.686  -6.552   1.669  0.00  0.00    -0.200 OA
ATOM      3  O2  <0> d           1.922  -4.978   3.441  0.00  0.00    -0.200 OA
ENDROOT
BRANCH   1   4
ATOM      4  N2  <0> d           1.831  -4.314   1.062  0.00  0.00    -0.315 N 
ATOM      5  H13 <0> d           2.417  -4.364   0.291  0.00  0.00     0.172 HD
BRANCH   4   6
ATOM      6  C6  <0> d           0.983  -3.137   1.263  0.00  0.00     0.138 C 
BRANCH   6   7
ATOM      7  C4  <0> d           1.469  -1.998   0.365  0.00  0.00     0.031 C 
ATOM      8  C3  <0> d           1.251  -2.358  -1.123  0.00  0.00     0.035 C 
ATOM      9  C2  <0> d           0.796  -1.013  -1.742  0.00  0.00     0.234 C 
ATOM     10  N1  <0> d          -0.051  -0.418  -0.677  0.00  0.00    -0.074 N 
ATOM     11  C1  <0> d          -0.145   1.037  -0.857  0.00  0.00     0.269 C 
ATOM     12  C5  <0> d           0.626  -0.732   0.600  0.00  0.00     0.240 C 
ATOM     13  H19 <0> d          -0.972  -0.831  -0.693  0.00  0.00     0.279 HD
ENDBRANCH   6   7
ENDBRANCH   4   6
ENDBRANCH   1   4
BRANCH   1  14
ATOM     14  C7  <0> d           0.176  -6.263   2.079  0.00  0.00     0.107 A 
ATOM     15  C12 <0> d          -0.267  -6.870   0.911  0.00  0.00     0.049 A 
ATOM     16  C11 <0> d          -1.538  -7.428   0.860  0.00  0.00     0.033 A 
ATOM     17  C10 <0> d          -2.362  -7.366   1.967  0.00  0.00     0.038 A 
ATOM     18  C9  <0> d          -1.921  -6.755   3.126  0.00  0.00     0.104 A 
ATOM     19  C8  <0> d          -0.654  -6.204   3.182  0.00  0.00     0.063 A 
BRANCH  15  20
ATOM     20  N3  <0> d           0.568  -6.926  -0.208  0.00  0.00    -0.398 N 
ATOM     21  H17 <0> d           1.419  -6.462  -0.201  0.00  0.00     0.156 HD
ATOM     22  H18 <0> d           0.295  -7.428  -0.992  0.00  0.00     0.156 HD
ENDBRANCH  15  20
BRANCH  18  23
ATOM     23  N4  <0> d          -2.807  -6.691   4.310  0.00  0.00    -0.116 N 
ATOM     24  O3  <0> d          -2.422  -6.157   5.325  0.00  0.00    -0.532 OA
ATOM     25  O4  <0> d          -3.915  -7.172   4.263  0.00  0.00    -0.532 OA
ENDBRANCH  18  23
ENDBRANCH   1  14
TORSDOF 6
