REMARK  5 active torsions:
REMARK  status: ('A' for Active; 'I' for Inactive)
REMARK    1  A    between atoms: C2_2  and  C3_3 
REMARK    2  A    between atoms: C3_3  and  C4_4 
REMARK    3  A    between atoms: C4_4  and  C13_17 
REMARK    4  A    between atoms: N1_8  and  C9_10 
REMARK    5  A    between atoms: C9_10  and  C10_11 
ROOT
ATOM      1  C4  <0> d           0.739  -2.027  -1.265  0.00  0.00     0.072 C 
ATOM      2  C5  <0> d          -0.697  -2.558  -1.260  0.00  0.00     0.024 C 
ATOM      3  C6  <0> d          -0.666  -4.087  -1.347  0.00  0.00     0.029 C 
ATOM      4  C7  <0> d           0.102  -4.505  -2.603  0.00  0.00     0.235 C 
ATOM      5  N1  <0> d           1.474  -3.989  -2.536  0.00  0.00    -0.063 N 
ATOM      6  C8  <0> d           1.455  -2.522  -2.524  0.00  0.00     0.255 C 
ATOM      7  H21 <0> d           1.918  -4.326  -1.694  0.00  0.00     0.280 HD
ENDROOT
BRANCH   5   8
ATOM      8  C9  <0> d           2.230  -4.458  -3.705  0.00  0.00     0.323 C 
BRANCH   8   9
ATOM      9  C10 <0> d           2.363  -5.958  -3.648  0.00  0.00     0.195 A 
ATOM     10  O1  <0> d           3.358  -6.646  -3.062  0.00  0.00    -0.276 OA
ATOM     11  C11 <0> d           3.078  -7.947  -3.248  0.00  0.00     0.165 A 
ATOM     12  N3  <0> d           1.966  -8.015  -3.923  0.00  0.00    -0.127 NA
ATOM     13  C12 <0> d           3.902  -9.114  -2.768  0.00  0.00     0.102 C 
ATOM     14  N2  <0> d           1.539  -6.826  -4.163  0.00  0.00    -0.125 NA
ENDBRANCH   8   9
ENDBRANCH   5   8
BRANCH   1  15
ATOM     15  C3  <0> d           0.718  -0.497  -1.257  0.00  0.00     0.022 C 
BRANCH  15  16
ATOM     16  C2  <0> d           0.002  -0.004   0.002  0.00  0.00    -0.003 C 
ATOM     17  C1  <0> d          -0.019   1.526   0.010  0.00  0.00     0.005 C 
ENDBRANCH  15  16
ENDBRANCH   1  15
BRANCH   1  18
ATOM     18  C13 <0> d           1.466  -2.527  -0.043  0.00  0.00     0.183 C 
ATOM     19  O2  <0> d           1.054  -2.245   1.069  0.00  0.00    -0.647 OA
ATOM     20  O3  <0> d           2.465  -3.215  -0.167  0.00  0.00    -0.647 OA
ENDBRANCH   1  18
TORSDOF 5
