REMARK  6 active torsions:
REMARK  status: ('A' for Active; 'I' for Inactive)
REMARK    1  A    between atoms: C8_9  and  C9_11 
REMARK    2  A    between atoms: C11_13  and  N2_18 
REMARK    3  A    between atoms: C14_16  and  O2_17 
REMARK       I    between atoms: N2_18  and  C15_19 
REMARK    4  A    between atoms: C15_19  and  C16_21 
REMARK    5  A    between atoms: C16_21  and  C17_22 
REMARK    6  A    between atoms: C17_22  and  N3_23 
ROOT
ATOM      1  C9  <0> d          -0.102  -5.510   2.338  0.00  0.00     0.052 A 
ATOM      2  C10 <0> d          -0.078  -6.718   1.639  0.00  0.00     0.048 A 
ATOM      3  C11 <0> d           0.122  -7.906   2.323  0.00  0.00     0.035 A 
ATOM      4  C12 <0> d           0.299  -7.896   3.702  0.00  0.00     0.032 A 
ATOM      5  C13 <0> d           0.276  -6.704   4.399  0.00  0.00     0.040 A 
ATOM      6  C14 <0> d           0.083  -5.507   3.726  0.00  0.00     0.080 A 
ENDROOT
BRANCH   3   7
ATOM      7  N2  <0> d           0.146  -9.120   1.624  0.00  0.00    -0.327 N 
ATOM      8  C15 <0> d           0.639  -9.166   0.370  0.00  0.00     0.223 C 
ATOM      9  O3  <0> d           1.149  -8.179  -0.117  0.00  0.00    -0.273 OA
ATOM     10  H11 <0> d          -0.191  -9.927   2.042  0.00  0.00     0.169 HD
BRANCH   8  11
ATOM     11  C16 <0> d           0.557 -10.443  -0.425  0.00  0.00     0.123 C 
BRANCH  11  12
ATOM     12  C17 <0> d           1.183 -10.226  -1.804  0.00  0.00     0.141 C 
BRANCH  12  13
ATOM     13  N3  <0> d           1.103 -11.468  -2.577  0.00  0.00    -0.315 N 
ATOM     14  C24 <0> d           0.093 -11.838  -3.389  0.00  0.00     0.222 A 
ATOM     15  O4  <0> d           0.370 -13.035  -3.931  0.00  0.00    -0.282 OA
ATOM     16  S1  <0> d          -1.322 -10.921  -3.687  0.00  0.00    -0.032 SA
ATOM     17  C23 <0> d           1.569 -13.466  -3.467  0.00  0.00     0.105 A 
ATOM     18  C18 <0> d           2.056 -12.486  -2.603  0.00  0.00     0.071 A 
ATOM     19  C22 <0> d           2.313 -14.613  -3.695  0.00  0.00     0.040 A 
ATOM     20  C19 <0> d           3.280 -12.660  -1.976  0.00  0.00     0.033 A 
ATOM     21  C20 <0> d           4.014 -13.807  -2.208  0.00  0.00     0.002 A 
ATOM     22  C21 <0> d           3.531 -14.780  -3.066  0.00  0.00     0.003 A 
ENDBRANCH  12  13
ENDBRANCH  11  12
ENDBRANCH   8  11
ENDBRANCH   3   7
BRANCH   1  23
ATOM     23  C8  <0> d          -0.315  -4.240   1.616  0.00  0.00     0.183 A 
ATOM     24  N1  <0> d          -0.350  -3.056   2.173  0.00  0.00    -0.221 NA
ATOM     25  C6  <0> d          -0.564  -2.125   1.208  0.00  0.00     0.094 A 
ATOM     26  C5  <0> d          -0.661  -2.820  -0.008  0.00  0.00     0.106 A 
ATOM     27  C7  <0> d          -0.684  -0.733   1.220  0.00  0.00     0.041 A 
ATOM     28  C4  <0> d          -0.882  -2.122  -1.185  0.00  0.00     0.040 A 
ATOM     29  O1  <0> d          -0.502  -4.130   0.287  0.00  0.00    -0.289 OA
ATOM     30  C3  <0> d          -1.004  -0.748  -1.157  0.00  0.00     0.009 A 
ATOM     31  C2  <0> d          -0.908  -0.057   0.042  0.00  0.00    -0.060 A 
ATOM     32  C1  <0> d          -1.044   1.444   0.054  0.00  0.00     0.048 C 
ENDBRANCH   1  23
BRANCH   6  33
ATOM     33  O2  <0> d           0.067  -4.335   4.412  0.00  0.00    -0.360 OA
ATOM     34  H10 <0> d          -0.810  -4.076   4.728  0.00  0.00     0.217 HD
ENDBRANCH   6  33
TORSDOF 6
