REMARK  4 active torsions:
REMARK  status: ('A' for Active; 'I' for Inactive)
REMARK    1  A    between atoms: C3_3  and  O2_20 
REMARK    2  A    between atoms: C6_6  and  C7_7 
REMARK    3  A    between atoms: C7_7  and  N1_8 
REMARK    4  A    between atoms: C12_14  and  N3_19 
ROOT
ATOM      1  N1  <0> d           0.017  -2.762  -0.014  0.00  0.00    -0.304 N 
ATOM      2  C8  <0> d          -1.128  -2.028   0.001  0.00  0.00     0.213 A 
ATOM      3  N2  <0> d          -1.144  -0.730   0.009  0.00  0.00    -0.243 NA
ATOM      4  C9  <0> d           0.002  -0.004   0.002  0.00  0.00     0.074 A 
ATOM      5  C10 <0> d          -0.017   1.393   0.010  0.00  0.00     0.035 A 
ATOM      6  C11 <0> d           1.157   2.089   0.002  0.00  0.00     0.031 A 
ATOM      7  C12 <0> d           2.384   1.426  -0.013  0.00  0.00     0.026 A 
ATOM      8  C13 <0> d           2.432   0.042  -0.021  0.00  0.00     0.048 A 
ATOM      9  C14 <0> d           1.241  -0.682  -0.013  0.00  0.00     0.063 A 
ATOM     10  C15 <0> d           1.225  -2.152  -0.022  0.00  0.00     0.261 A 
ATOM     11  O1  <0> d           2.258  -2.796  -0.035  0.00  0.00    -0.267 OA
ENDROOT
BRANCH   1  12
ATOM     12  C7  <0> d          -0.059  -4.225  -0.022  0.00  0.00     0.171 C 
BRANCH  12  13
ATOM     13  C6  <0> d          -0.071  -4.735   1.396  0.00  0.00    -0.040 A 
ATOM     14  C1  <0> d           1.119  -5.035   2.032  0.00  0.00     0.011 A 
ATOM     15  C2  <0> d           1.111  -5.498   3.333  0.00  0.00     0.037 A 
ATOM     16  C3  <0> d          -0.093  -5.672   3.999  0.00  0.00     0.065 A 
ATOM     17  C4  <0> d          -1.287  -5.375   3.357  0.00  0.00     0.037 A 
ATOM     18  C5  <0> d          -1.273  -4.907   2.057  0.00  0.00     0.011 A 
BRANCH  16  19
ATOM     19  O2  <0> d          -0.104  -6.131   5.278  0.00  0.00    -0.361 OA
ATOM     20  H13 <0> d          -0.153  -7.094   5.349  0.00  0.00     0.217 HD
ENDBRANCH  16  19
ENDBRANCH  12  13
ENDBRANCH   1  12
BRANCH   7  21
ATOM     21  N3  <0> d           3.572   2.162  -0.020  0.00  0.00    -0.399 N 
ATOM     22  H11 <0> d           4.427   1.703  -0.031  0.00  0.00     0.156 HD
ATOM     23  H12 <0> d           3.542   3.131  -0.015  0.00  0.00     0.156 HD
ENDBRANCH   7  21
TORSDOF 4
