REMARK  3 active torsions:
REMARK  status: ('A' for Active; 'I' for Inactive)
REMARK    1  A    between atoms: C9_10  and  N1_11 
REMARK       I    between atoms: N1_11  and  C10_12 
REMARK    2  A    between atoms: C10_12  and  C11_14 
REMARK       I    between atoms: C11_14  and  N2_16 
REMARK    3  A    between atoms: N2_16  and  C12_17 
ROOT
ATOM      1  C12 <0> d          -6.978  -1.853  -2.106  0.00  0.00     0.036 A 
ATOM      2  C13 <0> d          -7.792  -0.730  -2.016  0.00  0.00     0.029 A 
ATOM      3  C14 <0> d          -8.802  -0.527  -2.938  0.00  0.00     0.004 A 
ATOM      4  C15 <0> d          -9.008  -1.438  -3.954  0.00  0.00     0.021 A 
ATOM      5  C16 <0> d          -8.196  -2.569  -4.053  0.00  0.00     0.019 A 
ATOM      6  C17 <0> d          -7.174  -2.771  -3.126  0.00  0.00     0.050 A 
ATOM      7  C18 <0> d          -8.409  -3.516  -5.106  0.00  0.00    -0.078 C 
ATOM      8  C19 <0> d          -8.583  -4.292  -5.969  0.00  0.00     0.018 C 
ENDROOT
BRANCH   1   9
ATOM      9  N2  <0> d          -5.959  -2.054  -1.171  0.00  0.00    -0.319 N 
ATOM     10  C11 <0> d          -4.796  -2.617  -1.553  0.00  0.00     0.314 C 
ATOM     11  O3  <0> d          -4.663  -3.026  -2.688  0.00  0.00    -0.262 OA
ATOM     12  H11 <0> d          -6.088  -1.788  -0.247  0.00  0.00     0.169 HD
BRANCH  10  13
ATOM     13  C10 <0> d          -3.669  -2.738  -0.580  0.00  0.00     0.310 C 
ATOM     14  N1  <0> d          -2.506  -3.301  -0.962  0.00  0.00    -0.344 N 
ATOM     15  H10 <0> d          -2.400  -3.628  -1.869  0.00  0.00     0.163 HD
ATOM     16  O2  <0> d          -3.801  -2.329   0.555  0.00  0.00    -0.262 OA
BRANCH  14  17
ATOM     17  C9  <0> d          -1.401  -3.420  -0.008  0.00  0.00     0.121 C 
ATOM     18  C4  <0> d          -0.606  -2.141   0.009  0.00  0.00    -0.003 A 
ATOM     19  C3  <0> d          -1.084  -0.818   0.027  0.00  0.00     0.044 A 
ATOM     20  C5  <0> d           0.742  -2.077   0.009  0.00  0.00     0.062 A 
ATOM     21  C2  <0> d          -0.000  -0.017   0.035  0.00  0.00     0.050 A 
ATOM     22  C1  <0> d          -0.020   1.490   0.055  0.00  0.00     0.076 C 
ATOM     23  O1  <0> d           1.101  -0.788   0.018  0.00  0.00    -0.319 OA
ATOM     24  C6  <0> d           1.641  -3.289  -0.004  0.00  0.00     0.074 C 
ATOM     25  C7  <0> d           0.812  -4.513   0.401  0.00  0.00    -0.040 C 
ATOM     26  C8  <0> d          -0.470  -4.562  -0.434  0.00  0.00     0.039 C 
ATOM     27  C20 <0> d           1.628  -5.785   0.159  0.00  0.00     0.015 C 
ATOM     28  C21 <0> d           0.450  -4.416   1.885  0.00  0.00     0.015 C 
ENDBRANCH  14  17
ENDBRANCH  10  13
ENDBRANCH   1   9
TORSDOF 3
