REMARK  4 active torsions:
REMARK  status: ('A' for Active; 'I' for Inactive)
REMARK    1  A    between atoms: O1_2  and  C2_3 
REMARK    2  A    between atoms: C5_6  and  C9_11 
REMARK    3  A    between atoms: C7_8  and  O2_9 
REMARK    4  A    between atoms: C13_15  and  C16_22 
ROOT
ATOM      1  C9  <0> d           3.814   2.949   0.589  0.00  0.00     0.031 C 
ATOM      2  C10 <0> d           3.227   3.100  -0.815  0.00  0.00     0.068 C 
ATOM      3  C11 <0> d           1.802   2.600  -0.828  0.00  0.00     0.040 C 
ATOM      4  C12 <0> d           1.407   1.607  -0.003  0.00  0.00     0.041 C 
ATOM      5  C13 <0> d          -0.013   1.086   0.008  0.00  0.00     0.200 C 
ATOM      6  N1  <0> d          -0.730   1.566  -1.166  0.00  0.00    -0.084 N 
ATOM      7  C14 <0> d          -0.274   2.563  -1.964  0.00  0.00     0.725 A 
ATOM      8  N2  <0> d          -1.150   2.754  -2.911  0.00  0.00    -0.054 NA
ATOM      9  C15 <0> d          -2.168   1.902  -2.757  0.00  0.00     0.275 A 
ATOM     10  N3  <0> d          -1.950   1.156  -1.702  0.00  0.00    -0.149 NA
ATOM     11  N4  <0> d           0.934   3.194  -1.713  0.00  0.00    -0.191 N 
ATOM     12  C21 <0> d           2.314   1.010   0.893  0.00  0.00     0.160 C 
ATOM     13  O3  <0> d           1.934   0.103   1.607  0.00  0.00    -0.293 OA
ATOM     14  C22 <0> d           3.742   1.470   0.985  0.00  0.00     0.093 C 
ATOM     15  H15 <0> d           1.161   4.029  -2.151  0.00  0.00     0.184 HD
ENDROOT
BRANCH   1  16
ATOM     16  C5  <0> d           5.250   3.407   0.592  0.00  0.00    -0.050 A 
ATOM     17  C4  <0> d           6.175   2.781  -0.223  0.00  0.00     0.010 A 
ATOM     18  C3  <0> d           7.493   3.198  -0.225  0.00  0.00     0.040 A 
ATOM     19  C2  <0> d           7.889   4.245   0.591  0.00  0.00     0.101 A 
ATOM     20  C7  <0> d           6.959   4.875   1.412  0.00  0.00     0.102 A 
ATOM     21  C6  <0> d           5.638   4.456   1.405  0.00  0.00     0.047 A 
BRANCH  19  22
ATOM     22  O1  <0> d           9.186   4.656   0.591  0.00  0.00    -0.353 OA
ATOM     23  C1  <0> d          10.086   3.963  -0.277  0.00  0.00     0.210 C 
ENDBRANCH  19  22
BRANCH  20  24
ATOM     24  O2  <0> d           7.343   5.903   2.215  0.00  0.00    -0.353 OA
ATOM     25  C8  <0> d           6.334   6.502   3.030  0.00  0.00     0.210 C 
ENDBRANCH  20  24
ENDBRANCH   1  16
BRANCH   5  26
ATOM     26  C16 <0> d          -0.713   1.569   1.252  0.00  0.00    -0.025 A 
ATOM     27  C20 <0> d          -1.221   0.669   2.176  0.00  0.00     0.029 A 
ATOM     28  C19 <0> d          -1.857   1.150   3.305  0.00  0.00     0.117 A 
ATOM     29  N5  <0> d          -1.983   2.447   3.507  0.00  0.00    -0.273 NA
ATOM     30  C18 <0> d          -1.513   3.331   2.650  0.00  0.00     0.117 A 
ATOM     31  C17 <0> d          -0.861   2.925   1.501  0.00  0.00     0.029 A 
ENDBRANCH   5  26
TORSDOF 4
