REMARK  3 active torsions:
REMARK  status: ('A' for Active; 'I' for Inactive)
REMARK    1  A    between atoms: C6_6  and  N1_7 
REMARK    2  A    between atoms: C9_11  and  C10_12 
REMARK    3  A    between atoms: C15_17  and  O2_18 
ROOT
ATOM      1  N1  <0> d          -1.206  -0.721   0.026  0.00  0.00    -0.256 N 
ATOM      2  C7  <0> d          -1.192  -2.042   0.066  0.00  0.00     0.271 A 
ATOM      3  O1  <0> d          -0.165  -2.661   0.273  0.00  0.00    -0.266 OA
ATOM      4  C8  <0> d          -2.477  -2.733  -0.152  0.00  0.00     0.077 A 
ATOM      5  C9  <0> d          -2.747  -4.063  -0.165  0.00  0.00     0.039 C 
ATOM      6  S1  <0> d          -3.582  -1.351  -0.395  0.00  0.00    -0.046 SA
ATOM      7  C16 <0> d          -2.386  -0.038  -0.205  0.00  0.00     0.174 A 
ATOM      8  N2  <0> d          -2.579   1.250  -0.270  0.00  0.00    -0.277 NA
ATOM      9  H9  <0> d          -3.467   1.600  -0.440  0.00  0.00     0.189 HD
ENDROOT
BRANCH   5  10
ATOM     10  C10 <0> d          -4.137  -4.529  -0.239  0.00  0.00     0.000 A 
ATOM     11  C15 <0> d          -4.439  -5.761  -0.842  0.00  0.00     0.076 A 
ATOM     12  C14 <0> d          -5.753  -6.193  -0.902  0.00  0.00     0.039 A 
ATOM     13  C13 <0> d          -6.765  -5.410  -0.380  0.00  0.00     0.026 A 
ATOM     14  C12 <0> d          -6.475  -4.190   0.212  0.00  0.00     0.035 A 
ATOM     15  C11 <0> d          -5.171  -3.745   0.285  0.00  0.00     0.038 A 
ATOM     16 Cl1  <0> d          -7.757  -3.218   0.863  0.00  0.00    -0.084 Cl
BRANCH  11  17
ATOM     17  O2  <0> d          -3.445  -6.528  -1.359  0.00  0.00    -0.360 OA
ATOM     18  H8  <0> d          -3.063  -7.155  -0.729  0.00  0.00     0.217 HD
ENDBRANCH  11  17
ENDBRANCH   5  10
BRANCH   1  19
ATOM     19  C6  <0> d          -0.018  -0.006   0.226  0.00  0.00     0.046 A 
ATOM     20  C1  <0> d           0.115   0.829   1.327  0.00  0.00     0.032 A 
ATOM     21  C2  <0> d           1.288   1.532   1.522  0.00  0.00     0.028 A 
ATOM     22  C3  <0> d           2.330   1.405   0.622  0.00  0.00     0.055 A 
ATOM     23  C4  <0> d           2.201   0.572  -0.477  0.00  0.00     0.058 A 
ATOM     24 Cl3  <0> d           3.803   2.291   0.871  0.00  0.00    -0.083 Cl
ATOM     25  C5  <0> d           1.030  -0.133  -0.677  0.00  0.00     0.055 A 
ATOM     26 Cl2  <0> d           3.511   0.415  -1.605  0.00  0.00    -0.082 Cl
ENDBRANCH   1  19
TORSDOF 3
