REMARK  5 active torsions:
REMARK  status: ('A' for Active; 'I' for Inactive)
REMARK    1  A    between atoms: C2_2  and  C4_4 
REMARK    2  A    between atoms: C4_4  and  C5_5 
REMARK    3  A    between atoms: C5_5  and  C6_6 
REMARK    4  A    between atoms: C5_5  and  N1_8 
REMARK    5  A    between atoms: N1_8  and  C7_9 
ROOT
ATOM      1  C7  <0> d           3.334   3.627   1.179  0.00  0.00     0.109 C 
ATOM      2  C8  <0> d           3.454   3.449   3.583  0.00  0.00     0.028 C 
ATOM      3  C9  <0> d           4.923   3.053   3.442  0.00  0.00     0.070 C 
ATOM      4  C10 <0> d           5.534   3.787   2.278  0.00  0.00    -0.031 A 
ATOM      5  C11 <0> d           4.750   4.060   1.171  0.00  0.00     0.015 A 
ATOM      6  C12 <0> d           5.285   4.750   0.070  0.00  0.00     0.017 A 
ATOM      7  C13 <0> d           6.585   5.148   0.068  0.00  0.00     0.013 A 
ATOM      8  C14 <0> d           7.408   4.878   1.175  0.00  0.00    -0.025 A 
ATOM      9  C15 <0> d           6.875   4.189   2.296  0.00  0.00    -0.019 A 
ATOM     10  C16 <0> d           7.704   3.925   3.401  0.00  0.00     0.013 A 
ATOM     11  C17 <0> d           9.003   4.329   3.380  0.00  0.00     0.001 A 
ATOM     12  C18 <0> d           9.527   5.004   2.279  0.00  0.00     0.001 A 
ATOM     13  C19 <0> d           8.755   5.278   1.192  0.00  0.00     0.012 A 
ATOM     14  C20 <0> d           3.370   4.896   4.074  0.00  0.00     0.038 C 
ATOM     15  C21 <0> d           2.782   2.532   4.607  0.00  0.00     0.038 C 
ATOM     16  N2  <0> d           2.676   3.309   2.303  0.00  0.00    -0.367 N 
ATOM     17  H26 <0> d           1.700   2.990   2.292  0.00  0.00     0.162 HD
ENDROOT
BRANCH   1  18
ATOM     18  N1  <0> d           2.634   3.529  -0.004  0.00  0.00    -0.361 N 
ATOM     19  H11 <0> d           3.067   3.747  -0.844  0.00  0.00     0.162 HD
BRANCH  18  20
ATOM     20  C5  <0> d           1.235   3.094   0.007  0.00  0.00     0.184 C 
BRANCH  20  21
ATOM     21  C4  <0> d           0.522   3.639  -1.233  0.00  0.00     0.040 C 
BRANCH  21  22
ATOM     22  C2  <0> d           0.472   5.166  -1.163  0.00  0.00    -0.020 C 
ATOM     23  C1  <0> d          -0.128   5.717  -2.458  0.00  0.00     0.009 C 
ATOM     24  C3  <0> d          -0.395   5.594   0.023  0.00  0.00     0.009 C 
ENDBRANCH  21  22
ENDBRANCH  20  21
BRANCH  20  25
ATOM     25  C6  <0> d           1.177   1.588  -0.001  0.00  0.00     0.196 C 
ATOM     26  O1  <0> d           2.199   0.944  -0.014  0.00  0.00    -0.646 OA
ATOM     27  O2  <0> d          -0.011   0.963   0.007  0.00  0.00    -0.646 OA
ENDBRANCH  20  25
ENDBRANCH  18  20
ENDBRANCH   1  18
TORSDOF 5
