REMARK  5 active torsions:
REMARK  status: ('A' for Active; 'I' for Inactive)
REMARK    1  A    between atoms: S1_2  and  C2_3 
REMARK    2  A    between atoms: P1_10  and  S2_19 
REMARK    3  A    between atoms: C11_17  and  O3_18 
REMARK    4  A    between atoms: S2_19  and  O6_22 
REMARK    5  A    between atoms: O6_22  and  C12_23 
ROOT
ATOM      1  C2  <0> d           0.848  -0.411  -1.489  0.00  0.00     0.029 C 
ATOM      2  C3  <0> d           1.300   0.557  -2.296  0.00  0.00    -0.000 C 
ATOM      3  C4  <0> d           2.010   0.187  -3.570  0.00  0.00     0.021 C 
ATOM      4  C5  <0> d           1.936   1.328  -4.576  0.00  0.00     0.047 C 
ATOM      5  C6  <0> d           0.486   1.578  -5.009  0.00  0.00     0.238 C 
ATOM      6  C7  <0> d           0.514   2.716  -6.038  0.00  0.00     0.214 C 
ATOM      7  O1  <0> d          -0.830   3.029  -6.446  0.00  0.00    -0.303 OA
ATOM      8  P1  <0> d          -1.780   1.796  -6.921  0.00  0.00     0.454 P 
ATOM      9  O2  <0> d          -1.476   1.423  -8.320  0.00  0.00    -0.245 OA
ATOM     10  N1  <0> d          -1.413   0.550  -5.904  0.00  0.00    -0.162 N 
ATOM     11  N2  <0> d          -0.086   0.357  -5.580  0.00  0.00     0.019 N 
ATOM     12  C8  <0> d          -0.067  -0.730  -4.589  0.00  0.00     0.272 C 
ATOM     13  C9  <0> d           1.353  -1.054  -4.181  0.00  0.00     0.046 C 
ATOM     14  C10 <0> d           1.302  -2.144  -3.136  0.00  0.00     0.018 C 
ATOM     15  C11 <0> d           1.073  -1.826  -1.860  0.00  0.00     0.078 C 
ATOM     16  H12 <0> d          -2.106  -0.027  -5.547  0.00  0.00     0.198 HD
ATOM     17  H22 <0> d           0.432   0.091  -6.404  0.00  0.00     0.309 HD
ENDROOT
BRANCH   8  18
ATOM     18  S2  <0> d          -3.824   2.328  -6.731  0.00  0.00     0.372 S 
ATOM     19  O4  <0> d          -4.575   1.263  -7.297  0.00  0.00    -0.186 OA
ATOM     20  O5  <0> d          -4.007   2.762  -5.390  0.00  0.00    -0.186 OA
BRANCH  18  21
ATOM     21  O6  <0> d          -4.057   3.543  -7.617  0.00  0.00    -0.225 OA
BRANCH  21  22
ATOM     22  C12 <0> d          -4.105   3.258  -8.945  0.00  0.00     0.089 A 
ATOM     23  C17 <0> d          -5.316   2.943  -9.544  0.00  0.00     0.038 A 
ATOM     24  C16 <0> d          -5.364   2.659 -10.895  0.00  0.00     0.003 A 
ATOM     25  C15 <0> d          -4.205   2.676 -11.648  0.00  0.00     0.000 A 
ATOM     26  C14 <0> d          -2.996   2.985 -11.052  0.00  0.00     0.003 A 
ATOM     27  C13 <0> d          -2.943   3.276  -9.703  0.00  0.00     0.038 A 
ENDBRANCH  21  22
ENDBRANCH  18  21
ENDBRANCH   8  18
BRANCH  15  28
ATOM     28  O3  <0> d           1.039  -2.795  -0.907  0.00  0.00    -0.360 OA
ATOM     29  H16 <0> d           0.863  -2.464  -0.016  0.00  0.00     0.217 HD
ENDBRANCH  15  28
BRANCH   1  30
ATOM     30  S1  <0> d           0.002  -0.004   0.002  0.00  0.00    -0.132 SA
ATOM     31  C1  <0> d          -0.022   1.810   0.012  0.00  0.00     0.095 C 
ENDBRANCH   1  30
TORSDOF 5
