REMARK  11 active torsions:
REMARK  status: ('A' for Active; 'I' for Inactive)
REMARK    1  A    between atoms: C2_2  and  C3_3 
REMARK    2  A    between atoms: C2_2  and  O2_28 
REMARK    3  A    between atoms: C3_3  and  N1_4 
REMARK    4  A    between atoms: N1_4  and  C4_5 
REMARK    5  A    between atoms: C4_5  and  C5_6 
REMARK    6  A    between atoms: C5_6  and  N2_7 
REMARK    7  A    between atoms: N2_7  and  C6_8 
REMARK    8  A    between atoms: C6_8  and  C7_9 
REMARK    9  A    between atoms: C16_18  and  O1_19 
REMARK   10  A    between atoms: O1_19  and  C17_20 
REMARK   11  A    between atoms: C17_20  and  C18_21 
ROOT
ATOM      1  C7  <0> d          -0.112   5.253   0.029  0.00  0.00     0.012 A 
ATOM      2  C8  <0> d          -0.095   3.849   0.023  0.00  0.00    -0.015 A 
ATOM      3  C9  <0> d          -1.288   3.105   0.030  0.00  0.00     0.013 A 
ATOM      4  C10 <0> d          -1.235   1.746   0.017  0.00  0.00     0.001 A 
ATOM      5  C11 <0> d          -0.013   1.076   0.008  0.00  0.00     0.001 A 
ATOM      6  C12 <0> d           1.163   1.762   0.000  0.00  0.00     0.012 A 
ATOM      7  C13 <0> d           1.148   3.167   0.008  0.00  0.00    -0.025 A 
ATOM      8  C14 <0> d           2.342   3.909  -0.000  0.00  0.00     0.015 A 
ATOM      9  C15 <0> d           2.292   5.268   0.006  0.00  0.00     0.038 A 
ATOM     10  C16 <0> d           1.067   5.942   0.021  0.00  0.00     0.078 A 
ENDROOT
BRANCH   1  11
ATOM     11  C6  <0> d          -1.423   5.995   0.046  0.00  0.00     0.274 C 
BRANCH  11  12
ATOM     12  N2  <0> d          -1.835   6.230   1.436  0.00  0.00    -0.070 N 
ATOM     13  H12 <0> d          -1.057   6.822   1.940  0.00  0.00     0.277 HD
ATOM     14  H28 <0> d          -1.942   5.258   1.941  0.00  0.00     0.277 HD
BRANCH  12  15
ATOM     15  C5  <0> d          -3.113   6.953   1.491  0.00  0.00     0.262 C 
BRANCH  15  16
ATOM     16  C4  <0> d          -3.509   7.178   2.952  0.00  0.00     0.297 C 
BRANCH  16  17
ATOM     17  N1  <0> d          -4.786   7.901   3.007  0.00  0.00     0.087 N 
ATOM     18  H7  <0> d          -5.553   7.303   2.494  0.00  0.00     0.316 HD
BRANCH  17  19
ATOM     19  C3  <0> d          -5.199   8.136   4.398  0.00  0.00     0.300 C 
BRANCH  19  20
ATOM     20  C2  <0> d          -6.530   8.890   4.414  0.00  0.00     0.142 C 
ATOM     21  C1  <0> d          -6.960   9.134   5.862  0.00  0.00     0.041 C 
BRANCH  20  22
ATOM     22  O2  <0> d          -6.377  10.143   3.745  0.00  0.00    -0.394 OA
ATOM     23  H27 <0> d          -6.070  10.168   2.689  0.00  0.00     0.210 HD
ENDBRANCH  20  22
ENDBRANCH  19  20
ENDBRANCH  17  19
ENDBRANCH  16  17
ENDBRANCH  15  16
ENDBRANCH  12  15
ENDBRANCH  11  12
ENDBRANCH   1  11
BRANCH  10  24
ATOM     24  O1  <0> d           1.050   7.301   0.028  0.00  0.00    -0.346 OA
BRANCH  24  25
ATOM     25  C17 <0> d           2.315   7.966   0.019  0.00  0.00     0.214 C 
BRANCH  25  26
ATOM     26  C18 <0> d           2.098   9.457   0.029  0.00  0.00    -0.034 A 
ATOM     27  C23 <0> d           2.011  10.135   1.231  0.00  0.00     0.012 A 
ATOM     28  C22 <0> d           1.812  11.502   1.241  0.00  0.00     0.043 A 
ATOM     29  C21 <0> d           1.702  12.194   0.046  0.00  0.00     0.116 A 
ATOM     30  C20 <0> d           1.790  11.514  -1.157  0.00  0.00     0.043 A 
ATOM     31  F1  <0> d           1.508  13.531   0.055  0.00  0.00    -0.206 F 
ATOM     32  C19 <0> d           1.993  10.148  -1.164  0.00  0.00     0.012 A 
ENDBRANCH  25  26
ENDBRANCH  24  25
ENDBRANCH  10  24
TORSDOF 11
