REMARK  5 active torsions:
REMARK  status: ('A' for Active; 'I' for Inactive)
REMARK    1  A    between atoms: C5_6  and  C6_7 
REMARK    2  A    between atoms: C8_10  and  C9_12 
REMARK    3  A    between atoms: C9_12  and  C10_13 
REMARK    4  A    between atoms: C10_13  and  C11_14 
REMARK       I    between atoms: C11_14  and  N3_16 
REMARK    5  A    between atoms: N3_16  and  C12_17 
ROOT
ATOM      1  C9  <0> d          -2.564  -4.276   0.216  0.00  0.00     0.076 C 
ENDROOT
BRANCH   1   2
ATOM      2  C8  <0> d          -2.380  -2.784   0.114  0.00  0.00     0.076 A 
ATOM      3  S1  <0> d          -3.563  -1.595  -0.019  0.00  0.00    -0.084 SA
ATOM      4  C7  <0> d          -2.483  -0.174  -0.082  0.00  0.00     0.084 A 
ATOM      5  C6  <0> d          -1.259  -0.783   0.010  0.00  0.00     0.074 A 
ATOM      6  N2  <0> d          -1.262  -2.106   0.102  0.00  0.00    -0.245 NA
BRANCH   5   7
ATOM      7  C5  <0> d           0.002  -0.004   0.002  0.00  0.00    -0.004 A 
ATOM      8  C1  <0> d          -0.017   1.394   0.010  0.00  0.00     0.033 A 
ATOM      9  C2  <0> d           1.180   2.079   0.002  0.00  0.00     0.117 A 
ATOM     10  N1  <0> d           2.330   1.433  -0.013  0.00  0.00    -0.273 NA
ATOM     11  C3  <0> d           2.392   0.115  -0.021  0.00  0.00     0.117 A 
ATOM     12  C4  <0> d           1.244  -0.648  -0.014  0.00  0.00     0.033 A 
ENDBRANCH   5   7
ENDBRANCH   1   2
BRANCH   1  13
ATOM     13  C10 <0> d          -2.682  -4.675   1.689  0.00  0.00     0.109 C 
BRANCH  13  14
ATOM     14  C11 <0> d          -2.866  -6.168   1.791  0.00  0.00     0.218 C 
ATOM     15  O1  <0> d          -2.899  -6.845   0.786  0.00  0.00    -0.274 OA
ATOM     16  N3  <0> d          -2.993  -6.749   3.001  0.00  0.00    -0.356 N 
ATOM     17  H11 <0> d          -2.966  -6.207   3.805  0.00  0.00     0.162 HD
BRANCH  16  18
ATOM     18  C12 <0> d          -3.172  -8.200   3.100  0.00  0.00     0.099 C 
ATOM     19  C15 <0> d          -2.673  -8.697   4.487  0.00  0.00     0.165 C 
ATOM     20  S2  <0> d          -3.538 -10.319   4.596  0.00  0.00     0.146 S 
ATOM     21  C14 <0> d          -4.899 -10.020   3.396  0.00  0.00     0.142 C 
ATOM     22  O2  <0> d          -2.685 -11.334   4.083  0.00  0.00    -0.228 OA
ATOM     23  O3  <0> d          -4.092 -10.463   5.896  0.00  0.00    -0.228 OA
ATOM     24  C13 <0> d          -4.665  -8.549   2.976  0.00  0.00     0.041 C 
ENDBRANCH  16  18
ENDBRANCH  13  14
ENDBRANCH   1  13
TORSDOF 5
