REMARK  5 active torsions:
REMARK  status: ('A' for Active; 'I' for Inactive)
REMARK    1  A    between atoms: C2_2  and  C4_4 
REMARK    2  A    between atoms: C4_4  and  O1_5 
REMARK    3  A    between atoms: O1_5  and  C5_6 
REMARK    4  A    between atoms: C8_9  and  C12_14 
REMARK    5  A    between atoms: C10_11  and  O2_12 
ROOT
ATOM      1  C5  <0> d           0.512  -0.113   0.824  0.00  0.00     0.102 A 
ATOM      2  C6  <0> d           1.576  -0.983   1.032  0.00  0.00     0.040 A 
ATOM      3  C7  <0> d           1.437  -2.324   0.760  0.00  0.00     0.014 A 
ATOM      4  C8  <0> d           0.217  -2.817   0.271  0.00  0.00    -0.032 A 
ATOM      5  C9  <0> d          -0.856  -1.937   0.062  0.00  0.00     0.051 A 
ATOM      6  C10 <0> d          -0.707  -0.595   0.343  0.00  0.00     0.102 A 
ENDROOT
BRANCH   4   7
ATOM      7  C12 <0> d           0.065  -4.242  -0.020  0.00  0.00     0.034 C 
ATOM      8  C13 <0> d           1.049  -4.913  -0.720  0.00  0.00     0.101 A 
ATOM      9  C16 <0> d           1.042  -6.384  -0.841  0.00  0.00     0.263 A 
ATOM     10  C14 <0> d           2.151  -4.190  -1.385  0.00  0.00     0.263 A 
ATOM     11  N2  <0> d           2.036  -6.970  -1.540  0.00  0.00    -0.299 N 
ATOM     12  O4  <0> d           0.165  -7.050  -0.324  0.00  0.00    -0.267 OA
ATOM     13  C15 <0> d           3.009  -6.249  -2.114  0.00  0.00     0.181 A 
ATOM     14  H18 <0> d           2.047  -7.936  -1.629  0.00  0.00     0.171 HD
ATOM     15  N1  <0> d           3.079  -4.913  -2.046  0.00  0.00    -0.299 N 
ATOM     16  S1  <0> d           4.228  -7.081  -2.982  0.00  0.00    -0.040 SA
ATOM     17  H17 <0> d           3.812  -4.454  -2.486  0.00  0.00     0.171 HD
ATOM     18  O3  <0> d           2.223  -2.977  -1.335  0.00  0.00    -0.267 OA
ENDBRANCH   4   7
BRANCH   6  19
ATOM     19  O2  <0> d          -1.746   0.261   0.147  0.00  0.00    -0.353 OA
ATOM     20  C11 <0> d          -2.963  -0.301  -0.347  0.00  0.00     0.210 C 
ENDBRANCH   6  19
BRANCH   1  21
ATOM     21  O1  <0> d           0.656   1.209   1.096  0.00  0.00    -0.348 OA
BRANCH  21  22
ATOM     22  C4  <0> d           1.928   1.635   1.591  0.00  0.00     0.179 C 
BRANCH  22  23
ATOM     23  C2  <0> d           1.900   3.144   1.837  0.00  0.00     0.002 C 
ATOM     24  C1  <0> d           0.904   3.461   2.954  0.00  0.00     0.011 C 
ATOM     25  C3  <0> d           3.295   3.620   2.247  0.00  0.00     0.011 C 
ENDBRANCH  22  23
ENDBRANCH  21  22
ENDBRANCH   1  21
TORSDOF 5
