REMARK  4 active torsions:
REMARK  status: ('A' for Active; 'I' for Inactive)
REMARK    1  A    between atoms: N1_11  and  C11_14 
REMARK    2  A    between atoms: C11_14  and  C12_15 
REMARK       I    between atoms: C12_15  and  N2_17 
REMARK    3  A    between atoms: N2_17  and  C13_18 
REMARK    4  A    between atoms: C13_18  and  C14_19 
ROOT
ATOM      1  C1  <0> d          -0.019   1.526   0.010  0.00  0.00     0.026 C 
ATOM      2  C2  <0> d           0.002  -0.004   0.002  0.00  0.00     0.045 C 
ATOM      3  C3  <0> d          -1.410  -0.632   0.090  0.00  0.00     0.020 C 
ATOM      4  C4  <0> d          -1.232  -1.978   0.818  0.00  0.00     0.016 C 
ATOM      5  C5  <0> d           0.279  -2.095   1.133  0.00  0.00     0.087 C 
ATOM      6  C6  <0> d           0.737  -0.613   1.230  0.00  0.00    -0.020 C 
ATOM      7  C7  <0> d           2.255  -0.492   1.081  0.00  0.00     0.017 C 
ATOM      8  C8  <0> d           0.259   0.029   2.534  0.00  0.00     0.017 C 
ATOM      9  C9  <0> d           0.943  -2.678  -0.102  0.00  0.00     0.231 C 
ATOM     10  O1  <0> d           1.316  -3.831  -0.107  0.00  0.00    -0.272 OA
ATOM     11  N1  <0> d           1.116  -1.905  -1.190  0.00  0.00    -0.279 N 
ATOM     12  C10 <0> d           0.688  -0.582  -1.223  0.00  0.00     0.236 C 
ATOM     13  O2  <0> d           0.821   0.092  -2.222  0.00  0.00    -0.272 OA
ENDROOT
BRANCH  11  14
ATOM     14  C11 <0> d           1.806  -2.467  -2.354  0.00  0.00     0.237 C 
BRANCH  14  15
ATOM     15  C12 <0> d           0.800  -3.112  -3.272  0.00  0.00     0.236 C 
ATOM     16  O3  <0> d          -0.378  -3.105  -2.982  0.00  0.00    -0.272 OA
ATOM     17  N2  <0> d           1.208  -3.698  -4.415  0.00  0.00    -0.357 N 
ATOM     18  H18 <0> d           2.150  -3.705  -4.647  0.00  0.00     0.162 HD
BRANCH  17  19
ATOM     19  C13 <0> d           0.230  -4.326  -5.307  0.00  0.00     0.154 C 
BRANCH  19  20
ATOM     20  C14 <0> d           0.951  -4.912  -6.522  0.00  0.00     0.139 C 
ATOM     21  O4  <0> d           1.789  -5.999  -6.113  0.00  0.00    -0.384 OA
ATOM     22  C17 <0> d           1.351  -7.217  -6.741  0.00  0.00     0.168 C 
ATOM     23  C16 <0> d           0.610  -6.767  -8.024  0.00  0.00     0.029 C 
ATOM     24  C15 <0> d          -0.082  -5.469  -7.526  0.00  0.00     0.035 C 
ENDBRANCH  19  20
ENDBRANCH  17  19
ENDBRANCH  14  15
ENDBRANCH  11  14
TORSDOF 4
