REMARK  3 active torsions:
REMARK  status: ('A' for Active; 'I' for Inactive)
REMARK    1  A    between atoms: C6_6  and  N1_8 
REMARK    2  A    between atoms: C8_9  and  O2_29 
REMARK    3  A    between atoms: C9_10  and  C12_16 
ROOT
ATOM      1  N1  <0> d           0.179  -2.928   2.842  0.00  0.00    -0.295 N 
ATOM      2  C8  <0> d           1.498  -3.166   3.430  0.00  0.00     0.242 C 
ATOM      3  C9  <0> d           1.544  -4.573   4.030  0.00  0.00     0.162 C 
ATOM      4  C10 <0> d           0.299  -4.804   4.849  0.00  0.00     0.234 C 
ATOM      5  O1  <0> d           0.350  -5.483   5.852  0.00  0.00    -0.273 OA
ATOM      6  N2  <0> d          -0.869  -4.256   4.466  0.00  0.00    -0.303 N 
ATOM      7  C11 <0> d          -0.931  -3.425   3.412  0.00  0.00     0.183 C 
ATOM      8  S1  <0> d          -2.461  -2.993   2.776  0.00  0.00    -0.040 SA
ATOM      9  H11 <0> d          -1.678  -4.461   4.960  0.00  0.00     0.171 HD
ENDROOT
BRANCH   3  10
ATOM     10  C12 <0> d           1.616  -5.607   2.904  0.00  0.00     0.264 C 
ATOM     11  N4  <0> d           2.897  -5.475   2.191  0.00  0.00     0.091 N 
ATOM     12  C22 <0> d           2.987  -6.327   1.002  0.00  0.00     0.274 C 
ATOM     13  H20 <0> d           3.085  -4.511   1.961  0.00  0.00     0.316 HD
ATOM     14  C21 <0> d           2.966  -7.811   1.410  0.00  0.00     0.067 C 
ATOM     15  C14 <0> d           1.784  -7.977   2.335  0.00  0.00    -0.041 A 
ATOM     16  C13 <0> d           1.535  -7.017   3.493  0.00  0.00     0.146 A 
ATOM     17  C15 <0> d           0.759  -8.817   2.317  0.00  0.00    -0.005 A 
ATOM     18  N3  <0> d           0.205  -7.335   4.011  0.00  0.00    -0.379 N 
ATOM     19  C20 <0> d          -0.231  -8.392   3.353  0.00  0.00     0.039 A 
ATOM     20  H25 <0> d          -0.264  -6.849   4.707  0.00  0.00     0.160 HD
ATOM     21  C19 <0> d          -1.437  -9.136   3.510  0.00  0.00     0.030 A 
ATOM     22  C18 <0> d          -1.616 -10.213   2.705  0.00  0.00     0.002 A 
ATOM     23  C17 <0> d          -0.701 -10.637   1.737  0.00  0.00     0.001 A 
ATOM     24  C16 <0> d           0.478 -10.005   1.494  0.00  0.00     0.014 A 
ENDBRANCH   3  10
BRANCH   2  25
ATOM     25  O2  <0> d           1.742  -2.203   4.458  0.00  0.00    -0.375 OA
ATOM     26  H21 <0> d           1.728  -1.286   4.149  0.00  0.00     0.212 HD
ENDBRANCH   2  25
BRANCH   1  27
ATOM     27  C6  <0> d           0.073  -2.169   1.672  0.00  0.00     0.045 A 
ATOM     28  C5  <0> d          -0.048  -2.800   0.441  0.00  0.00    -0.035 A 
ATOM     29  C4  <0> d          -0.153  -2.047  -0.712  0.00  0.00     0.009 A 
ATOM     30  C23 <0> d          -0.064  -4.305   0.363  0.00  0.00     0.050 C 
ATOM     31  C3  <0> d          -0.138  -0.666  -0.642  0.00  0.00     0.007 A 
ATOM     32  C2  <0> d          -0.019  -0.034   0.583  0.00  0.00    -0.060 A 
ATOM     33  C1  <0> d          -0.003   1.471   0.655  0.00  0.00     0.048 C 
ATOM     34  C7  <0> d           0.092  -0.781   1.739  0.00  0.00     0.037 A 
ENDBRANCH   1  27
TORSDOF 3
