REMARK  4 active torsions:
REMARK  status: ('A' for Active; 'I' for Inactive)
REMARK    1  A    between atoms: N1_2  and  C3_4 
REMARK    2  A    between atoms: N2_7  and  S1_9 
REMARK    3  A    between atoms: S1_9  and  C7_12 
REMARK    4  A    between atoms: C8_13  and  N5_20 
ROOT
ATOM      1  S1  <0> d          -4.615  -0.884  -2.257  0.00  0.00     0.281 S 
ATOM      2  O1  <0> d          -4.390   0.163  -3.190  0.00  0.00    -0.199 OA
ATOM      3  O2  <0> d          -5.054  -2.176  -2.653  0.00  0.00    -0.199 OA
ENDROOT
BRANCH   1   4
ATOM      4  N2  <0> d          -3.192  -1.100  -1.436  0.00  0.00    -0.303 N 
ATOM      5  C5  <0> d          -2.775  -2.334  -0.754  0.00  0.00     0.137 C 
ATOM      6  C4  <0> d          -1.399  -2.059  -0.111  0.00  0.00     0.055 C 
ATOM      7  C3  <0> d          -1.376  -0.512   0.012  0.00  0.00     0.207 C 
ATOM      8  C6  <0> d          -2.135  -0.086  -1.269  0.00  0.00     0.168 C 
BRANCH   7   9
ATOM      9  N1  <0> d           0.002  -0.004   0.002  0.00  0.00    -0.073 N 
ATOM     10  C1  <0> d          -0.018   1.465   0.010  0.00  0.00     0.269 C 
ATOM     11  C2  <0> d           0.713  -0.491   1.192  0.00  0.00     0.269 C 
ATOM     12  H18 <0> d           0.474  -0.330  -0.828  0.00  0.00     0.279 HD
ENDBRANCH   7   9
ENDBRANCH   1   4
BRANCH   1  13
ATOM     13  C7  <0> d          -5.798  -0.282  -1.099  0.00  0.00     0.203 A 
ATOM     14  N4  <0> d          -6.053   1.059  -0.799  0.00  0.00    -0.286 N 
ATOM     15  C9  <0> d          -7.044   1.025   0.144  0.00  0.00     0.180 A 
ATOM     16  C10 <0> d          -5.597   2.301  -1.183  0.00  0.00     0.107 A 
ATOM     17  N3  <0> d          -7.370  -0.207   0.414  0.00  0.00    -0.203 NA
ATOM     18  S2  <0> d          -7.327   2.748   0.477  0.00  0.00    -0.062 SA
ATOM     19  C8  <0> d          -6.620  -1.033  -0.336  0.00  0.00     0.165 A 
ATOM     20  C11 <0> d          -6.107   3.410  -0.648  0.00  0.00     0.071 A 
BRANCH  19  21
ATOM     21  N5  <0> d          -6.681  -2.435  -0.327  0.00  0.00    -0.381 N 
ATOM     22  H16 <0> d          -6.097  -2.950  -0.906  0.00  0.00     0.157 HD
ATOM     23  H17 <0> d          -7.307  -2.889   0.258  0.00  0.00     0.157 HD
ENDBRANCH  19  21
ENDBRANCH   1  13
TORSDOF 4
