REMARK  5 active torsions:
REMARK  status: ('A' for Active; 'I' for Inactive)
REMARK    1  A    between atoms: C3_3  and  N3_15 
REMARK    2  A    between atoms: N1_6  and  C6_9 
REMARK       I    between atoms: N3_15  and  C12_16 
REMARK    3  A    between atoms: C12_16  and  C13_18 
REMARK    4  A    between atoms: C13_18  and  S1_20 
REMARK    5  A    between atoms: S1_20  and  C15_21 
ROOT
ATOM      1  C1  <0> d          -1.228   1.154  -0.229  0.00  0.00     0.072 C 
ATOM      2  C2  <0> d          -0.599  -0.214  -0.167  0.00  0.00     0.057 A 
ATOM      3  C3  <0> d           0.006  -0.852  -1.194  0.00  0.00     0.129 A 
ATOM      4  C4  <0> d           0.470  -2.145  -0.689  0.00  0.00     0.295 A 
ATOM      5  O1  <0> d           1.062  -3.000  -1.321  0.00  0.00    -0.264 OA
ATOM      6  N1  <0> d           0.116  -2.208   0.612  0.00  0.00    -0.217 N 
ATOM      7  N2  <0> d          -0.540  -1.017   0.942  0.00  0.00    -0.289 N 
ATOM      8  C5  <0> d          -1.080  -0.682   2.262  0.00  0.00     0.178 C 
ENDROOT
BRANCH   3   9
ATOM      9  N3  <0> d           0.162  -0.362  -2.506  0.00  0.00    -0.320 N 
ATOM     10  C12 <0> d          -0.335  -1.058  -3.548  0.00  0.00     0.236 C 
ATOM     11  O2  <0> d          -0.837  -2.147  -3.366  0.00  0.00    -0.272 OA
ATOM     12  H13 <0> d           0.627   0.475  -2.659  0.00  0.00     0.169 HD
BRANCH  10  13
ATOM     13  C13 <0> d          -0.266  -0.483  -4.939  0.00  0.00     0.143 C 
ATOM     14  C14 <0> d           1.094  -0.808  -5.559  0.00  0.00     0.031 C 
BRANCH  13  15
ATOM     15  S1  <0> d          -1.583  -1.204  -5.957  0.00  0.00    -0.078 SA
BRANCH  15  16
ATOM     16  C15 <0> d          -1.466  -0.334  -7.485  0.00  0.00     0.168 A 
ATOM     17  N5  <0> d          -2.257  -0.530  -8.575  0.00  0.00    -0.339 N 
ATOM     18  C17 <0> d          -1.832   0.352  -9.544  0.00  0.00     0.112 A 
ATOM     19  C18 <0> d          -3.354  -1.493  -8.694  0.00  0.00     0.158 C 
ATOM     20  C16 <0> d          -0.803   1.042  -9.022  0.00  0.00     0.136 A 
ATOM     21  N4  <0> d          -0.597   0.608  -7.767  0.00  0.00    -0.235 NA
ENDBRANCH  15  16
ENDBRANCH  13  15
ENDBRANCH  10  13
ENDBRANCH   3   9
BRANCH   6  22
ATOM     22  C6  <0> d           0.365  -3.276   1.480  0.00  0.00     0.060 A 
ATOM     23  C11 <0> d           1.631  -3.843   1.540  0.00  0.00     0.031 A 
ATOM     24  C10 <0> d           1.875  -4.894   2.402  0.00  0.00     0.002 A 
ATOM     25  C9  <0> d           0.858  -5.389   3.196  0.00  0.00     0.000 A 
ATOM     26  C8  <0> d          -0.406  -4.830   3.135  0.00  0.00     0.002 A 
ATOM     27  C7  <0> d          -0.655  -3.776   2.279  0.00  0.00     0.031 A 
ENDBRANCH   6  22
TORSDOF 5
