REMARK  4 active torsions:
REMARK  status: ('A' for Active; 'I' for Inactive)
REMARK    1  A    between atoms: C3_3  and  C6_9 
REMARK    2  A    between atoms: C4_5  and  C5_6 
REMARK       I    between atoms: C5_6  and  N1_8 
REMARK       I    between atoms: C6_9  and  N2_11 
REMARK    3  A    between atoms: N3_14  and  C11_17 
REMARK    4  A    between atoms: C11_17  and  C12_18 
ROOT
ATOM      1  C6  <0> d           3.740   1.812  -0.024  0.00  0.00     0.260 C 
ATOM      2  O2  <0> d           2.600   1.408   0.106  0.00  0.00    -0.267 OA
ATOM      3  N2  <0> d           4.757   0.934  -0.140  0.00  0.00    -0.344 N 
ATOM      4  C7  <0> d           4.498  -0.508  -0.263  0.00  0.00     0.156 C 
ATOM      5  C8  <0> d           5.349  -1.245   0.777  0.00  0.00     0.292 C 
ATOM      6  N3  <0> d           6.755  -0.851   0.623  0.00  0.00     0.097 N 
ATOM      7  C9  <0> d           6.939   0.582   0.888  0.00  0.00     0.292 C 
ATOM      8  C10 <0> d           6.154   1.395  -0.154  0.00  0.00     0.156 C 
ENDROOT
BRANCH   1   9
ATOM      9  C3  <0> d           4.010   3.258  -0.056  0.00  0.00     0.073 A 
ATOM     10  C2  <0> d           3.204   4.304   0.369  0.00  0.00     0.026 A 
ATOM     11  C1  <0> d           3.666   5.583   0.242  0.00  0.00     0.026 A 
ATOM     12  C4  <0> d           4.924   5.786  -0.308  0.00  0.00     0.073 A 
ATOM     13  S1  <0> d           5.458   4.117  -0.650  0.00  0.00    -0.079 SA
BRANCH  12  14
ATOM     14  C5  <0> d           5.635   7.051  -0.548  0.00  0.00     0.256 C 
ATOM     15  O1  <0> d           5.112   8.109  -0.250  0.00  0.00    -0.267 OA
ATOM     16  N1  <0> d           6.865   7.039  -1.099  0.00  0.00    -0.366 N 
ATOM     17  H3  <0> d           7.282   6.196  -1.337  0.00  0.00     0.159 HD
ATOM     18  H4  <0> d           7.334   7.874  -1.257  0.00  0.00     0.159 HD
ENDBRANCH  12  14
ENDBRANCH   1   9
BRANCH   6  19
ATOM     19  C11 <0> d           7.626  -1.661   1.485  0.00  0.00     0.329 C 
BRANCH  19  20
ATOM     20  C12 <0> d           9.067  -1.405   1.126  0.00  0.00     0.044 A 
ATOM     21  N5  <0> d           9.539  -1.750  -0.069  0.00  0.00    -0.338 N 
ATOM     22  C17 <0> d          10.789  -1.527  -0.393  0.00  0.00     0.158 A 
ATOM     23  H18 <0> d           8.947  -2.171  -0.712  0.00  0.00     0.168 HD
ATOM     24  N4  <0> d          11.703  -0.946   0.444  0.00  0.00    -0.269 N 
ATOM     25  S2  <0> d          11.742  -1.843  -1.862  0.00  0.00    -0.064 SA
ATOM     26  C14 <0> d          11.252  -0.584   1.682  0.00  0.00     0.255 A 
ATOM     27  C15 <0> d          12.978  -0.788  -0.045  0.00  0.00     0.109 A 
ATOM     28  C13 <0> d           9.921  -0.813   2.032  0.00  0.00     0.101 A 
ATOM     29  O3  <0> d          12.013  -0.060   2.481  0.00  0.00    -0.268 OA
ATOM     30  C16 <0> d          13.296  -1.184  -1.277  0.00  0.00     0.071 A 
ENDBRANCH  19  20
ENDBRANCH   6  19
TORSDOF 4
