REMARK  5 active torsions:
REMARK  status: ('A' for Active; 'I' for Inactive)
REMARK    1  A    between atoms: C6_9  and  C7_10 
REMARK    2  A    between atoms: C7_10  and  N2_11 
REMARK       I    between atoms: N2_11  and  C8_12 
REMARK    3  A    between atoms: C8_12  and  C9_14 
REMARK    4  A    between atoms: C9_14  and  C10_15 
REMARK    5  A    between atoms: C9_14  and  N3_18 
REMARK       I    between atoms: N3_18  and  C13_19 
ROOT
ATOM      1  N2  <0> d          -3.600   1.741  -0.694  0.00  0.00    -0.355 N 
ATOM      2  C8  <0> d          -2.347   1.246  -0.714  0.00  0.00     0.241 C 
ATOM      3  O2  <0> d          -2.094   0.260  -1.374  0.00  0.00    -0.271 OA
ATOM      4  H9  <0> d          -3.787   2.569  -0.226  0.00  0.00     0.162 HD
ENDROOT
BRANCH   1   5
ATOM      5  C7  <0> d          -4.681   1.027  -1.380  0.00  0.00     0.167 C 
BRANCH   5   6
ATOM      6  C6  <0> d          -5.972   1.784  -1.208  0.00  0.00     0.033 A 
ATOM      7  C2  <0> d          -6.386   2.668  -2.161  0.00  0.00    -0.047 A 
ATOM      8  C1  <0> d          -5.556   2.897  -3.399  0.00  0.00     0.049 C 
ATOM      9  C3  <0> d          -7.593   3.357  -1.979  0.00  0.00     0.032 A 
ATOM     10  C4  <0> d          -8.328   3.149  -0.862  0.00  0.00     0.009 A 
ATOM     11  N1  <0> d          -7.912   2.273   0.088  0.00  0.00    -0.327 N 
ATOM     12  C15 <0> d          -9.622   3.897  -0.671  0.00  0.00     0.068 C 
ATOM     13  H1  <0> d          -8.468   2.131   0.907  0.00  0.00     0.169 HD
ATOM     14  C5  <0> d          -6.760   1.592  -0.060  0.00  0.00     0.254 A 
ATOM     15  O1  <0> d          -6.399   0.808   0.803  0.00  0.00    -0.268 OA
ENDBRANCH   5   6
ENDBRANCH   1   5
BRANCH   2  16
ATOM     16  C9  <0> d          -1.259   1.917   0.084  0.00  0.00     0.179 C 
BRANCH  16  17
ATOM     17  C10 <0> d          -1.254   1.359   1.509  0.00  0.00     0.009 C 
ATOM     18  C11 <0> d          -0.177   2.071   2.331  0.00  0.00     0.012 C 
ATOM     19  C12 <0> d          -2.623   1.590   2.152  0.00  0.00     0.012 C 
ENDBRANCH  16  17
BRANCH  16  20
ATOM     20  N3  <0> d           0.038   1.660  -0.546  0.00  0.00    -0.348 N 
ATOM     21  C13 <0> d           1.060   2.518  -0.358  0.00  0.00     0.214 C 
ATOM     22  O3  <0> d           0.908   3.500   0.337  0.00  0.00    -0.274 OA
ATOM     23  C14 <0> d           2.393   2.257  -1.011  0.00  0.00     0.117 C 
ATOM     24  H17 <0> d           0.160   0.875  -1.102  0.00  0.00     0.163 HD
ENDBRANCH  16  20
ENDBRANCH   2  16
TORSDOF 5
