REMARK  5 active torsions:
REMARK  status: ('A' for Active; 'I' for Inactive)
REMARK    1  A    between atoms: C2_2  and  C3_3 
REMARK    2  A    between atoms: C2_2  and  N1_10 
REMARK    3  A    between atoms: C7_7  and  O1_9 
REMARK    4  A    between atoms: N1_10  and  C9_11 
REMARK    5  A    between atoms: C9_11  and  C10_12 
ROOT
ATOM      1  C1  <0> d          -0.019   1.526   0.010  0.00  0.00     0.045 C 
ATOM      2  C2  <0> d           0.002  -0.004   0.002  0.00  0.00     0.215 C 
ENDROOT
BRANCH   2   3
ATOM      3  C3  <0> d          -1.412  -0.526   0.013  0.00  0.00    -0.025 A 
ATOM      4  C8  <0> d          -1.998  -0.953  -1.162  0.00  0.00     0.045 A 
ATOM      5  C7  <0> d          -3.298  -1.439  -1.151  0.00  0.00     0.066 A 
ATOM      6  C6  <0> d          -4.009  -1.483   0.040  0.00  0.00     0.036 A 
ATOM      7  C5  <0> d          -3.420  -1.049   1.211  0.00  0.00     0.003 A 
ATOM      8  C4  <0> d          -2.123  -0.571   1.198  0.00  0.00     0.009 A 
BRANCH   5   9
ATOM      9  O1  <0> d          -3.876  -1.866  -2.305  0.00  0.00    -0.361 OA
ATOM     10  H10 <0> d          -4.345  -1.173  -2.789  0.00  0.00     0.217 HD
ENDBRANCH   5   9
ENDBRANCH   2   3
BRANCH   2  11
ATOM     11  N1  <0> d           0.713  -0.491   1.192  0.00  0.00    -0.065 N 
ATOM     12  H11 <0> d           0.290  -0.099   2.020  0.00  0.00     0.278 HD
ATOM     13  H20 <0> d           0.655  -1.497   1.230  0.00  0.00     0.278 HD
BRANCH  11  14
ATOM     14  C9  <0> d           2.122  -0.083   1.122  0.00  0.00     0.267 C 
BRANCH  14  15
ATOM     15  C10 <0> d           2.862  -0.589   2.361  0.00  0.00     0.170 C 
ATOM     16  O3  <0> d           2.265  -0.032   3.536  0.00  0.00    -0.380 OA
ATOM     17  C13 <0> d           2.924  -0.410   4.748  0.00  0.00     0.194 C 
ATOM     18  C12 <0> d           4.393   0.017   4.678  0.00  0.00     0.193 C 
ATOM     19  O2  <0> d           4.989  -0.542   3.504  0.00  0.00    -0.386 OA
ATOM     20  C11 <0> d           4.331  -0.162   2.291  0.00  0.00     0.201 C 
ENDBRANCH  14  15
ENDBRANCH  11  14
ENDBRANCH   2  11
TORSDOF 5
