REMARK  6 active torsions:
REMARK  status: ('A' for Active; 'I' for Inactive)
REMARK    1  A    between atoms: C2_2  and  O1_3 
REMARK    2  A    between atoms: O1_3  and  C3_4 
REMARK    3  A    between atoms: C7_8  and  C9_10 
REMARK    4  A    between atoms: C9_10  and  N1_29 
REMARK    5  A    between atoms: C15_17  and  C19_21 
REMARK    6  A    between atoms: C19_21  and  O3_27 
ROOT
ATOM      1  C10 <0> d          -1.332   5.491  -2.018  0.00  0.00     0.262 C 
ATOM      2  C11 <0> d          -1.288   5.667  -3.521  0.00  0.00     0.203 C 
ATOM      3  O2  <0> d          -1.130   7.050  -3.865  0.00  0.00    -0.349 OA
ATOM      4  C12 <0> d           0.154   7.500  -3.887  0.00  0.00     0.076 A 
ATOM      5  C13 <0> d           0.752   7.838  -5.093  0.00  0.00     0.038 A 
ATOM      6  C14 <0> d           2.064   8.273  -5.109  0.00  0.00     0.013 A 
ATOM      7  C15 <0> d           2.779   8.371  -3.929  0.00  0.00    -0.023 A 
ATOM      8  C16 <0> d           2.180   8.042  -2.726  0.00  0.00     0.022 A 
ATOM      9  C17 <0> d           0.868   7.618  -2.710  0.00  0.00     0.002 A 
ATOM     10  C18 <0> d           0.188   7.289  -1.395  0.00  0.00     0.276 C 
ATOM     11  N1  <0> d          -0.051   5.826  -1.361  0.00  0.00    -0.061 N 
ATOM     12  H33 <0> d           0.710   5.356  -1.865  0.00  0.00     0.280 HD
ENDROOT
BRANCH  11  13
ATOM     13  C9  <0> d          -0.065   5.351   0.032  0.00  0.00     0.274 C 
BRANCH  13  14
ATOM     14  C7  <0> d          -0.049   3.844   0.023  0.00  0.00    -0.030 A 
ATOM     15  C6  <0> d           1.156   3.166   0.008  0.00  0.00     0.009 A 
ATOM     16  C5  <0> d           1.174   1.783   0.000  0.00  0.00     0.003 A 
ATOM     17  C4  <0> d          -0.013   1.076   0.008  0.00  0.00     0.037 A 
ATOM     18  C3  <0> d          -1.223   1.754   0.017  0.00  0.00     0.069 A 
ATOM     19  C8  <0> d          -1.239   3.141   0.030  0.00  0.00     0.045 A 
BRANCH  18  20
ATOM     20  O1  <0> d          -2.392   1.060   0.019  0.00  0.00    -0.352 OA
BRANCH  20  21
ATOM     21  C2  <0> d          -2.300  -0.366   0.011  0.00  0.00     0.171 C 
ATOM     22  C1  <0> d          -3.706  -0.968   0.014  0.00  0.00     0.034 C 
ENDBRANCH  20  21
ENDBRANCH  18  20
ENDBRANCH  13  14
ENDBRANCH  11  13
BRANCH   7  23
ATOM     23  C19 <0> d           4.212   8.836  -3.955  0.00  0.00     0.088 C 
ATOM     24  C23 <0> d           4.857   8.435  -5.284  0.00  0.00     0.070 C 
ATOM     25  C22 <0> d           6.293   8.963  -5.330  0.00  0.00     0.237 C 
ATOM     26  N2  <0> d           6.266  10.436  -5.214  0.00  0.00    -0.075 N 
ATOM     27  C21 <0> d           5.711  10.833  -3.902  0.00  0.00     0.237 C 
ATOM     28  C24 <0> d           7.631  10.980  -5.369  0.00  0.00     0.269 C 
ATOM     29  H34 <0> d           5.669  10.818  -5.957  0.00  0.00     0.279 HD
ATOM     30  C20 <0> d           4.258  10.360  -3.813  0.00  0.00     0.070 C 
BRANCH  23  31
ATOM     31  O3  <0> d           4.929   8.234  -2.875  0.00  0.00    -0.385 OA
ATOM     32  H32 <0> d           4.576   8.448  -2.001  0.00  0.00     0.211 HD
ENDBRANCH  23  31
ENDBRANCH   7  23
TORSDOF 6
