REMARK  5 active torsions:
REMARK  status: ('A' for Active; 'I' for Inactive)
REMARK    1  A    between atoms: C2_2  and  O1_3 
REMARK    2  A    between atoms: O1_3  and  C3_4 
REMARK    3  A    between atoms: C3_4  and  C4_6 
REMARK    4  A    between atoms: C5_7  and  N1_27 
REMARK    5  A    between atoms: C15_20  and  C16_21 
ROOT
ATOM      1  C4  <0> d           1.445  -2.321  -2.455  0.00  0.00     0.083 C 
ATOM      2  C5  <0> d           1.611  -3.664  -2.570  0.00  0.00     0.155 C 
ATOM      3  O3  <0> d           2.200  -4.209  -3.648  0.00  0.00    -0.292 OA
ATOM      4  C6  <0> d           2.295  -3.506  -4.792  0.00  0.00     0.104 A 
ATOM      5  C7  <0> d           2.544  -4.196  -6.067  0.00  0.00     0.033 A 
ATOM      6  C8  <0> d           2.688  -5.584  -6.120  0.00  0.00     0.017 A 
ATOM      7  C9  <0> d           2.921  -6.198  -7.330  0.00  0.00     0.001 A 
ATOM      8  C10 <0> d           3.013  -5.445  -8.492  0.00  0.00     0.003 A 
ATOM      9  C11 <0> d           2.872  -4.074  -8.454  0.00  0.00     0.038 A 
ATOM     10  C12 <0> d           2.636  -3.434  -7.243  0.00  0.00     0.092 A 
ATOM     11  O4  <0> d           2.496  -2.092  -7.186  0.00  0.00    -0.274 OA
ATOM     12  C13 <0> d           2.270  -1.456  -6.027  0.00  0.00     0.298 A 
ATOM     13  O5  <0> d           2.152  -0.243  -6.031  0.00  0.00    -0.259 OA
ATOM     14  C14 <0> d           2.166  -2.149  -4.808  0.00  0.00     0.067 A 
ATOM     15  C15 <0> d           1.910  -1.387  -3.537  0.00  0.00     0.128 C 
ENDROOT
BRANCH  15  16
ATOM     16  C16 <0> d           3.184  -0.711  -3.100  0.00  0.00     0.068 A 
ATOM     17  O6  <0> d           4.333  -1.331  -2.782  0.00  0.00    -0.306 OA
ATOM     18  C19 <0> d           5.256  -0.416  -2.444  0.00  0.00     0.121 A 
ATOM     19  C18 <0> d           4.697   0.805  -2.534  0.00  0.00     0.048 A 
ATOM     20 Br1  <0> d           7.036  -0.782  -1.921  0.00  0.00    -0.023 Br
ATOM     21  C17 <0> d           3.362   0.615  -2.958  0.00  0.00     0.037 A 
ENDBRANCH  15  16
BRANCH   1  22
ATOM     22  C3  <0> d           0.825  -1.797  -1.310  0.00  0.00     0.294 C 
ATOM     23  O2  <0> d          -0.341  -1.446  -1.356  0.00  0.00    -0.259 OA
BRANCH  22  24
ATOM     24  O1  <0> d           1.520  -1.683  -0.158  0.00  0.00    -0.318 OA
BRANCH  24  25
ATOM     25  C2  <0> d           0.825  -1.142   0.968  0.00  0.00     0.174 C 
ATOM     26  C1  <0> d           1.768  -1.090   2.172  0.00  0.00     0.034 C 
ENDBRANCH  24  25
ENDBRANCH  22  24
ENDBRANCH   1  22
BRANCH   2  27
ATOM     27  N1  <0> d           1.169  -4.481  -1.564  0.00  0.00    -0.379 N 
ATOM     28  H13 <0> d           0.663  -4.109  -0.825  0.00  0.00     0.158 HD
ATOM     29  H14 <0> d           1.363  -5.431  -1.590  0.00  0.00     0.158 HD
ENDBRANCH   2  27
TORSDOF 5
