REMARK  3 active torsions:
REMARK  status: ('A' for Active; 'I' for Inactive)
REMARK    1  A    between atoms: O1_2  and  C2_3 
REMARK    2  A    between atoms: C7_8  and  C8_9 
REMARK    3  A    between atoms: C8_9  and  C9_10 
ROOT
ATOM      1  C9  <0> d          -0.937   2.083   4.476  0.00  0.00     0.111 A 
ATOM      2  N1  <0> d          -1.244   1.250   5.489  0.00  0.00    -0.311 N 
ATOM      3  H1  <0> d          -2.175   0.898   5.585  0.00  0.00     0.170 HD
ATOM      4  C10 <0> d          -0.291   0.892   6.375  0.00  0.00     0.256 A 
ATOM      5  O2  <0> d          -0.551   0.139   7.298  0.00  0.00    -0.267 OA
ATOM      6  C11 <0> d           1.016   1.407   6.211  0.00  0.00     0.060 A 
ATOM      7  C12 <0> d           1.263   2.236   5.167  0.00  0.00     0.051 A 
ATOM      8  N2  <0> d           0.271   2.550   4.322  0.00  0.00    -0.239 NA
ATOM      9  C13 <0> d           2.634   2.810   4.918  0.00  0.00     0.087 C 
ATOM     10  C14 <0> d           3.489   2.686   6.179  0.00  0.00     0.238 C 
ATOM     11  C15 <0> d           2.078   1.022   7.204  0.00  0.00     0.278 C 
ATOM     12  N3  <0> d           3.416   1.294   6.661  0.00  0.00    -0.071 N 
ATOM     13  H17 <0> d           4.118   1.151   7.396  0.00  0.00     0.277 HD
ATOM     14  H18 <0> d           3.603   0.653   5.880  0.00  0.00     0.277 HD
ENDROOT
BRANCH   1  15
ATOM     15  C8  <0> d          -2.011   2.478   3.495  0.00  0.00     0.120 C 
BRANCH  15  16
ATOM     16  C7  <0> d          -1.429   3.408   2.462  0.00  0.00    -0.018 A 
ATOM     17  C2  <0> d          -0.787   2.892   1.346  0.00  0.00     0.074 A 
ATOM     18  C3  <0> d          -0.258   3.751   0.393  0.00  0.00     0.037 A 
ATOM     19  C4  <0> d          -0.367   5.117   0.561  0.00  0.00     0.003 A 
ATOM     20  C5  <0> d          -1.003   5.630   1.677  0.00  0.00     0.001 A 
ATOM     21  C6  <0> d          -1.532   4.776   2.627  0.00  0.00     0.010 A 
BRANCH  17  22
ATOM     22  O1  <0> d          -0.682   1.547   1.184  0.00  0.00    -0.355 OA
ATOM     23  C1  <0> d          -0.013   1.086   0.008  0.00  0.00     0.210 C 
ENDBRANCH  17  22
ENDBRANCH  15  16
ENDBRANCH   1  15
TORSDOF 3
