REMARK  5 active torsions:
REMARK  status: ('A' for Active; 'I' for Inactive)
REMARK    1  A    between atoms: C2_2  and  C3_3 
REMARK    2  A    between atoms: C2_2  and  N2_11 
REMARK       I    between atoms: C3_3  and  N1_5 
REMARK    3  A    between atoms: N1_5  and  C4_6 
REMARK    4  A    between atoms: C10_14  and  C12_18 
REMARK    5  A    between atoms: C12_18  and  C13_19 
ROOT
ATOM      1  N2  <0> d           0.688  -0.476  -1.203  0.00  0.00    -0.255 N 
ATOM      2  C9  <0> d           1.796  -1.244  -1.192  0.00  0.00     0.251 A 
ATOM      3  O2  <0> d           2.390  -1.658  -0.220  0.00  0.00    -0.271 OA
ATOM      4  C10 <0> d           2.143  -1.483  -2.648  0.00  0.00     0.183 A 
ATOM      5  N3  <0> d           1.092  -0.754  -3.379  0.00  0.00    -0.329 N 
ATOM      6  C11 <0> d           0.288  -0.204  -2.451  0.00  0.00     0.326 A 
ATOM      7  O3  <0> d          -0.689   0.467  -2.716  0.00  0.00    -0.247 OA
ATOM      8  H16 <0> d           0.996  -0.685  -4.342  0.00  0.00     0.165 HD
ENDROOT
BRANCH   1   9
ATOM      9  C2  <0> d           0.002  -0.004   0.002  0.00  0.00     0.185 C 
ATOM     10  C1  <0> d          -0.019   1.526   0.010  0.00  0.00     0.043 C 
BRANCH   9  11
ATOM     11  C3  <0> d          -1.412  -0.526   0.013  0.00  0.00     0.241 C 
ATOM     12  O1  <0> d          -1.808  -1.223  -0.897  0.00  0.00    -0.271 OA
ATOM     13  N1  <0> d          -2.236  -0.217   1.033  0.00  0.00    -0.355 N 
ATOM     14  H6  <0> d          -1.920   0.341   1.761  0.00  0.00     0.162 HD
BRANCH  13  15
ATOM     15  C4  <0> d          -3.611  -0.724   1.044  0.00  0.00     0.084 C 
ATOM     16  C8  <0> d          -4.135  -0.796   2.488  0.00  0.00     0.025 C 
ATOM     17  C7  <0> d          -5.363   0.135   2.558  0.00  0.00     0.002 C 
ATOM     18  C6  <0> d          -5.860   0.220   1.094  0.00  0.00     0.002 C 
ATOM     19  C5  <0> d          -4.538   0.248   0.286  0.00  0.00     0.025 C 
ENDBRANCH  13  15
ENDBRANCH   9  11
ENDBRANCH   1   9
BRANCH   4  20
ATOM     20  C12 <0> d           3.525  -0.911  -2.973  0.00  0.00     0.071 C 
BRANCH  20  21
ATOM     21  C13 <0> d           3.896  -1.268  -4.389  0.00  0.00    -0.048 A 
ATOM     22  C20 <0> d           4.542  -2.551  -4.863  0.00  0.00     0.155 A 
ATOM     23  N4  <0> d           4.693  -2.412  -6.316  0.00  0.00    -0.385 N 
ATOM     24  C19 <0> d           4.229  -1.240  -6.674  0.00  0.00     0.038 A 
ATOM     25  H25 <0> d           5.077  -3.075  -6.911  0.00  0.00     0.160 HD
ATOM     26  C14 <0> d           3.725  -0.505  -5.492  0.00  0.00    -0.006 A 
ATOM     27  C18 <0> d           4.139  -0.605  -7.944  0.00  0.00     0.030 A 
ATOM     28  C15 <0> d           3.162   0.836  -5.696  0.00  0.00     0.014 A 
ATOM     29  C16 <0> d           3.124   1.347  -6.947  0.00  0.00     0.001 A 
ATOM     30  C17 <0> d           3.607   0.632  -8.052  0.00  0.00     0.002 A 
ENDBRANCH  20  21
ENDBRANCH   4  20
TORSDOF 5
