REMARK  1 active torsions:
REMARK  status: ('A' for Active; 'I' for Inactive)
REMARK    1  A    between atoms: C3_3  and  C10_12 
ROOT
ATOM      1  C10 <0> d           0.214  -0.286  -2.522  0.00  0.00     0.458 C 
ATOM      2  N2  <0> d           1.062   0.909  -2.568  0.00  0.00    -0.033 N 
ATOM      3  C11 <0> d           2.387   0.612  -2.020  0.00  0.00     0.256 C 
ATOM      4  C12 <0> d           3.057  -0.502  -2.838  0.00  0.00     0.068 C 
ATOM      5  C13 <0> d           2.130  -1.729  -2.828  0.00  0.00     0.294 C 
ATOM      6  N3  <0> d           0.814  -1.341  -3.352  0.00  0.00     0.126 N 
ATOM      7  C14 <0> d           0.881  -0.918  -4.758  0.00  0.00     0.294 C 
ATOM      8  C15 <0> d           1.748   0.348  -4.861  0.00  0.00     0.068 C 
ATOM      9  C16 <0> d           1.146   1.418  -3.938  0.00  0.00     0.256 C 
ATOM     10  C17 <0> d           3.111  -0.015  -4.282  0.00  0.00     0.150 C 
ATOM     11  O1  <0> d           4.138   0.074  -4.909  0.00  0.00    -0.296 OA
ATOM     12  C18 <0> d           1.851   0.844  -6.305  0.00  0.00     0.027 C 
ATOM     13  C19 <0> d           4.452  -0.832  -2.302  0.00  0.00     0.027 C 
ATOM     14  H24 <0> d           0.640   1.620  -1.990  0.00  0.00     0.282 HD
ENDROOT
BRANCH   1  15
ATOM     15  C3  <0> d           0.103  -0.770  -1.099  0.00  0.00     0.037 A 
ATOM     16  C2  <0> d          -0.200  -2.015  -0.700  0.00  0.00     0.017 A 
ATOM     17  C1  <0> d          -0.489  -3.172  -1.621  0.00  0.00     0.069 C 
ATOM     18  N1  <0> d          -0.213  -2.077   0.667  0.00  0.00    -0.359 N 
ATOM     19  C9  <0> d           0.098  -0.843   1.194  0.00  0.00     0.043 A 
ATOM     20  H1  <0> d          -0.409  -2.872   1.188  0.00  0.00     0.166 HD
ATOM     21  C4  <0> d           0.306   0.030   0.112  0.00  0.00     0.003 A 
ATOM     22  C8  <0> d           0.223  -0.361   2.493  0.00  0.00     0.030 A 
ATOM     23  C5  <0> d           0.635   1.367   0.348  0.00  0.00     0.014 A 
ATOM     24  C6  <0> d           0.753   1.819   1.631  0.00  0.00     0.001 A 
ATOM     25  C7  <0> d           0.548   0.961   2.704  0.00  0.00     0.002 A 
ENDBRANCH   1  15
TORSDOF 1
