REMARK  4 active torsions:
REMARK  status: ('A' for Active; 'I' for Inactive)
REMARK    1  A    between atoms: C4_4  and  C6_8 
REMARK       I    between atoms: C6_8  and  N3_10 
REMARK    2  A    between atoms: C8_12  and  C15_20 
REMARK       I    between atoms: C15_20  and  N5_22 
REMARK    3  A    between atoms: N5_22  and  C16_23 
REMARK    4  A    between atoms: C16_23  and  C17_24 
ROOT
ATOM      1  C6  <0> d           0.156  -3.210  -1.142  0.00  0.00     0.274 C 
ATOM      2  O1  <0> d           0.183  -3.049  -2.347  0.00  0.00    -0.266 OA
ATOM      3  N3  <0> d           0.135  -4.457  -0.630  0.00  0.00    -0.345 N 
ATOM      4  C7  <0> d           0.095  -4.852   0.798  0.00  0.00     0.141 C 
ATOM      5  C8  <0> d          -0.860  -6.066   0.841  0.00  0.00     0.106 C 
ATOM      6  C9  <0> d          -0.820  -6.647  -0.583  0.00  0.00    -0.007 C 
ATOM      7  C10 <0> d           0.141  -5.743  -1.368  0.00  0.00     0.136 C 
ATOM      8  C11 <0> d          -2.209  -6.602  -1.212  0.00  0.00     0.039 C 
ATOM      9  C12 <0> d          -2.154  -7.237  -2.604  0.00  0.00     0.233 C 
ATOM     10  N4  <0> d          -1.690  -8.626  -2.492  0.00  0.00    -0.075 N 
ATOM     11  C13 <0> d          -0.318  -8.655  -1.973  0.00  0.00     0.233 C 
ATOM     12  C14 <0> d          -0.295  -8.079  -0.554  0.00  0.00     0.039 C 
ATOM     13  H18 <0> d          -2.297  -9.132  -1.865  0.00  0.00     0.277 HD
ATOM     14  H36 <0> d          -1.713  -9.061  -3.402  0.00  0.00     0.277 HD
ENDROOT
BRANCH   5  15
ATOM     15  C15 <0> d          -2.258  -5.622   1.189  0.00  0.00     0.224 C 
ATOM     16  O2  <0> d          -2.640  -4.516   0.868  0.00  0.00    -0.273 OA
ATOM     17  N5  <0> d          -3.082  -6.453   1.857  0.00  0.00    -0.360 N 
ATOM     18  H23 <0> d          -2.776  -7.337   2.113  0.00  0.00     0.162 HD
BRANCH  17  19
ATOM     19  C16 <0> d          -4.441  -6.022   2.195  0.00  0.00     0.129 C 
BRANCH  19  20
ATOM     20  C17 <0> d          -5.160  -7.144   2.946  0.00  0.00     0.031 C 
ATOM     21  C20 <0> d          -6.559  -6.679   3.390  0.00  0.00     0.240 C 
ATOM     22  N6  <0> d          -7.542  -7.551   2.707  0.00  0.00    -0.074 N 
ATOM     23  C19 <0> d          -6.826  -8.821   2.420  0.00  0.00     0.234 C 
ATOM     24  C21 <0> d          -8.690  -7.805   3.586  0.00  0.00     0.269 C 
ATOM     25  H35 <0> d          -7.849  -7.123   1.846  0.00  0.00     0.279 HD
ATOM     26  C18 <0> d          -5.412  -8.344   2.004  0.00  0.00     0.035 C 
ENDBRANCH  19  20
ENDBRANCH  17  19
ENDBRANCH   5  15
BRANCH   1  27
ATOM     27  C4  <0> d           0.145  -2.041  -0.240  0.00  0.00     0.146 A 
ATOM     28  C3  <0> d           0.163  -0.680  -0.625  0.00  0.00     0.065 A 
ATOM     29  C2  <0> d           0.143   0.024   0.530  0.00  0.00     0.028 A 
ATOM     30  C1  <0> d           0.152   1.525   0.663  0.00  0.00     0.070 C 
ATOM     31  N2  <0> d           0.119  -0.869   1.543  0.00  0.00    -0.278 N 
ATOM     32  N1  <0> d           0.115  -2.067   1.078  0.00  0.00    -0.167 NA
ATOM     33  C5  <0> d           0.096  -0.523   2.966  0.00  0.00     0.179 C 
ENDBRANCH   1  27
TORSDOF 4
