REMARK  3 active torsions:
REMARK  status: ('A' for Active; 'I' for Inactive)
REMARK    1  A    between atoms: N1_7  and  C5_8 
REMARK    2  A    between atoms: C5_8  and  C6_9 
REMARK    3  A    between atoms: C7_11  and  N6_19 
ROOT
ATOM      1  C6  <0> d          -1.393   0.178   2.916  0.00  0.00     0.148 A 
ATOM      2  N2  <0> d          -2.011   1.291   2.564  0.00  0.00    -0.213 NA
ATOM      3  C7  <0> d          -3.262   1.532   2.940  0.00  0.00     0.141 A 
ATOM      4  C8  <0> d          -3.921   0.569   3.728  0.00  0.00     0.076 A 
ATOM      5  C9  <0> d          -5.207   0.468   4.303  0.00  0.00     0.158 A 
ATOM      6  N3  <0> d          -5.283  -0.662   4.946  0.00  0.00    -0.182 NA
ATOM      7  N4  <0> d          -4.071  -1.354   4.829  0.00  0.00    -0.256 N 
ATOM      8  C10 <0> d          -3.220  -0.601   4.077  0.00  0.00     0.163 A 
ATOM      9  N5  <0> d          -1.969  -0.752   3.646  0.00  0.00    -0.211 NA
ATOM     10  C11 <0> d          -3.770  -2.663   5.415  0.00  0.00     0.182 C 
ENDROOT
BRANCH   1  11
ATOM     11  C5  <0> d           0.026  -0.038   2.458  0.00  0.00     0.213 C 
BRANCH  11  12
ATOM     12  N1  <0> d           0.023  -0.721   1.162  0.00  0.00    -0.305 N 
ATOM     13  C2  <0> d           0.002  -0.004   0.002  0.00  0.00     0.018 A 
ATOM     14  C1  <0> d          -0.018   1.503   0.010  0.00  0.00     0.069 C 
ATOM     15  C3  <0> d           0.006  -0.694  -1.142  0.00  0.00     0.080 A 
ATOM     16  S1  <0> d           0.032  -2.377  -0.554  0.00  0.00    -0.039 SA
ATOM     17  C4  <0> d           0.035  -2.069   1.099  0.00  0.00     0.290 A 
ATOM     18  O1  <0> d           0.050  -2.869   2.018  0.00  0.00    -0.259 OA
ENDBRANCH  11  12
ENDBRANCH   1  11
BRANCH   3  19
ATOM     19  N6  <0> d          -3.900   2.699   2.568  0.00  0.00    -0.378 N 
ATOM     20  C12 <0> d          -3.197   3.689   1.748  0.00  0.00     0.147 C 
ATOM     21  H11 <0> d          -4.814   2.863   2.849  0.00  0.00     0.160 HD
ENDBRANCH   3  19
TORSDOF 3
