REMARK  4 active torsions:
REMARK  status: ('A' for Active; 'I' for Inactive)
REMARK    1  A    between atoms: C2_2  and  N1_3 
REMARK    2  A    between atoms: N1_3  and  C3_4 
REMARK    3  A    between atoms: C3_4  and  C4_5 
REMARK    4  A    between atoms: C3_4  and  C11_17 
ROOT
ATOM      1  C3  <0> d           0.710  -1.947  -1.215  0.00  0.00     0.253 C 
ENDROOT
BRANCH   1   2
ATOM      2  N1  <0> d           0.690  -0.478  -1.207  0.00  0.00    -0.063 N 
ATOM      3  H9  <0> d           0.202  -0.144  -2.024  0.00  0.00     0.278 HD
ATOM      4  H16 <0> d           1.636  -0.129  -1.214  0.00  0.00     0.278 HD
BRANCH   2   5
ATOM      5  C2  <0> d           0.002  -0.004   0.002  0.00  0.00     0.229 C 
ATOM      6  C1  <0> d          -0.019   1.526   0.010  0.00  0.00     0.034 C 
ENDBRANCH   2   5
ENDBRANCH   1   2
BRANCH   1   7
ATOM      7  C4  <0> d          -0.700  -2.467  -1.328  0.00  0.00    -0.021 A 
ATOM      8  C9  <0> d          -1.086  -3.571  -0.593  0.00  0.00     0.041 A 
ATOM      9  C8  <0> d          -2.385  -4.047  -0.693  0.00  0.00     0.063 A 
ATOM     10  C7  <0> d          -3.293  -3.415  -1.545  0.00  0.00     0.063 A 
ATOM     11  N2  <0> d          -3.063  -5.107  -0.097  0.00  0.00    -0.306 N 
ATOM     12  C6  <0> d          -2.894  -2.311  -2.283  0.00  0.00     0.032 A 
ATOM     13  N3  <0> d          -4.495  -4.111  -1.439  0.00  0.00    -0.307 N 
ATOM     14  C5  <0> d          -1.601  -1.841  -2.172  0.00  0.00     0.012 A 
ATOM     15  C10 <0> d          -4.326  -5.120  -0.564  0.00  0.00     0.325 A 
ATOM     16  H3  <0> d          -5.314  -3.904  -1.916  0.00  0.00     0.170 HD
ATOM     17  O1  <0> d          -5.184  -5.921  -0.243  0.00  0.00    -0.247 OA
ATOM     18  H2  <0> d          -2.689  -5.730   0.546  0.00  0.00     0.170 HD
ENDBRANCH   1   7
BRANCH   1  19
ATOM     19  C11 <0> d           1.520  -2.432  -2.389  0.00  0.00    -0.004 A 
ATOM     20  C15 <0> d           1.425  -1.799  -3.614  0.00  0.00     0.126 A 
ATOM     21  N4  <0> d           2.135  -2.213  -4.645  0.00  0.00    -0.271 NA
ATOM     22  C14 <0> d           2.950  -3.246  -4.555  0.00  0.00     0.135 A 
ATOM     23  C13 <0> d           3.093  -3.933  -3.363  0.00  0.00     0.029 A 
ATOM     24  C12 <0> d           2.366  -3.522  -2.256  0.00  0.00     0.031 A 
ATOM     25 Br1  <0> d           4.264  -5.413  -3.245  0.00  0.00    -0.050 Br
ENDBRANCH   1  19
TORSDOF 4
