REMARK  5 active torsions:
REMARK  status: ('A' for Active; 'I' for Inactive)
REMARK    1  A    between atoms: C5_6  and  S1_7 
REMARK    2  A    between atoms: S1_7  and  C6_8 
REMARK    3  A    between atoms: C6_8  and  C7_9 
REMARK       I    between atoms: C7_9  and  N2_11 
REMARK    4  A    between atoms: N2_11  and  C8_12 
REMARK    5  A    between atoms: C8_12  and  C9_13 
ROOT
ATOM      1  C7  <0> d          -2.150  -3.567   0.003  0.00  0.00     0.227 C 
ATOM      2  O1  <0> d          -3.267  -3.095   0.017  0.00  0.00    -0.273 OA
ATOM      3  N2  <0> d          -1.982  -4.904  -0.005  0.00  0.00    -0.356 N 
ATOM      4  H8  <0> d          -1.089  -5.281  -0.016  0.00  0.00     0.162 HD
ENDROOT
BRANCH   1   5
ATOM      5  C6  <0> d          -0.948  -2.657  -0.003  0.00  0.00     0.182 C 
BRANCH   5   6
ATOM      6  S1  <0> d          -1.498  -0.929   0.011  0.00  0.00    -0.121 SA
BRANCH   6   7
ATOM      7  C5  <0> d           0.002  -0.004   0.002  0.00  0.00     0.003 A 
ATOM      8  C1  <0> d          -0.017   1.391   0.010  0.00  0.00     0.038 A 
ATOM      9  C2  <0> d           1.179   2.077   0.002  0.00  0.00     0.117 A 
ATOM     10  N1  <0> d           2.330   1.431  -0.013  0.00  0.00    -0.273 NA
ATOM     11  C3  <0> d           2.390   0.112  -0.021  0.00  0.00     0.117 A 
ATOM     12  C4  <0> d           1.240  -0.648  -0.013  0.00  0.00     0.038 A 
ENDBRANCH   6   7
ENDBRANCH   5   6
ENDBRANCH   1   5
BRANCH   3  13
ATOM     13  C8  <0> d          -3.151  -5.788   0.001  0.00  0.00     0.164 C 
BRANCH  13  14
ATOM     14  C9  <0> d          -2.694  -7.224  -0.011  0.00  0.00    -0.004 A 
ATOM     15  C11 <0> d          -2.433  -8.014   1.113  0.00  0.00     0.148 A 
ATOM     16  N4  <0> d          -2.063  -9.200   0.703  0.00  0.00    -0.187 NA
ATOM     17  N3  <0> d          -2.067  -9.199  -0.698  0.00  0.00    -0.289 N 
ATOM     18  C10 <0> d          -2.458  -7.975  -1.111  0.00  0.00     0.119 A 
ATOM     19  H1  <0> d          -1.831  -9.946  -1.270  0.00  0.00     0.188 HD
ENDBRANCH  13  14
ENDBRANCH   3  13
TORSDOF 5
