REMARK  4 active torsions:
REMARK  status: ('A' for Active; 'I' for Inactive)
REMARK    1  A    between atoms: C2_2  and  C4_4 
REMARK    2  A    between atoms: C4_4  and  C5_5 
REMARK    3  A    between atoms: C5_5  and  C18_23 
REMARK    4  A    between atoms: C8_8  and  C9_10 
ROOT
ATOM      1  C5  <0> d          -1.253  -2.772  -1.290  0.00  0.00     0.226 C 
ATOM      2  C6  <0> d          -1.045  -2.226   0.155  0.00  0.00     0.141 A 
ATOM      3  C7  <0> d           0.497  -2.212   0.336  0.00  0.00     0.129 A 
ATOM      4  C8  <0> d           1.072  -2.753  -0.990  0.00  0.00     0.234 C 
ATOM      5  N1  <0> d           0.018  -2.475  -1.999  0.00  0.00    -0.046 N 
ATOM      6  C15 <0> d           0.822  -0.740   0.456  0.00  0.00     0.233 A 
ATOM      7  O1  <0> d           1.932  -0.278   0.612  0.00  0.00    -0.272 OA
ATOM      8  N2  <0> d          -0.307  -0.028   0.363  0.00  0.00    -0.292 N 
ATOM      9  C16 <0> d          -1.414  -0.760   0.198  0.00  0.00     0.234 A 
ATOM     10  O2  <0> d          -2.538  -0.318   0.097  0.00  0.00    -0.272 OA
ATOM     11  C17 <0> d          -0.329   1.435   0.441  0.00  0.00     0.162 C 
ATOM     12  H13 <0> d           0.108  -3.128  -2.880  0.00  0.00     0.279 HD
ATOM     13  H21 <0> d           0.021  -1.423  -2.320  0.00  0.00     0.279 HD
ENDROOT
BRANCH   1  14
ATOM     14  C4  <0> d          -2.422  -2.058  -1.970  0.00  0.00     0.055 C 
BRANCH  14  15
ATOM     15  C2  <0> d          -2.620  -2.628  -3.376  0.00  0.00    -0.020 C 
ATOM     16  C1  <0> d          -3.885  -2.031  -3.996  0.00  0.00     0.009 C 
ATOM     17  C3  <0> d          -1.411  -2.275  -4.245  0.00  0.00     0.009 C 
ENDBRANCH  14  15
ENDBRANCH   1  14
BRANCH   1  18
ATOM     18  C18 <0> d          -1.498  -4.259  -1.251  0.00  0.00     0.211 C 
ATOM     19  O3  <0> d          -2.004  -4.763  -0.277  0.00  0.00    -0.646 OA
ATOM     20  O4  <0> d          -1.153  -5.023  -2.299  0.00  0.00    -0.646 OA
ENDBRANCH   1  18
BRANCH   4  21
ATOM     21  C9  <0> d           2.344  -2.027  -1.345  0.00  0.00    -0.027 A 
ATOM     22  C14 <0> d           3.569  -2.611  -1.083  0.00  0.00     0.011 A 
ATOM     23  C13 <0> d           4.736  -1.946  -1.409  0.00  0.00     0.024 A 
ATOM     24  C12 <0> d           4.677  -0.695  -1.998  0.00  0.00     0.034 A 
ATOM     25  C11 <0> d           3.451  -0.112  -2.260  0.00  0.00     0.024 A 
ATOM     26 Cl1  <0> d           6.143   0.141  -2.407  0.00  0.00    -0.084 Cl
ATOM     27  C10 <0> d           2.285  -0.780  -1.939  0.00  0.00     0.011 A 
ENDBRANCH   4  21
TORSDOF 4
