REMARK  7 active torsions:
REMARK  status: ('A' for Active; 'I' for Inactive)
REMARK    1  A    between atoms: C4_5  and  C5_7 
REMARK    2  A    between atoms: C5_7  and  N2_9 
REMARK       I    between atoms: N2_9  and  C7_10 
REMARK    3  A    between atoms: C7_10  and  C8_12 
REMARK    4  A    between atoms: C8_12  and  C9_13 
REMARK    5  A    between atoms: C9_13  and  C10_14 
REMARK    6  A    between atoms: C10_14  and  C14_20 
REMARK    7  A    between atoms: C14_20  and  C15_21 
ROOT
ATOM      1  C10 <0> d          -1.914   0.910  -5.936  0.00  0.00     0.037 C 
ATOM      2  C11 <0> d          -1.962  -0.137  -7.071  0.00  0.00     0.040 C 
ATOM      3  C12 <0> d          -3.214  -0.960  -6.689  0.00  0.00     0.105 C 
ATOM      4  C13 <0> d          -4.048  -0.004  -5.864  0.00  0.00     0.218 C 
ATOM      5  O2  <0> d          -5.223  -0.154  -5.604  0.00  0.00    -0.274 OA
ATOM      6  N3  <0> d          -3.297   1.035  -5.460  0.00  0.00    -0.352 N 
ATOM      7  H18 <0> d          -3.627   1.773  -4.924  0.00  0.00     0.163 HD
ENDROOT
BRANCH   1   8
ATOM      8  C9  <0> d          -1.007   0.423  -4.805  0.00  0.00     0.040 C 
BRANCH   8   9
ATOM      9  C8  <0> d          -1.076   1.409  -3.636  0.00  0.00     0.105 C 
BRANCH   9  10
ATOM     10  C7  <0> d          -0.283   0.867  -2.475  0.00  0.00     0.218 C 
ATOM     11  N2  <0> d          -0.201   1.571  -1.328  0.00  0.00    -0.351 N 
ATOM     12  H9  <0> d          -0.652   2.425  -1.250  0.00  0.00     0.163 HD
ATOM     13  O1  <0> d           0.282  -0.202  -2.572  0.00  0.00    -0.274 OA
BRANCH  11  14
ATOM     14  C5  <0> d           0.570   1.044  -0.199  0.00  0.00     0.140 C 
ATOM     15  C6  <0> d           2.043   1.424  -0.366  0.00  0.00     0.039 C 
BRANCH  14  16
ATOM     16  C4  <0> d           0.043   1.629   1.086  0.00  0.00     0.097 A 
ATOM     17  S1  <0> d          -0.370   3.277   1.446  0.00  0.00    -0.083 SA
ATOM     18  C3  <0> d          -0.884   3.021   3.138  0.00  0.00     0.078 A 
ATOM     19  C2  <0> d          -0.679   1.685   3.262  0.00  0.00     0.038 A 
ATOM     20  C1  <0> d          -0.973   0.976   4.559  0.00  0.00     0.071 C 
ATOM     21  N1  <0> d          -0.217   1.024   2.221  0.00  0.00    -0.248 NA
ENDBRANCH  14  16
ENDBRANCH  11  14
ENDBRANCH   9  10
ENDBRANCH   8   9
ENDBRANCH   1   8
BRANCH   1  22
ATOM     22  C14 <0> d          -1.415   2.252  -6.475  0.00  0.00     0.069 C 
BRANCH  22  23
ATOM     23  C15 <0> d          -2.391   2.780  -7.494  0.00  0.00    -0.055 A 
ATOM     24  C24 <0> d          -3.481   3.481  -7.078  0.00  0.00     0.019 A 
ATOM     25  C23 <0> d          -4.394   3.974  -8.025  0.00  0.00    -0.025 A 
ATOM     26  C18 <0> d          -4.164   3.733  -9.403  0.00  0.00    -0.026 A 
ATOM     27  C22 <0> d          -5.530   4.703  -7.634  0.00  0.00     0.012 A 
ATOM     28  C17 <0> d          -3.027   3.005  -9.794  0.00  0.00     0.013 A 
ATOM     29  C19 <0> d          -5.076   4.227 -10.351  0.00  0.00     0.012 A 
ATOM     30  C16 <0> d          -2.162   2.547  -8.849  0.00  0.00     0.008 A 
ATOM     31  C20 <0> d          -6.166   4.929  -9.935  0.00  0.00     0.001 A 
ATOM     32  C21 <0> d          -6.392   5.166  -8.580  0.00  0.00     0.001 A 
ENDBRANCH  22  23
ENDBRANCH   1  22
TORSDOF 7
