REMARK  6 active torsions:
REMARK  status: ('A' for Active; 'I' for Inactive)
REMARK    1  A    between atoms: C2_2  and  C3_3 
REMARK    2  A    between atoms: C3_3  and  C4_4 
REMARK    3  A    between atoms: C5_5  and  C6_9 
REMARK       I    between atoms: C6_9  and  N3_11 
REMARK    4  A    between atoms: N3_11  and  C7_12 
REMARK    5  A    between atoms: C7_12  and  C8_13 
REMARK    6  A    between atoms: C8_13  and  C9_14 
ROOT
ATOM      1  C6  <0> d          -3.121  -3.006  -1.597  0.00  0.00     0.234 C 
ATOM      2  O1  <0> d          -2.236  -3.523  -2.245  0.00  0.00    -0.272 OA
ATOM      3  N3  <0> d          -4.336  -2.813  -2.147  0.00  0.00    -0.360 N 
ATOM      4  H12 <0> d          -5.043  -2.400  -1.629  0.00  0.00     0.162 HD
ENDROOT
BRANCH   3   5
ATOM      5  C7  <0> d          -4.587  -3.227  -3.530  0.00  0.00     0.127 C 
BRANCH   5   6
ATOM      6  C8  <0> d          -6.033  -2.898  -3.906  0.00  0.00     0.056 C 
BRANCH   6   7
ATOM      7  C9  <0> d          -6.292  -3.324  -5.328  0.00  0.00    -0.048 A 
ATOM      8  C16 <0> d          -6.001  -2.530  -6.582  0.00  0.00     0.155 A 
ATOM      9  N4  <0> d          -6.427  -3.376  -7.702  0.00  0.00    -0.385 N 
ATOM     10  C15 <0> d          -6.909  -4.496  -7.220  0.00  0.00     0.038 A 
ATOM     11  H22 <0> d          -6.367  -3.144  -8.642  0.00  0.00     0.160 HD
ATOM     12  C10 <0> d          -6.837  -4.490  -5.741  0.00  0.00    -0.004 A 
ATOM     13  C14 <0> d          -7.455  -5.644  -7.858  0.00  0.00     0.031 A 
ATOM     14  C11 <0> d          -7.332  -5.667  -5.018  0.00  0.00     0.037 A 
ATOM     15  C12 <0> d          -7.833  -6.708  -5.723  0.00  0.00     0.035 A 
ATOM     16  C13 <0> d          -7.890  -6.690  -7.124  0.00  0.00     0.026 A 
ATOM     17 Cl1  <0> d          -8.420  -8.102  -4.870  0.00  0.00    -0.084 Cl
ENDBRANCH   6   7
ENDBRANCH   5   6
ENDBRANCH   3   5
BRANCH   1  18
ATOM     18  C5  <0> d          -2.862  -2.580  -0.174  0.00  0.00     0.175 C 
ATOM     19  C4  <0> d          -1.413  -2.063   0.004  0.00  0.00     0.096 C 
ATOM     20  N2  <0> d          -0.788  -2.531   1.237  0.00  0.00    -0.245 NA
ATOM     21  N1  <0> d          -1.607  -3.368   2.113  0.00  0.00    -0.199 NA
ATOM     22  H11 <0> d           0.100  -2.970   1.048  0.00  0.00     0.141 HD
ATOM     23  S1  <0> d          -2.821  -4.032   0.967  0.00  0.00    -0.054 SA
ATOM     24  H10 <0> d          -1.058  -4.107   2.527  0.00  0.00     0.154 HD
BRANCH  19  25
ATOM     25  C3  <0> d          -1.433  -0.534   0.013  0.00  0.00     0.022 C 
BRANCH  25  26
ATOM     26  C2  <0> d           0.002  -0.004   0.002  0.00  0.00    -0.003 C 
ATOM     27  C1  <0> d          -0.019   1.526   0.010  0.00  0.00     0.005 C 
ENDBRANCH  25  26
ENDBRANCH  19  25
ENDBRANCH   1  18
TORSDOF 6
