REMARK  3 active torsions:
REMARK  status: ('A' for Active; 'I' for Inactive)
REMARK    1  A    between atoms: C8_9  and  N2_11 
REMARK       I    between atoms: N2_11  and  C10_12 
REMARK    2  A    between atoms: C10_12  and  C11_14 
REMARK    3  A    between atoms: C12_17  and  C14_22 
ROOT
ATOM      1  N2  <0> d           1.200  -2.090  -0.021  0.00  0.00    -0.319 N 
ATOM      2  C10 <0> d           0.040  -2.768   0.087  0.00  0.00     0.283 C 
ATOM      3  O1  <0> d          -1.017  -2.168   0.101  0.00  0.00    -0.265 OA
ATOM      4  H7  <0> d           2.037  -2.571  -0.113  0.00  0.00     0.169 HD
ENDROOT
BRANCH   2   5
ATOM      5  C11 <0> d           0.054  -4.242   0.190  0.00  0.00     0.189 A 
ATOM      6  S1  <0> d          -1.324  -5.368   0.343  0.00  0.00    -0.021 SA
ATOM      7  C13 <0> d          -0.393  -6.878   0.397  0.00  0.00     0.219 A 
ATOM      8  N4  <0> d           0.905  -6.429   0.304  0.00  0.00    -0.182 N 
ATOM      9  N6  <0> d          -0.382  -8.173   0.487  0.00  0.00    -0.120 NA
ATOM     10  N3  <0> d           1.079  -5.055   0.199  0.00  0.00    -0.150 NA
ATOM     11  C12 <0> d           1.655  -7.588   0.349  0.00  0.00     0.259 A 
ATOM     12  N5  <0> d           0.835  -8.594   0.459  0.00  0.00    -0.122 NA
BRANCH  11  13
ATOM     13  C14 <0> d           3.159  -7.674   0.284  0.00  0.00     0.454 C 
ATOM     14  F1  <0> d           3.539  -8.994   0.016  0.00  0.00    -0.163 F 
ATOM     15  F2  <0> d           3.630  -6.838  -0.734  0.00  0.00    -0.163 F 
ATOM     16  F3  <0> d           3.703  -7.271   1.508  0.00  0.00    -0.163 F 
ENDBRANCH  11  13
ENDBRANCH   2   5
BRANCH   1  17
ATOM     17  C8  <0> d           1.196  -0.694  -0.002  0.00  0.00     0.065 A 
ATOM     18  C7  <0> d           2.243   0.029  -0.615  0.00  0.00     0.093 A 
ATOM     19  C3  <0> d           2.214   1.444  -0.580  0.00  0.00    -0.005 A 
ATOM     20  N1  <0> d           3.253  -0.602  -1.220  0.00  0.00    -0.258 NA
ATOM     21  C2  <0> d           1.151   2.103   0.057  0.00  0.00     0.014 A 
ATOM     22  C4  <0> d           3.259   2.163  -1.191  0.00  0.00     0.015 A 
ATOM     23  C1  <0> d           0.154   1.380   0.640  0.00  0.00     0.003 A 
ATOM     24  C9  <0> d           0.170  -0.011   0.614  0.00  0.00     0.032 A 
ATOM     25  C5  <0> d           4.261   1.456  -1.793  0.00  0.00     0.020 A 
ATOM     26  C6  <0> d           4.228   0.063  -1.790  0.00  0.00     0.117 A 
ENDBRANCH   1  17
TORSDOF 3
