REMARK  5 active torsions:
REMARK  status: ('A' for Active; 'I' for Inactive)
REMARK    1  A    between atoms: C6_6  and  N1_8 
REMARK       I    between atoms: N1_8  and  C8_9 
REMARK    2  A    between atoms: C8_9  and  C9_11 
REMARK    3  A    between atoms: N4_24  and  C20_27 
REMARK    4  A    between atoms: C19_25  and  N5_26 
REMARK    5  A    between atoms: C20_27  and  C21_28 
ROOT
ATOM      1  C9  <0> d           0.273  -2.881   4.823  0.00  0.00     0.077 A 
ATOM      2  C10 <0> d           0.403  -4.272   4.810  0.00  0.00     0.042 A 
ATOM      3  C11 <0> d           0.521  -4.928   6.033  0.00  0.00     0.080 A 
ATOM      4  C12 <0> d           0.508  -4.180   7.241  0.00  0.00     0.149 A 
ATOM      5  N2  <0> d           0.623  -4.829   8.404  0.00  0.00    -0.212 NA
ATOM      6  C13 <0> d           0.749  -6.149   8.468  0.00  0.00     0.139 A 
ATOM      7  C14 <0> d           0.865  -6.754   9.739  0.00  0.00     0.051 A 
ATOM      8  C15 <0> d           0.995  -8.105   9.832  0.00  0.00     0.005 A 
ATOM      9  C16 <0> d           1.013  -8.883   8.664  0.00  0.00     0.018 A 
ATOM     10  C17 <0> d           0.902  -8.291   7.455  0.00  0.00     0.102 A 
ATOM     11  N3  <0> d           0.770  -6.937   7.348  0.00  0.00    -0.273 N 
ATOM     12  C18 <0> d           0.661  -6.383   6.118  0.00  0.00     0.267 A 
ATOM     13  O2  <0> d           0.679  -7.072   5.114  0.00  0.00    -0.267 OA
ATOM     14  N4  <0> d           0.382  -2.852   7.203  0.00  0.00    -0.314 N 
ATOM     15  C19 <0> d           0.273  -2.200   6.060  0.00  0.00     0.118 A 
ENDROOT
BRANCH   1  16
ATOM     16  C8  <0> d           0.144  -2.134   3.562  0.00  0.00     0.260 C 
ATOM     17  N1  <0> d           0.045  -2.798   2.393  0.00  0.00    -0.322 N 
ATOM     18  H8  <0> d          -0.022  -3.765   2.388  0.00  0.00     0.169 HD
ATOM     19  O1  <0> d           0.127  -0.918   3.574  0.00  0.00    -0.267 OA
BRANCH  17  20
ATOM     20  C6  <0> d           0.041  -2.091   1.186  0.00  0.00     0.041 A 
ATOM     21  C5  <0> d          -0.550  -2.645   0.058  0.00  0.00    -0.035 A 
ATOM     22  C4  <0> d          -0.553  -1.944  -1.133  0.00  0.00     0.009 A 
ATOM     23  C25 <0> d          -1.187  -4.008   0.132  0.00  0.00     0.050 C 
ATOM     24  C3  <0> d           0.031  -0.693  -1.202  0.00  0.00     0.007 A 
ATOM     25  C2  <0> d           0.620  -0.138  -0.080  0.00  0.00    -0.060 A 
ATOM     26  C1  <0> d           1.256   1.226  -0.159  0.00  0.00     0.048 C 
ATOM     27  C7  <0> d           0.632  -0.836   1.112  0.00  0.00     0.037 A 
ENDBRANCH  17  20
ENDBRANCH   1  16
BRANCH  15  28
ATOM     28  N5  <0> d           0.150  -0.826   6.075  0.00  0.00    -0.384 N 
ATOM     29  H14 <0> d           0.140  -0.331   5.241  0.00  0.00     0.157 HD
ATOM     30  H26 <0> d           0.074  -0.355   6.920  0.00  0.00     0.157 HD
ENDBRANCH  15  28
BRANCH  14  31
ATOM     31  C20 <0> d           0.370  -2.098   8.459  0.00  0.00     0.164 C 
BRANCH  31  32
ATOM     32  C21 <0> d           1.801  -1.702   8.829  0.00  0.00     0.140 C 
ATOM     33  O3  <0> d           2.569  -2.867   9.169  0.00  0.00    -0.384 OA
ATOM     34  C24 <0> d           3.472  -2.561  10.240  0.00  0.00     0.168 C 
ATOM     35  C23 <0> d           3.237  -1.089  10.643  0.00  0.00     0.029 C 
ATOM     36  C22 <0> d           1.803  -0.827  10.108  0.00  0.00     0.035 C 
ENDBRANCH  31  32
ENDBRANCH  14  31
TORSDOF 5
