REMARK  9 active torsions:
REMARK  status: ('A' for Active; 'I' for Inactive)
REMARK    1  A    between atoms: C2_2  and  C3_3 
REMARK    2  A    between atoms: C2_2  and  O1_9 
REMARK    3  A    between atoms: O1_9  and  C9_10 
REMARK    4  A    between atoms: C9_10  and  C10_11 
REMARK    5  A    between atoms: C10_11  and  C11_12 
REMARK    6  A    between atoms: C10_11  and  O2_21 
REMARK    7  A    between atoms: C11_12  and  N1_13 
REMARK    8  A    between atoms: N1_13  and  C12_14 
REMARK    9  A    between atoms: C12_14  and  C13_15 
ROOT
ATOM      1  C10 <0> d           2.732  -1.158   2.264  0.00  0.00     0.167 C 
ENDROOT
BRANCH   1   2
ATOM      2  C9  <0> d           2.099  -0.651   0.967  0.00  0.00     0.201 C 
BRANCH   2   3
ATOM      3  O1  <0> d           0.693  -0.477   1.160  0.00  0.00    -0.379 OA
BRANCH   3   4
ATOM      4  C2  <0> d           0.002  -0.004   0.002  0.00  0.00     0.150 C 
ATOM      5  C1  <0> d          -0.019   1.526   0.010  0.00  0.00     0.045 C 
BRANCH   4   6
ATOM      6  C3  <0> d          -1.412  -0.526   0.013  0.00  0.00    -0.030 A 
ATOM      7  C8  <0> d          -2.000  -0.954  -1.163  0.00  0.00     0.010 A 
ATOM      8  C7  <0> d          -3.295  -1.436  -1.153  0.00  0.00     0.001 A 
ATOM      9  C6  <0> d          -4.006  -1.482   0.032  0.00  0.00     0.000 A 
ATOM     10  C5  <0> d          -3.420  -1.049   1.207  0.00  0.00     0.001 A 
ATOM     11  C4  <0> d          -2.123  -0.571   1.197  0.00  0.00     0.010 A 
ENDBRANCH   4   6
ENDBRANCH   3   4
ENDBRANCH   2   3
ENDBRANCH   1   2
BRANCH   1  12
ATOM     12  C11 <0> d           4.252  -1.225   2.097  0.00  0.00     0.266 C 
BRANCH  12  13
ATOM     13  N1  <0> d           4.860  -1.712   3.343  0.00  0.00    -0.068 N 
ATOM     14  H15 <0> d           4.632  -1.082   4.097  0.00  0.00     0.277 HD
ATOM     15  H21 <0> d           4.504  -2.632   3.554  0.00  0.00     0.277 HD
BRANCH  13  16
ATOM     16  C12 <0> d           6.319  -1.777   3.182  0.00  0.00     0.278 C 
BRANCH  16  17
ATOM     17  C13 <0> d           6.943  -2.276   4.460  0.00  0.00     0.009 A 
ATOM     18  S1  <0> d           7.517  -1.344   5.870  0.00  0.00    -0.086 SA
ATOM     19  C16 <0> d           8.077  -2.714   6.867  0.00  0.00     0.051 A 
ATOM     20  C15 <0> d           7.801  -3.774   6.068  0.00  0.00     0.028 A 
ATOM     21 Br1  <0> d           8.860  -2.693   8.589  0.00  0.00    -0.043 Br
ATOM     22  C14 <0> d           7.219  -3.549   4.834  0.00  0.00     0.018 A 
ENDBRANCH  16  17
ENDBRANCH  13  16
ENDBRANCH  12  13
ENDBRANCH   1  12
BRANCH   1  23
ATOM     23  O2  <0> d           2.228  -2.461   2.563  0.00  0.00    -0.392 OA
ATOM     24  H20 <0> d           2.411  -3.120   1.880  0.00  0.00     0.210 HD
ENDBRANCH   1  23
TORSDOF 9
