REMARK  4 active torsions:
REMARK  status: ('A' for Active; 'I' for Inactive)
REMARK    1  A    between atoms: C2_2  and  C3_3 
REMARK    2  A    between atoms: C2_2  and  N1_8 
REMARK    3  A    between atoms: N1_8  and  C7_9 
REMARK    4  A    between atoms: C7_9  and  C12_15 
ROOT
ATOM      1  N1  <0> d           0.859  -0.646  -0.516  0.00  0.00    -0.050 N 
ATOM      2  H12 <0> d           0.668  -1.609  -0.751  0.00  0.00     0.279 HD
ATOM      3  H21 <0> d           0.055  -0.080  -0.741  0.00  0.00     0.279 HD
ENDROOT
BRANCH   1   4
ATOM      4  C2  <0> d           1.147  -0.540   0.920  0.00  0.00     0.212 C 
ATOM      5  C1  <0> d           1.237   0.936   1.314  0.00  0.00     0.043 C 
BRANCH   4   6
ATOM      6  C3  <0> d           0.027  -1.213   1.716  0.00  0.00     0.151 C 
ATOM      7  O1  <0> d          -1.228  -0.595   1.407  0.00  0.00    -0.384 OA
ATOM      8  C6  <0> d          -2.112  -1.558   0.808  0.00  0.00     0.168 C 
ATOM      9  C5  <0> d          -1.609  -2.936   1.308  0.00  0.00     0.029 C 
ATOM     10  C4  <0> d          -0.074  -2.702   1.321  0.00  0.00     0.036 C 
ENDBRANCH   4   6
ENDBRANCH   1   4
BRANCH   1  11
ATOM     11  C7  <0> d           2.019  -0.176  -1.285  0.00  0.00     0.214 C 
ATOM     12  C11 <0> d           3.262  -0.938  -0.834  0.00  0.00     0.060 C 
ATOM     13  C10 <0> d           2.974  -2.442  -0.815  0.00  0.00     0.077 C 
ATOM     14  S1  <0> d           2.580  -2.982  -2.506  0.00  0.00    -0.169 SA
ATOM     15  C9  <0> d           1.270  -1.827  -3.011  0.00  0.00     0.077 C 
ATOM     16  C8  <0> d           1.759  -0.395  -2.772  0.00  0.00     0.060 C 
BRANCH  11  17
ATOM     17  C12 <0> d           2.220   1.296  -1.029  0.00  0.00     0.210 C 
ATOM     18  O2  <0> d           1.255   2.035  -0.936  0.00  0.00    -0.646 OA
ATOM     19  O3  <0> d           3.347   1.746  -0.915  0.00  0.00    -0.646 OA
ENDBRANCH  11  17
ENDBRANCH   1  11
TORSDOF 4
