REMARK  5 active torsions:
REMARK  status: ('A' for Active; 'I' for Inactive)
REMARK    1  A    between atoms: C2_2  and  O1_4 
REMARK    2  A    between atoms: O1_4  and  C4_5 
REMARK    3  A    between atoms: C7_8  and  C10_11 
REMARK    4  A    between atoms: C11_14  and  C12_16 
REMARK    5  A    between atoms: C13_17  and  O4_27 
ROOT
ATOM      1  C10 <0> d          -2.338  -5.205  -2.870  0.00  0.00     0.163 A 
ATOM      2  N1  <0> d          -1.425  -5.915  -3.448  0.00  0.00    -0.113 NA
ATOM      3  O2  <0> d          -1.992  -7.040  -4.093  0.00  0.00    -0.227 OA
ATOM      4  C11 <0> d          -3.408  -6.974  -3.860  0.00  0.00     0.274 A 
ATOM      5  N2  <0> d          -3.592  -5.759  -3.050  0.00  0.00    -0.343 N 
ATOM      6  H14 <0> d          -4.432  -5.413  -2.709  0.00  0.00     0.164 HD
ENDROOT
BRANCH   4   7
ATOM      7  C12 <0> d          -4.162  -6.859  -5.186  0.00  0.00     0.186 A 
ATOM      8  C20 <0> d          -5.606  -6.539  -4.872  0.00  0.00     0.237 A 
ATOM      9  N3  <0> d          -6.566  -7.337  -5.292  0.00  0.00    -0.326 N 
ATOM     10  O3  <0> d          -5.882  -5.542  -4.231  0.00  0.00    -0.272 OA
ATOM     11  C19 <0> d          -6.344  -8.451  -6.000  0.00  0.00     0.047 A 
ATOM     12  H20 <0> d          -7.483  -7.106  -5.075  0.00  0.00     0.169 HD
ATOM     13  C14 <0> d          -4.993  -8.879  -6.372  0.00  0.00     0.021 A 
ATOM     14  C18 <0> d          -7.427  -9.248  -6.408  0.00  0.00     0.030 A 
ATOM     15  C13 <0> d          -3.887  -8.117  -5.988  0.00  0.00     0.073 A 
ATOM     16  C15 <0> d          -4.826 -10.063  -7.120  0.00  0.00     0.016 A 
ATOM     17  C16 <0> d          -5.920 -10.787  -7.482  0.00  0.00     0.001 A 
ATOM     18  C17 <0> d          -7.204 -10.383  -7.129  0.00  0.00     0.002 A 
BRANCH  15  19
ATOM     19  O4  <0> d          -2.642  -8.480  -6.312  0.00  0.00    -0.363 OA
ATOM     20  H19 <0> d          -2.592  -9.299  -6.824  0.00  0.00     0.217 HD
ENDBRANCH  15  19
ENDBRANCH   4   7
BRANCH   1  21
ATOM     21  C7  <0> d          -2.074  -3.963  -2.109  0.00  0.00     0.012 A 
ATOM     22  C6  <0> d          -0.770  -3.483  -1.984  0.00  0.00     0.018 A 
ATOM     23  C5  <0> d          -0.528  -2.327  -1.275  0.00  0.00     0.038 A 
ATOM     24  C4  <0> d          -1.581  -1.638  -0.686  0.00  0.00     0.069 A 
ATOM     25  C9  <0> d          -2.880  -2.116  -0.804  0.00  0.00     0.038 A 
ATOM     26  C8  <0> d          -3.129  -3.269  -1.515  0.00  0.00     0.018 A 
BRANCH  24  27
ATOM     27  O1  <0> d          -1.339  -0.499   0.012  0.00  0.00    -0.347 OA
BRANCH  27  28
ATOM     28  C2  <0> d           0.000   0.001  -0.005  0.00  0.00     0.120 C 
ATOM     29  C1  <0> d          -0.014   1.508   0.257  0.00  0.00     0.040 C 
ATOM     30  C3  <0> d           0.819  -0.698   1.082  0.00  0.00     0.040 C 
ENDBRANCH  27  28
ENDBRANCH  24  27
ENDBRANCH   1  21
TORSDOF 5
