REMARK  4 active torsions:
REMARK  status: ('A' for Active; 'I' for Inactive)
REMARK    1  A    between atoms: C5_5  and  N2_11 
REMARK    2  A    between atoms: C7_7  and  N1_8 
REMARK    3  A    between atoms: N2_11  and  S1_12 
REMARK    4  A    between atoms: S1_12  and  C10_15 
ROOT
ATOM      1  N2  <0> d          -1.197  -0.720   0.009  0.00  0.00    -0.279 N 
ATOM      2  H18 <0> d          -2.009  -0.426   0.692  0.00  0.00     0.179 HD
ENDROOT
BRANCH   1   3
ATOM      3  C5  <0> d           0.002  -0.004   0.002  0.00  0.00     0.044 A 
ATOM      4  C4  <0> d           1.216  -0.681  -0.013  0.00  0.00     0.031 A 
ATOM      5  C3  <0> d           2.403   0.026  -0.021  0.00  0.00     0.011 A 
ATOM      6  C2  <0> d           2.388   1.407  -0.014  0.00  0.00    -0.041 A 
ATOM      7  C1  <0> d           3.685   2.175  -0.023  0.00  0.00     0.050 C 
ATOM      8  C7  <0> d           1.177   2.091   0.002  0.00  0.00     0.018 A 
ATOM      9  C6  <0> d          -0.017   1.383   0.010  0.00  0.00     0.054 A 
BRANCH   8  10
ATOM     10  N1  <0> d           1.163   3.487   0.010  0.00  0.00    -0.291 NA
ATOM     11  C8  <0> d           0.461   4.013  -1.169  0.00  0.00     0.116 C 
ATOM     12  C9  <0> d           0.567   4.001   1.250  0.00  0.00     0.116 C 
ENDBRANCH   8  10
ENDBRANCH   1   3
BRANCH   1  13
ATOM     13  S1  <0> d          -1.398  -2.009  -1.010  0.00  0.00     0.282 S 
ATOM     14  O1  <0> d          -2.692  -2.535  -0.749  0.00  0.00    -0.199 OA
ATOM     15  O2  <0> d          -1.000  -1.572  -2.302  0.00  0.00    -0.199 OA
BRANCH  13  16
ATOM     16  C10 <0> d          -0.243  -3.246  -0.519  0.00  0.00     0.188 A 
ATOM     17  N4  <0> d           1.008  -3.383  -0.980  0.00  0.00    -0.229 NA
ATOM     18  C12 <0> d           1.574  -4.403  -0.395  0.00  0.00     0.210 A 
ATOM     19  N3  <0> d           0.687  -4.957   0.460  0.00  0.00    -0.353 N 
ATOM     20  C11 <0> d          -0.465  -4.223   0.381  0.00  0.00     0.137 A 
ATOM     21  C13 <0> d           0.916  -6.126   1.313  0.00  0.00     0.156 C 
ENDBRANCH  13  16
ENDBRANCH   1  13
TORSDOF 4
