REMARK  3 active torsions:
REMARK  status: ('A' for Active; 'I' for Inactive)
REMARK    1  A    between atoms: C4_5  and  C5_7 
REMARK    2  A    between atoms: C6_8  and  N3_20 
REMARK    3  A    between atoms: N2_9  and  C9_13 
ROOT
ATOM      1  C5  <0> d           0.706   3.618   0.014  0.00  0.00     0.091 A 
ATOM      2  C6  <0> d           1.072   2.275   0.004  0.00  0.00     0.114 A 
ATOM      3  N2  <0> d          -0.018   1.461   0.010  0.00  0.00    -0.354 N 
ATOM      4  C7  <0> d          -1.218   2.308   0.020  0.00  0.00     0.209 A 
ATOM      5  C8  <0> d          -0.694   3.729   0.028  0.00  0.00     0.183 A 
ATOM      6  O1  <0> d          -1.349   4.753   0.039  0.00  0.00    -0.290 OA
ENDROOT
BRANCH   1   7
ATOM      7  C4  <0> d           1.648   4.753   0.011  0.00  0.00     0.116 A 
ATOM      8  S1  <0> d           3.436   4.745   0.001  0.00  0.00    -0.072 SA
ATOM      9  C3  <0> d           3.662   6.519   0.000  0.00  0.00     0.005 A 
ATOM     10  C2  <0> d           2.372   6.938   0.015  0.00  0.00     0.044 A 
ATOM     11  C13 <0> d           4.935   7.326  -0.008  0.00  0.00     0.058 C 
ATOM     12  C1  <0> d           2.058   8.412   0.025  0.00  0.00     0.071 C 
ATOM     13  N1  <0> d           1.396   6.056   0.020  0.00  0.00    -0.244 NA
ENDBRANCH   1   7
BRANCH   2  14
ATOM     14  N3  <0> d           2.362   1.831  -0.009  0.00  0.00    -0.385 N 
ATOM     15  H13 <0> d           2.547   0.879  -0.015  0.00  0.00     0.157 HD
ATOM     16  H14 <0> d           3.094   2.468  -0.013  0.00  0.00     0.157 HD
ENDBRANCH   2  14
BRANCH   3  17
ATOM     17  C9  <0> d           0.002  -0.004   0.002  0.00  0.00     0.101 C 
ATOM     18  C12 <0> d           0.750  -0.515   1.257  0.00  0.00     0.165 C 
ATOM     19  S2  <0> d           1.522  -2.074   0.660  0.00  0.00     0.146 S 
ATOM     20  C11 <0> d           0.998  -2.018  -1.105  0.00  0.00     0.142 C 
ATOM     21  O2  <0> d           2.935  -1.946   0.727  0.00  0.00    -0.228 OA
ATOM     22  O3  <0> d           0.889  -3.176   1.297  0.00  0.00    -0.228 OA
ATOM     23  C10 <0> d           0.712  -0.498  -1.269  0.00  0.00     0.041 C 
ENDBRANCH   3  17
TORSDOF 3
