REMARK  4 active torsions:
REMARK  status: ('A' for Active; 'I' for Inactive)
REMARK    1  A    between atoms: N1_2  and  C2_3 
REMARK    2  A    between atoms: C3_4  and  N5_17 
REMARK    3  A    between atoms: C4_5  and  N4_9 
REMARK    4  A    between atoms: N4_9  and  C6_10 
ROOT
ATOM      1  C2  <0> d          -1.212  -0.714  -0.188  0.00  0.00     0.154 A 
ATOM      2  C3  <0> d          -1.208  -2.110  -0.208  0.00  0.00     0.118 A 
ATOM      3  C4  <0> d          -2.412  -2.776   0.024  0.00  0.00     0.159 A 
ATOM      4  N2  <0> d          -3.511  -2.061   0.254  0.00  0.00    -0.222 NA
ATOM      5  C5  <0> d          -3.472  -0.744   0.265  0.00  0.00     0.237 A 
ATOM      6  N3  <0> d          -2.355  -0.076   0.056  0.00  0.00    -0.222 NA
ENDROOT
BRANCH   3   7
ATOM      7  N4  <0> d          -2.463  -4.166   0.014  0.00  0.00    -0.339 N 
ATOM      8  H6  <0> d          -1.645  -4.681  -0.072  0.00  0.00     0.167 HD
BRANCH   7   9
ATOM      9  C6  <0> d          -3.693  -4.821   0.127  0.00  0.00     0.033 A 
ATOM     10  C11 <0> d          -4.829  -4.274  -0.455  0.00  0.00     0.031 A 
ATOM     11  C10 <0> d          -6.041  -4.926  -0.346  0.00  0.00     0.020 A 
ATOM     12  C9  <0> d          -6.127  -6.117   0.352  0.00  0.00     0.006 A 
ATOM     13  C8  <0> d          -4.998  -6.662   0.938  0.00  0.00     0.020 A 
ATOM     14  I1  <0> d          -7.970  -7.099   0.521  0.00  0.00    -0.045 I 
ATOM     15  C7  <0> d          -3.782  -6.017   0.827  0.00  0.00     0.031 A 
ENDBRANCH   7   9
ENDBRANCH   3   7
BRANCH   2  16
ATOM     16  N5  <0> d          -0.024  -2.824  -0.456  0.00  0.00    -0.393 N 
ATOM     17  H11 <0> d           0.805  -2.347  -0.616  0.00  0.00     0.156 HD
ATOM     18  H12 <0> d          -0.036  -3.794  -0.467  0.00  0.00     0.156 HD
ENDBRANCH   2  16
BRANCH   1  19
ATOM     19  N1  <0> d          -0.041  -0.001  -0.412  0.00  0.00    -0.377 N 
ATOM     20  C1  <0> d          -0.057   1.464  -0.382  0.00  0.00     0.148 C 
ATOM     21  H4  <0> d           0.788  -0.473  -0.589  0.00  0.00     0.160 HD
ENDBRANCH   1  19
TORSDOF 4
