REMARK  5 active torsions:
REMARK  status: ('A' for Active; 'I' for Inactive)
REMARK    1  A    between atoms: C9_10  and  C13_16 
REMARK    2  A    between atoms: C13_16  and  C14_17 
REMARK       I    between atoms: C14_17  and  N1_19 
REMARK    3  A    between atoms: N2_22  and  C19_25 
REMARK    4  A    between atoms: C19_25  and  C20_26 
REMARK    5  A    between atoms: C20_26  and  O5_27 
ROOT
ATOM      1  C1  <0> d           1.358  11.860  -1.564  0.00  0.00     0.052 C 
ATOM      2  C2  <0> d           1.647  11.009  -2.774  0.00  0.00    -0.020 A 
ATOM      3  C3  <0> d           1.745  11.423  -4.043  0.00  0.00     0.056 A 
ATOM      4  O1  <0> d           2.011  10.383  -4.853  0.00  0.00    -0.314 OA
ATOM      5  C4  <0> d           2.100   9.235  -4.152  0.00  0.00     0.089 A 
ATOM      6  C5  <0> d           1.876   9.558  -2.797  0.00  0.00     0.007 A 
ATOM      7  C6  <0> d           1.905   8.569  -1.824  0.00  0.00     0.029 A 
ATOM      8  C7  <0> d           2.158   7.249  -2.199  0.00  0.00     0.005 A 
ATOM      9  C8  <0> d           2.195   6.179  -1.197  0.00  0.00    -0.036 A 
ATOM     10  C9  <0> d           2.445   4.914  -1.619  0.00  0.00     0.033 A 
ATOM     11  C10 <0> d           2.666   4.662  -2.990  0.00  0.00     0.295 A 
ATOM     12  O2  <0> d           2.895   3.523  -3.353  0.00  0.00    -0.259 OA
ATOM     13  O3  <0> d           2.626   5.643  -3.904  0.00  0.00    -0.274 OA
ATOM     14  C11 <0> d           2.382   6.926  -3.553  0.00  0.00     0.093 A 
ATOM     15  C12 <0> d           2.352   7.921  -4.516  0.00  0.00     0.076 A 
ATOM     16  C21 <0> d           1.962   6.477   0.262  0.00  0.00     0.050 C 
ATOM     17  C22 <0> d           1.580  12.850  -4.499  0.00  0.00     0.077 C 
ENDROOT
BRANCH  10  18
ATOM     18  C13 <0> d           2.492   3.782  -0.626  0.00  0.00     0.148 C 
BRANCH  18  19
ATOM     19  C14 <0> d           1.115   3.189  -0.474  0.00  0.00     0.224 C 
ATOM     20  O4  <0> d           0.187   3.641  -1.109  0.00  0.00    -0.273 OA
ATOM     21  N1  <0> d           0.915   2.156   0.369  0.00  0.00    -0.349 N 
ATOM     22  C18 <0> d           2.027   1.593   1.150  0.00  0.00     0.156 C 
ATOM     23  C15 <0> d          -0.420   1.562   0.532  0.00  0.00     0.156 C 
ATOM     24  C17 <0> d           2.047   0.074   0.944  0.00  0.00     0.292 C 
ATOM     25  N2  <0> d           0.723  -0.477   1.262  0.00  0.00     0.093 N 
ATOM     26  C16 <0> d          -0.304   0.045   0.350  0.00  0.00     0.292 C 
BRANCH  25  27
ATOM     27  C19 <0> d           0.746  -1.946   1.243  0.00  0.00     0.298 C 
BRANCH  27  28
ATOM     28  C20 <0> d           1.884  -2.449   2.133  0.00  0.00     0.194 C 
BRANCH  28  29
ATOM     29  O5  <0> d           1.654  -2.035   3.481  0.00  0.00    -0.399 OA
ATOM     30  H20 <0> d           2.371  -2.306   4.270  0.00  0.00     0.209 HD
ENDBRANCH  28  29
ENDBRANCH  27  28
ENDBRANCH  25  27
ENDBRANCH  18  19
ENDBRANCH  10  18
TORSDOF 5
