REMARK  9 active torsions:
REMARK  status: ('A' for Active; 'I' for Inactive)
REMARK    1  A    between atoms: O1_2  and  C2_3 
REMARK    2  A    between atoms: C2_3  and  C3_5 
REMARK    3  A    between atoms: C3_5  and  N1_6 
REMARK       I    between atoms: N1_6  and  C4_7 
REMARK    4  A    between atoms: C4_7  and  C5_9 
REMARK    5  A    between atoms: C8_12  and  N2_15 
REMARK    6  A    between atoms: N2_15  and  S1_16 
REMARK    7  A    between atoms: S1_16  and  C11_19 
REMARK    8  A    between atoms: C14_22  and  C17_25 
REMARK    9  A    between atoms: C18_26  and  C19_27 
ROOT
ATOM      1  N2  <0> d           3.089   4.194  -1.528  0.00  0.00    -0.281 N 
ATOM      2  H11 <0> d           3.160   3.231  -1.620  0.00  0.00     0.179 HD
ENDROOT
BRANCH   1   3
ATOM      3  C8  <0> d           2.310   4.922  -2.421  0.00  0.00     0.042 A 
ATOM      4  C7  <0> d           2.921   5.698  -3.403  0.00  0.00     0.031 A 
ATOM      5  C6  <0> d           2.153   6.420  -4.287  0.00  0.00     0.019 A 
ATOM      6  C5  <0> d           0.758   6.374  -4.200  0.00  0.00     0.032 A 
ATOM      7  C10 <0> d           0.148   5.594  -3.213  0.00  0.00     0.019 A 
ATOM      8  C9  <0> d           0.922   4.870  -2.335  0.00  0.00     0.031 A 
BRANCH   6   9
ATOM      9  C4  <0> d          -0.068   7.147  -5.146  0.00  0.00     0.252 C 
ATOM     10  N1  <0> d          -1.412   7.101  -5.061  0.00  0.00    -0.348 N 
ATOM     11  H6  <0> d          -1.836   6.560  -4.377  0.00  0.00     0.163 HD
ATOM     12  O3  <0> d           0.464   7.826  -6.004  0.00  0.00    -0.268 OA
BRANCH  10  13
ATOM     13  C3  <0> d          -2.232   7.869  -6.001  0.00  0.00     0.233 C 
BRANCH  13  14
ATOM     14  C2  <0> d          -3.691   7.647  -5.692  0.00  0.00     0.276 C 
ATOM     15  O2  <0> d          -4.012   6.922  -4.781  0.00  0.00    -0.263 OA
BRANCH  14  16
ATOM     16  O1  <0> d          -4.633   8.255  -6.430  0.00  0.00    -0.325 OA
ATOM     17  C1  <0> d          -6.017   7.995  -6.077  0.00  0.00     0.213 C 
ENDBRANCH  14  16
ENDBRANCH  13  14
ENDBRANCH  10  13
ENDBRANCH   6   9
ENDBRANCH   1   3
BRANCH   1  18
ATOM     18  S1  <0> d           3.895   4.971  -0.308  0.00  0.00     0.263 S 
ATOM     19  O4  <0> d           4.609   6.042  -0.911  0.00  0.00    -0.200 OA
ATOM     20  O5  <0> d           4.538   3.963   0.460  0.00  0.00    -0.200 OA
BRANCH  18  21
ATOM     21  C11 <0> d           2.679   5.702   0.737  0.00  0.00     0.079 A 
ATOM     22  C16 <0> d           2.318   7.025   0.553  0.00  0.00     0.026 A 
ATOM     23  C15 <0> d           1.367   7.604   1.367  0.00  0.00     0.013 A 
ATOM     24  C14 <0> d           0.763   6.848   2.377  0.00  0.00    -0.036 A 
ATOM     25  C13 <0> d           1.137   5.513   2.560  0.00  0.00     0.013 A 
ATOM     26  C12 <0> d           2.090   4.949   1.738  0.00  0.00     0.026 A 
BRANCH  24  27
ATOM     27  C17 <0> d          -0.257   7.456   3.246  0.00  0.00     0.018 C 
ATOM     28  C18 <0> d          -0.615   8.745   3.066  0.00  0.00     0.085 C 
BRANCH  28  29
ATOM     29  C19 <0> d          -1.629   9.349   3.930  0.00  0.00     0.198 C 
ATOM     30  O6  <0> d          -2.149   8.690   4.810  0.00  0.00    -0.645 OA
ATOM     31  O7  <0> d          -1.987  10.637   3.750  0.00  0.00    -0.645 OA
ENDBRANCH  28  29
ENDBRANCH  24  27
ENDBRANCH  18  21
ENDBRANCH   1  18
TORSDOF 9
