REMARK  1 active torsions:
REMARK  status: ('A' for Active; 'I' for Inactive)
REMARK    1  A    between atoms: C9_11  and  O3_14 
ROOT
ATOM      1  C1  <0> d          -0.019   1.526   0.010  0.00  0.00     0.014 C 
ATOM      2  C2  <0> d           0.002  -0.004   0.002  0.00  0.00     0.009 C 
ATOM      3  C3  <0> d          -1.444  -0.591   0.126  0.00  0.00     0.076 C 
ATOM      4  C4  <0> d          -1.369  -2.107   0.310  0.00  0.00     0.165 C 
ATOM      5  C5  <0> d          -1.292  -2.542   1.783  0.00  0.00     0.079 C 
ATOM      6  C6  <0> d          -0.073  -3.394   1.993  0.00  0.00     0.064 C 
ATOM      7  C7  <0> d          -0.017  -4.448   3.086  0.00  0.00     0.187 C 
ATOM      8  O1  <0> d           1.411  -4.666   3.244  0.00  0.00    -0.318 OA
ATOM      9  C8  <0> d           2.124  -3.610   2.767  0.00  0.00     0.298 C 
ATOM     10  O2  <0> d           3.325  -3.559   2.635  0.00  0.00    -0.261 OA
ATOM     11  C9  <0> d           1.149  -2.531   2.455  0.00  0.00     0.168 C 
ATOM     12  C10 <0> d           1.316  -1.622   1.323  0.00  0.00     0.018 C 
ATOM     13  C11 <0> d           0.625  -0.546   1.256  0.00  0.00    -0.023 C 
ATOM     14  O4  <0> d          -0.197  -2.599  -0.368  0.00  0.00    -0.353 OA
ATOM     15  C12 <0> d          -0.596  -3.877  -0.919  0.00  0.00     0.197 C 
ATOM     16  C13 <0> d          -2.065  -3.598  -1.324  0.00  0.00     0.197 C 
ATOM     17  O5  <0> d          -2.527  -2.711  -0.286  0.00  0.00    -0.353 OA
ENDROOT
BRANCH  11  18
ATOM     18  O3  <0> d           0.814  -1.802   3.638  0.00  0.00    -0.375 OA
ATOM     19  H14 <0> d           1.531  -1.248   3.975  0.00  0.00     0.211 HD
ENDBRANCH  11  18
TORSDOF 1
