REMARK  3 active torsions:
REMARK  status: ('A' for Active; 'I' for Inactive)
REMARK    1  A    between atoms: C9_9  and  N2_12 
REMARK       I    between atoms: N2_12  and  C11_13 
REMARK    2  A    between atoms: C11_13  and  C12_15 
REMARK    3  A    between atoms: C12_15  and  N3_16 
ROOT
ATOM      1  N2  <0> d           0.045  -1.961   3.623  0.00  0.00    -0.324 N 
ATOM      2  C11 <0> d          -0.042  -2.620   4.795  0.00  0.00     0.240 C 
ATOM      3  O1  <0> d          -0.025  -3.833   4.811  0.00  0.00    -0.271 OA
ATOM      4  H9  <0> d           0.112  -0.993   3.615  0.00  0.00     0.169 HD
ENDROOT
BRANCH   1   5
ATOM      5  C9  <0> d           0.039  -2.671   2.420  0.00  0.00     0.064 A 
ATOM      6  C8  <0> d          -0.546  -3.916   2.352  0.00  0.00     0.032 A 
ATOM      7  C7  <0> d          -0.560  -4.633   1.159  0.00  0.00     0.003 A 
ATOM      8  C6  <0> d           0.004  -4.125   0.029  0.00  0.00     0.014 A 
ATOM      9  C5  <0> d           0.611  -2.859   0.058  0.00  0.00    -0.005 A 
ATOM     10  C4  <0> d           1.203  -2.305  -1.093  0.00  0.00     0.016 A 
ATOM     11  C10 <0> d           0.633  -2.118   1.264  0.00  0.00     0.094 A 
ATOM     12  C3  <0> d           1.776  -1.069  -0.992  0.00  0.00     0.027 A 
ATOM     13  C2  <0> d           1.762  -0.394   0.226  0.00  0.00     0.031 A 
ATOM     14  C1  <0> d           2.399   0.969   0.317  0.00  0.00     0.070 C 
ATOM     15  N1  <0> d           1.214  -0.915   1.297  0.00  0.00    -0.251 NA
ENDBRANCH   1   5
BRANCH   2  16
ATOM     16  C12 <0> d          -0.161  -1.851   6.086  0.00  0.00     0.236 C 
BRANCH  16  17
ATOM     17  N3  <0> d          -0.240  -2.789   7.208  0.00  0.00    -0.301 N 
ATOM     18  C16 <0> d           0.889  -3.198   7.815  0.00  0.00     0.331 A 
ATOM     19  N4  <0> d           0.845  -4.056   8.852  0.00  0.00    -0.271 N 
ATOM     20  O3  <0> d           1.963  -2.784   7.425  0.00  0.00    -0.246 OA
ATOM     21  C15 <0> d          -0.338  -4.529   9.293  0.00  0.00     0.252 A 
ATOM     22  C17 <0> d           2.088  -4.481   9.499  0.00  0.00     0.164 C 
ATOM     23  C14 <0> d          -1.533  -4.111   8.659  0.00  0.00     0.092 A 
ATOM     24  O2  <0> d          -0.378  -5.309  10.227  0.00  0.00    -0.268 OA
ATOM     25  C13 <0> d          -1.461  -3.246   7.625  0.00  0.00     0.102 A 
ENDBRANCH  16  17
ENDBRANCH   2  16
TORSDOF 3
