REMARK  6 active torsions:
REMARK  status: ('A' for Active; 'I' for Inactive)
REMARK    1  A    between atoms: N2_4  and  C3_5 
REMARK    2  A    between atoms: C10_16  and  N5_18 
REMARK       I    between atoms: N5_18  and  C12_19 
REMARK    3  A    between atoms: C12_19  and  C13_21 
REMARK    4  A    between atoms: C16_24  and  C19_27 
REMARK    5  A    between atoms: C22_30  and  O2_33 
REMARK    6  A    between atoms: O2_33  and  C25_34 
ROOT
ATOM      1  N5  <0> d          -0.742   2.996   4.363  0.00  0.00    -0.307 N 
ATOM      2  C12 <0> d          -1.691   3.791   4.896  0.00  0.00     0.257 C 
ATOM      3  O1  <0> d          -2.803   3.821   4.405  0.00  0.00    -0.267 OA
ATOM      4  H11 <0> d           0.124   2.920   4.794  0.00  0.00     0.170 HD
ENDROOT
BRANCH   1   5
ATOM      5  C10 <0> d          -1.004   2.282   3.190  0.00  0.00     0.152 A 
ATOM      6  N2  <0> d          -0.130   1.545   2.488  0.00  0.00    -0.046 N 
ATOM      7  N1  <0> d          -0.711   1.023   1.468  0.00  0.00    -0.156 NA
ATOM      8  C2  <0> d          -1.976   1.379   1.422  0.00  0.00     0.055 A 
ATOM      9  C1  <0> d          -2.981   0.972   0.376  0.00  0.00     0.072 C 
ATOM     10  C11 <0> d          -2.217   2.198   2.527  0.00  0.00     0.079 A 
BRANCH   6  11
ATOM     11  C3  <0> d           1.165   1.374   2.808  0.00  0.00     0.708 A 
ATOM     12  N4  <0> d           2.135   0.997   1.951  0.00  0.00    -0.188 N 
ATOM     13  C9  <0> d           3.334   0.930   2.649  0.00  0.00     0.076 A 
ATOM     14  H2  <0> d           2.015   0.804   1.007  0.00  0.00     0.184 HD
ATOM     15  C4  <0> d           3.054   1.284   3.971  0.00  0.00     0.076 A 
ATOM     16  C8  <0> d           4.632   0.602   2.282  0.00  0.00     0.032 A 
ATOM     17  N3  <0> d           1.694   1.560   4.035  0.00  0.00    -0.188 N 
ATOM     18  C5  <0> d           4.074   1.305   4.911  0.00  0.00     0.032 A 
ATOM     19  H1  <0> d           1.207   1.836   4.827  0.00  0.00     0.184 HD
ATOM     20  C6  <0> d           5.362   0.977   4.536  0.00  0.00     0.002 A 
ATOM     21  C7  <0> d           5.639   0.626   3.225  0.00  0.00     0.002 A 
ENDBRANCH   6  11
ENDBRANCH   1   5
BRANCH   2  22
ATOM     22  C13 <0> d          -1.381   4.623   6.075  0.00  0.00     0.032 A 
ATOM     23  C18 <0> d          -2.394   5.358   6.698  0.00  0.00     0.018 A 
ATOM     24  C17 <0> d          -2.104   6.134   7.797  0.00  0.00     0.013 A 
ATOM     25  C16 <0> d          -0.799   6.187   8.289  0.00  0.00    -0.026 A 
ATOM     26  C15 <0> d           0.212   5.453   7.669  0.00  0.00     0.013 A 
ATOM     27  C14 <0> d          -0.076   4.672   6.573  0.00  0.00     0.018 A 
BRANCH  25  28
ATOM     28  C19 <0> d          -0.488   7.023   9.473  0.00  0.00    -0.026 A 
ATOM     29  C24 <0> d           0.815   7.078   9.967  0.00  0.00     0.015 A 
ATOM     30  C23 <0> d           1.101   7.857  11.068  0.00  0.00     0.038 A 
ATOM     31  C22 <0> d           0.094   8.586  11.685  0.00  0.00     0.079 A 
ATOM     32  C21 <0> d          -1.205   8.534  11.196  0.00  0.00     0.038 A 
ATOM     33  C20 <0> d          -1.496   7.762  10.091  0.00  0.00     0.015 A 
BRANCH  31  34
ATOM     34  O2  <0> d           0.379   9.353  12.770  0.00  0.00    -0.279 OA
BRANCH  34  35
ATOM     35  C25 <0> d           1.132  10.446  12.563  0.00  0.00     0.260 C 
ATOM     36  O3  <0> d           1.444  10.760  11.439  0.00  0.00    -0.265 OA
ATOM     37  C26 <0> d           1.587  11.280  13.732  0.00  0.00     0.126 C 
ENDBRANCH  34  35
ENDBRANCH  31  34
ENDBRANCH  25  28
ENDBRANCH   2  22
TORSDOF 6
