REMARK  4 active torsions:
REMARK  status: ('A' for Active; 'I' for Inactive)
REMARK    1  A    between atoms: C2_2  and  C3_3 
REMARK    2  A    between atoms: C3_3  and  N1_4 
REMARK    3  A    between atoms: C7_8  and  N2_21 
REMARK    4  A    between atoms: C10_12  and  C12_15 
ROOT
ATOM      1  N1  <0> d          -2.850   1.522   2.483  0.00  0.00    -0.313 N 
ATOM      2  C4  <0> d          -2.820   0.763   3.664  0.00  0.00     0.070 A 
ATOM      3  C5  <0> d          -1.903  -0.263   3.822  0.00  0.00     0.035 A 
ATOM      4  C6  <0> d          -1.888  -1.000   4.991  0.00  0.00     0.031 A 
ATOM      5  C7  <0> d          -2.790  -0.715   6.007  0.00  0.00     0.028 A 
ATOM      6  C8  <0> d          -3.702   0.318   5.856  0.00  0.00     0.068 A 
ATOM      7  C9  <0> d          -3.722   1.054   4.685  0.00  0.00     0.099 A 
ATOM      8  O1  <0> d          -4.620   2.061   4.516  0.00  0.00    -0.329 OA
ATOM      9  C10 <0> d          -4.193   3.179   3.735  0.00  0.00     0.254 C 
ATOM     10  C11 <0> d          -3.525   2.692   2.474  0.00  0.00     0.258 C 
ATOM     11  O2  <0> d          -3.594   3.348   1.456  0.00  0.00    -0.270 OA
ENDROOT
BRANCH   9  12
ATOM     12  C12 <0> d          -3.216   4.004   4.533  0.00  0.00    -0.020 A 
ATOM     13  C17 <0> d          -3.271   5.384   4.480  0.00  0.00     0.010 A 
ATOM     14  C16 <0> d          -2.375   6.140   5.212  0.00  0.00     0.001 A 
ATOM     15  C15 <0> d          -1.424   5.516   5.998  0.00  0.00     0.000 A 
ATOM     16  C14 <0> d          -1.370   4.136   6.052  0.00  0.00     0.001 A 
ATOM     17  C13 <0> d          -2.269   3.380   5.323  0.00  0.00     0.010 A 
ENDBRANCH   9  12
BRANCH   1  18
ATOM     18  C3  <0> d          -2.164   1.050   1.278  0.00  0.00     0.132 C 
BRANCH  18  19
ATOM     19  C2  <0> d          -0.729   1.579   1.267  0.00  0.00     0.016 C 
ATOM     20  C1  <0> d          -0.013   1.086   0.008  0.00  0.00     0.006 C 
ENDBRANCH  18  19
ENDBRANCH   1  18
BRANCH   5  21
ATOM     21  N2  <0> d          -2.772  -1.463   7.189  0.00  0.00    -0.399 N 
ATOM     22  H17 <0> d          -3.487  -1.238   7.994  0.00  0.00     0.156 HD
ATOM     23  H18 <0> d          -2.043  -2.278   7.312  0.00  0.00     0.156 HD
ENDBRANCH   5  21
TORSDOF 4
