REMARK  4 active torsions:
REMARK  status: ('A' for Active; 'I' for Inactive)
REMARK    1  A    between atoms: C7_7  and  O1_8 
REMARK    2  A    between atoms: O1_8  and  C8_9 
REMARK    3  A    between atoms: C8_9  and  C9_10 
REMARK    4  A    between atoms: C12_16  and  C13_17 
ROOT
ATOM      1  C9  <0> d          -4.592  -4.381   1.262  0.00  0.00     0.123 A 
ATOM      2  N1  <0> d          -4.756  -3.174   0.801  0.00  0.00    -0.159 NA
ATOM      3  N2  <0> d          -3.682  -2.410   0.399  0.00  0.00    -0.189 N 
ATOM      4  C10 <0> d          -3.758  -1.136  -0.197  0.00  0.00     0.162 C 
ATOM      5  N3  <0> d          -4.833  -0.690  -0.790  0.00  0.00    -0.281 NA
ATOM      6  C11 <0> d          -2.496  -0.349  -0.091  0.00  0.00     0.082 C 
ATOM      7  C12 <0> d          -2.503   1.011   0.019  0.00  0.00     0.034 C 
ATOM      8  C18 <0> d          -1.230  -1.127  -0.106  0.00  0.00     0.283 C 
ATOM      9  O2  <0> d          -0.186  -0.621  -0.482  0.00  0.00    -0.265 OA
ATOM     10  N5  <0> d          -1.272  -2.408   0.309  0.00  0.00    -0.182 NA
ATOM     11  C19 <0> d          -2.430  -2.961   0.569  0.00  0.00     0.201 A 
ATOM     12  S1  <0> d          -2.817  -4.575   1.193  0.00  0.00    -0.031 SA
ATOM     13  H10 <0> d          -5.629  -1.242  -0.831  0.00  0.00     0.188 HD
ENDROOT
BRANCH   1  14
ATOM     14  C8  <0> d          -5.634  -5.364   1.732  0.00  0.00     0.244 C 
BRANCH  14  15
ATOM     15  O1  <0> d          -6.931  -4.778   1.608  0.00  0.00    -0.344 OA
BRANCH  15  16
ATOM     16  C7  <0> d          -7.990  -5.538   1.992  0.00  0.00     0.075 A 
ATOM     17  C2  <0> d          -9.279  -5.032   1.899  0.00  0.00    -0.029 A 
ATOM     18  C1  <0> d          -9.505  -3.639   1.371  0.00  0.00     0.051 C 
ATOM     19  C3  <0> d         -10.354  -5.807   2.291  0.00  0.00     0.009 A 
ATOM     20  C4  <0> d         -10.146  -7.085   2.775  0.00  0.00     0.001 A 
ATOM     21  C5  <0> d          -8.863  -7.591   2.870  0.00  0.00     0.003 A 
ATOM     22  C6  <0> d          -7.785  -6.823   2.474  0.00  0.00     0.037 A 
ENDBRANCH  15  16
ENDBRANCH  14  15
ENDBRANCH   1  14
BRANCH   7  23
ATOM     23  C13 <0> d          -1.259   1.730   0.318  0.00  0.00    -0.018 A 
ATOM     24  C17 <0> d          -0.306   1.177   1.182  0.00  0.00     0.127 A 
ATOM     25  N4  <0> d           0.812   1.821   1.444  0.00  0.00    -0.272 NA
ATOM     26  C16 <0> d           1.078   3.001   0.915  0.00  0.00     0.116 A 
ATOM     27  C15 <0> d           0.186   3.619   0.056  0.00  0.00     0.020 A 
ATOM     28  C14 <0> d          -1.004   2.988  -0.254  0.00  0.00     0.014 A 
ENDBRANCH   7  23
TORSDOF 4
