REMARK  6 active torsions:
REMARK  status: ('A' for Active; 'I' for Inactive)
REMARK    1  A    between atoms: C2_2  and  C3_3 
REMARK    2  A    between atoms: C3_3  and  C4_4 
REMARK    3  A    between atoms: C3_3  and  C6_6 
REMARK    4  A    between atoms: C3_3  and  C7_9 
REMARK       I    between atoms: C7_9  and  N2_11 
REMARK    5  A    between atoms: N2_11  and  C8_12 
REMARK    6  A    between atoms: C8_12  and  C10_14 
ROOT
ATOM      1  C7  <0> d          -2.139  -0.048   1.253  0.00  0.00     0.234 C 
ATOM      2  O1  <0> d          -3.135   0.637   1.155  0.00  0.00    -0.272 OA
ATOM      3  N2  <0> d          -1.662  -0.373   2.471  0.00  0.00    -0.349 N 
ATOM      4  H14 <0> d          -0.865  -0.921   2.549  0.00  0.00     0.163 HD
ENDROOT
BRANCH   1   5
ATOM      5  C3  <0> d          -1.433  -0.534   0.013  0.00  0.00     0.092 C 
BRANCH   5   6
ATOM      6  C2  <0> d           0.002  -0.004   0.002  0.00  0.00     0.022 C 
ATOM      7  C1  <0> d          -0.019   1.526   0.010  0.00  0.00     0.007 C 
ENDBRANCH   5   6
BRANCH   5   8
ATOM      8  C4  <0> d          -2.173  -0.027  -1.227  0.00  0.00     0.022 C 
ATOM      9  C5  <0> d          -1.457  -0.520  -2.486  0.00  0.00     0.007 C 
ENDBRANCH   5   8
BRANCH   5  10
ATOM     10  C6  <0> d          -1.413  -2.041   0.005  0.00  0.00     0.089 C 
ATOM     11  S1  <0> d          -0.017  -2.821  -0.013  0.00  0.00    -0.065 SA
ATOM     12  N1  <0> d          -2.571  -2.730   0.012  0.00  0.00    -0.392 N 
ATOM     13  H12 <0> d          -3.417  -2.257   0.023  0.00  0.00     0.156 HD
ATOM     14  H13 <0> d          -2.558  -3.700   0.007  0.00  0.00     0.156 HD
ENDBRANCH   5  10
ENDBRANCH   1   5
BRANCH   3  15
ATOM     15  C8  <0> d          -2.348   0.099   3.676  0.00  0.00     0.152 C 
ATOM     16  C9  <0> d          -3.486  -0.863   4.026  0.00  0.00     0.040 C 
BRANCH  15  17
ATOM     17  C10 <0> d          -1.369   0.157   4.821  0.00  0.00     0.151 A 
ATOM     18  N5  <0> d          -1.234   1.169   5.711  0.00  0.00    -0.330 N 
ATOM     19  C11 <0> d          -0.244   0.794   6.556  0.00  0.00     0.235 A 
ATOM     20  C12 <0> d          -2.003   2.415   5.752  0.00  0.00     0.158 C 
ATOM     21  N4  <0> d           0.177  -0.379   6.166  0.00  0.00    -0.143 NA
ATOM     22  N3  <0> d          -0.492  -0.757   5.135  0.00  0.00    -0.133 NA
ENDBRANCH  15  17
ENDBRANCH   3  15
TORSDOF 6
