REMARK  8 active torsions:
REMARK  status: ('A' for Active; 'I' for Inactive)
REMARK    1  A    between atoms: C5_5  and  N4_23 
REMARK    2  A    between atoms: C7_7  and  N1_8 
REMARK       I    between atoms: N1_8  and  C8_9 
REMARK       I    between atoms: C8_9  and  N2_11 
REMARK    3  A    between atoms: N2_11  and  C9_12 
REMARK    4  A    between atoms: C9_12  and  C10_13 
REMARK    5  A    between atoms: C10_13  and  C11_14 
REMARK    6  A    between atoms: C11_14  and  C12_15 
REMARK    7  A    between atoms: C12_15  and  N3_16 
REMARK       I    between atoms: N4_23  and  C19_24 
REMARK    8  A    between atoms: C19_24  and  C20_26 
ROOT
ATOM      1  N1  <0> d           0.436  -0.233   2.349  0.00  0.00    -0.308 N 
ATOM      2  C8  <0> d           0.824  -0.934   3.433  0.00  0.00     0.320 C 
ATOM      3  O1  <0> d           1.081  -2.118   3.332  0.00  0.00    -0.247 OA
ATOM      4  N2  <0> d           0.926  -0.321   4.629  0.00  0.00    -0.343 N 
ATOM      5  H8  <0> d           0.292   0.724   2.416  0.00  0.00     0.170 HD
ATOM      6  H9  <0> d           0.721   0.623   4.710  0.00  0.00     0.164 HD
ENDROOT
BRANCH   1   7
ATOM      7  C7  <0> d           0.243  -0.886   1.126  0.00  0.00     0.044 A 
ATOM      8  C2  <0> d          -0.665  -0.382   0.204  0.00  0.00    -0.035 A 
ATOM      9  C1  <0> d          -1.443   0.870   0.522  0.00  0.00     0.050 C 
ATOM     10  C3  <0> d          -0.853  -1.023  -1.005  0.00  0.00     0.011 A 
ATOM     11  C4  <0> d          -0.142  -2.170  -1.300  0.00  0.00     0.030 A 
ATOM     12  C5  <0> d           0.764  -2.683  -0.379  0.00  0.00     0.036 A 
ATOM     13  C6  <0> d           0.954  -2.042   0.836  0.00  0.00     0.059 A 
BRANCH  12  14
ATOM     14  N4  <0> d           1.483  -3.846  -0.678  0.00  0.00    -0.327 N 
ATOM     15  C19 <0> d           1.895  -4.078  -1.940  0.00  0.00     0.226 C 
ATOM     16  O2  <0> d           1.574  -3.321  -2.832  0.00  0.00    -0.273 OA
ATOM     17  H29 <0> d           1.684  -4.485   0.023  0.00  0.00     0.169 HD
BRANCH  15  18
ATOM     18  C20 <0> d           2.756  -5.277  -2.243  0.00  0.00     0.078 A 
ATOM     19  C22 <0> d           3.192  -5.485  -3.695  0.00  0.00     0.015 A 
ATOM     20  C21 <0> d           4.208  -5.020  -2.650  0.00  0.00     0.015 A 
ENDBRANCH  15  18
ENDBRANCH  12  14
ENDBRANCH   1   7
BRANCH   4  21
ATOM     21  C9  <0> d           1.347  -1.083   5.808  0.00  0.00     0.124 C 
BRANCH  21  22
ATOM     22  C10 <0> d           1.381  -0.158   7.027  0.00  0.00     0.021 C 
BRANCH  22  23
ATOM     23  C11 <0> d           1.821  -0.954   8.258  0.00  0.00     0.029 C 
BRANCH  23  24
ATOM     24  C12 <0> d           1.855  -0.029   9.477  0.00  0.00     0.235 C 
BRANCH  24  25
ATOM     25  N3  <0> d           2.277  -0.793  10.659  0.00  0.00    -0.067 N 
ATOM     26  C17 <0> d           2.425   0.118  11.800  0.00  0.00     0.184 C 
ATOM     27  C16 <0> d           2.942  -0.658  13.013  0.00  0.00     0.033 C 
ATOM     28  C18 <0> d           3.417   1.226  11.443  0.00  0.00     0.040 C 
ATOM     29  C15 <0> d           1.946  -1.766  13.367  0.00  0.00     0.004 C 
ATOM     30  C14 <0> d           1.743  -2.666  12.145  0.00  0.00     0.028 C 
ATOM     31  C13 <0> d           1.270  -1.815  10.964  0.00  0.00     0.235 C 
ATOM     32  H35 <0> d           3.162  -1.240  10.470  0.00  0.00     0.280 HD
ENDBRANCH  24  25
ENDBRANCH  23  24
ENDBRANCH  22  23
ENDBRANCH  21  22
ENDBRANCH   4  21
TORSDOF 8
