REMARK  10 active torsions:
REMARK  status: ('A' for Active; 'I' for Inactive)
REMARK    1  A    between atoms: C2_2  and  C3_3 
REMARK    2  A    between atoms: C3_3  and  C4_4 
REMARK    3  A    between atoms: C4_4  and  C5_5 
REMARK    4  A    between atoms: C4_4  and  N5_23 
REMARK       I    between atoms: C5_5  and  N1_7 
REMARK    5  A    between atoms: N1_7  and  C6_8 
REMARK    6  A    between atoms: C6_8  and  C7_9 
REMARK    7  A    between atoms: C7_9  and  C8_10 
REMARK    8  A    between atoms: C8_10  and  C9_11 
REMARK    9  A    between atoms: C10_14  and  S1_21 
REMARK   10  A    between atoms: N4_15  and  C11_16 
REMARK       I    between atoms: N5_23  and  C17_24 
REMARK       I    between atoms: C17_24  and  N6_26 
ROOT
ATOM      1  C5  <0> d           1.596  -2.538   2.386  0.00  0.00     0.240 C 
ATOM      2  O1  <0> d           1.096  -3.247   3.234  0.00  0.00    -0.271 OA
ATOM      3  N1  <0> d           2.896  -2.195   2.476  0.00  0.00    -0.359 N 
ATOM      4  H9  <0> d           3.296  -1.629   1.798  0.00  0.00     0.162 HD
ENDROOT
BRANCH   3   5
ATOM      5  C6  <0> d           3.705  -2.679   3.597  0.00  0.00     0.123 C 
BRANCH   5   6
ATOM      6  C7  <0> d           5.134  -2.149   3.461  0.00  0.00     0.027 C 
BRANCH   6   7
ATOM      7  C8  <0> d           5.980  -2.654   4.631  0.00  0.00     0.082 C 
BRANCH   7   8
ATOM      8  C9  <0> d           7.387  -2.132   4.497  0.00  0.00     0.131 A 
ATOM      9  N4  <0> d           7.868  -0.958   5.008  0.00  0.00    -0.306 N 
ATOM     10  C10 <0> d           9.182  -0.906   4.641  0.00  0.00     0.191 A 
ATOM     11  N3  <0> d           9.431  -1.993   3.949  0.00  0.00    -0.123 NA
ATOM     12  N2  <0> d           8.369  -2.712   3.867  0.00  0.00    -0.134 NA
BRANCH   9  13
ATOM     13  C11 <0> d           7.128   0.035   5.791  0.00  0.00     0.093 C 
ATOM     14  C15 <0> d           7.779   0.207   7.175  0.00  0.00     0.026 C 
ATOM     15  C14 <0> d           8.220   1.683   7.274  0.00  0.00     0.002 C 
ATOM     16  C13 <0> d           7.303   2.421   6.267  0.00  0.00     0.002 C 
ATOM     17  C12 <0> d           7.197   1.411   5.097  0.00  0.00     0.026 C 
ENDBRANCH   9  13
BRANCH  10  18
ATOM     18  S1  <0> d          10.326   0.380   5.020  0.00  0.00    -0.095 SA
ATOM     19  C16 <0> d          11.870  -0.162   4.238  0.00  0.00     0.099 C 
ENDBRANCH  10  18
ENDBRANCH   7   8
ENDBRANCH   6   7
ENDBRANCH   5   6
ENDBRANCH   3   5
BRANCH   1  20
ATOM     20  C4  <0> d           0.763  -2.041   1.233  0.00  0.00     0.178 C 
BRANCH  20  21
ATOM     21  C3  <0> d           0.742  -0.511   1.242  0.00  0.00     0.034 C 
BRANCH  21  22
ATOM     22  C2  <0> d           0.002  -0.004   0.002  0.00  0.00    -0.002 C 
ATOM     23  C1  <0> d          -0.019   1.526   0.010  0.00  0.00     0.005 C 
ENDBRANCH  21  22
ENDBRANCH  20  21
BRANCH  20  24
ATOM     24  N5  <0> d          -0.605  -2.548   1.364  0.00  0.00    -0.330 N 
ATOM     25  C17 <0> d          -1.382  -2.682   0.271  0.00  0.00     0.314 C 
ATOM     26  O2  <0> d          -0.947  -2.381  -0.824  0.00  0.00    -0.248 OA
ATOM     27  N6  <0> d          -2.640  -3.149   0.391  0.00  0.00    -0.352 N 
ATOM     28  H29 <0> d          -2.987  -3.389   1.264  0.00  0.00     0.160 HD
ATOM     29  H30 <0> d          -3.199  -3.245  -0.396  0.00  0.00     0.160 HD
ATOM     30  H28 <0> d          -0.952  -2.789   2.237  0.00  0.00     0.165 HD
ENDBRANCH  20  24
ENDBRANCH   1  20
TORSDOF 10
