REMARK  0 active torsions:
REMARK  status: ('A' for Active; 'I' for Inactive)
ROOT
ATOM      1  C1  <0> d          -0.016   1.355   0.009  0.00  0.00     0.001 A 
ATOM      2  C2  <0> d           1.141   2.140   0.003  0.00  0.00     0.002 A 
ATOM      3  C3  <0> d           2.403   1.644  -0.008  0.00  0.00     0.030 A 
ATOM      4  C4  <0> d           2.553   0.227  -0.021  0.00  0.00     0.039 A 
ATOM      5  N1  <0> d           3.628  -0.504  -0.045  0.00  0.00    -0.379 N 
ATOM      6  C5  <0> d           3.236  -1.910  -0.040  0.00  0.00     0.135 A 
ATOM      7  C6  <0> d           3.604  -2.642  -1.331  0.00  0.00     0.112 C 
ATOM      8  C7  <0> d           5.113  -2.906  -1.429  0.00  0.00     0.042 C 
ATOM      9  C8  <0> d           5.427  -4.132  -0.541  0.00  0.00     0.011 C 
ATOM     10  C9  <0> d           4.855  -5.383  -1.225  0.00  0.00     0.026 C 
ATOM     11  C10 <0> d           3.654  -4.942  -2.097  0.00  0.00     0.085 C 
ATOM     12  N2  <0> d           2.936  -3.947  -1.307  0.00  0.00    -0.400 N 
ATOM     13  C11 <0> d           1.492  -3.949  -1.363  0.00  0.00     0.122 C 
ATOM     14  C12 <0> d           0.927  -3.198  -0.132  0.00  0.00     0.057 C 
ATOM     15  C13 <0> d           1.705  -1.905  -0.052  0.00  0.00    -0.041 A 
ATOM     16  C14 <0> d           1.332  -0.637  -0.021  0.00  0.00    -0.005 A 
ATOM     17  C15 <0> d           0.002  -0.004   0.002  0.00  0.00     0.014 A 
ATOM     18  C16 <0> d           4.263  -4.263  -3.350  0.00  0.00     0.039 C 
ATOM     19  C17 <0> d           5.391  -3.360  -2.873  0.00  0.00     0.198 C 
ATOM     20  N3  <0> d           5.761  -2.276  -3.749  0.00  0.00    -0.070 N 
ATOM     21  C18 <0> d           4.623  -1.530  -4.286  0.00  0.00     0.232 C 
ATOM     22  C19 <0> d           3.727  -2.501  -5.062  0.00  0.00     0.028 C 
ATOM     23  C20 <0> d           3.150  -3.512  -4.071  0.00  0.00     0.010 C 
ATOM     24  H19 <0> d           6.357  -1.636  -3.238  0.00  0.00     0.277 HD
ATOM     25  H26 <0> d           4.539  -0.167  -0.063  0.00  0.00     0.160 HD
ATOM     26  H27 <0> d           6.298  -2.651  -4.521  0.00  0.00     0.277 HD
ENDROOT
TORSDOF 0
