REMARK  7 active torsions:
REMARK  status: ('A' for Active; 'I' for Inactive)
REMARK    1  A    between atoms: C2_2  and  O1_3 
REMARK    2  A    between atoms: O1_3  and  C3_4 
REMARK       I    between atoms: C3_4  and  N1_6 
REMARK       I    between atoms: N1_6  and  C4_7 
REMARK    3  A    between atoms: C4_7  and  C5_9 
REMARK    4  A    between atoms: C8_13  and  N2_14 
REMARK       I    between atoms: N2_14  and  C9_15 
REMARK    5  A    between atoms: C9_15  and  C10_17 
REMARK    6  A    between atoms: C10_17  and  S2_18 
REMARK    7  A    between atoms: S2_18  and  C11_21 
ROOT
ATOM      1  C5  <0> d           2.173  -4.176  -3.765  0.00  0.00     0.073 A 
ATOM      2  C6  <0> d           3.592  -4.453  -3.772  0.00  0.00    -0.031 A 
ATOM      3  C7  <0> d           4.087  -4.951  -4.919  0.00  0.00    -0.012 A 
ATOM      4  S1  <0> d           2.658  -5.046  -5.975  0.00  0.00    -0.076 SA
ATOM      5  C8  <0> d           1.481  -4.459  -4.934  0.00  0.00     0.093 A 
ATOM      6  C18 <0> d           5.509  -5.337  -5.234  0.00  0.00     0.057 C 
ATOM      7  C19 <0> d           4.463  -4.198  -2.568  0.00  0.00     0.050 C 
ENDROOT
BRANCH   5   8
ATOM      8  N2  <0> d           0.128  -4.292  -5.185  0.00  0.00    -0.320 N 
ATOM      9  C9  <0> d          -0.380  -4.622  -6.389  0.00  0.00     0.236 C 
ATOM     10  O4  <0> d           0.346  -5.064  -7.253  0.00  0.00    -0.272 OA
ATOM     11  H7  <0> d          -0.454  -3.938  -4.494  0.00  0.00     0.169 HD
BRANCH   9  12
ATOM     12  C10 <0> d          -1.851  -4.440  -6.662  0.00  0.00     0.248 C 
BRANCH  12  13
ATOM     13  S2  <0> d          -2.222  -4.969  -8.357  0.00  0.00     0.183 S 
ATOM     14  O5  <0> d          -1.619  -4.082  -9.289  0.00  0.00    -0.222 OA
ATOM     15  O6  <0> d          -2.052  -6.375  -8.479  0.00  0.00    -0.222 OA
BRANCH  13  16
ATOM     16  C11 <0> d          -3.954  -4.708  -8.544  0.00  0.00     0.059 A 
ATOM     17  C16 <0> d          -4.424  -3.494  -9.010  0.00  0.00     0.024 A 
ATOM     18  C15 <0> d          -5.783  -3.291  -9.161  0.00  0.00     0.008 A 
ATOM     19  C14 <0> d          -6.673  -4.298  -8.837  0.00  0.00    -0.062 A 
ATOM     20  C13 <0> d          -6.204  -5.510  -8.366  0.00  0.00     0.008 A 
ATOM     21  C17 <0> d          -8.155  -4.075  -8.998  0.00  0.00     0.048 C 
ATOM     22  C12 <0> d          -4.844  -5.715  -8.219  0.00  0.00     0.024 A 
ENDBRANCH  13  16
ENDBRANCH  12  13
ENDBRANCH   9  12
ENDBRANCH   5   8
BRANCH   1  23
ATOM     23  C4  <0> d           1.500  -3.632  -2.583  0.00  0.00     0.263 C 
ATOM     24  N1  <0> d           1.395  -2.298  -2.422  0.00  0.00    -0.269 N 
ATOM     25  C3  <0> d           0.776  -1.797  -1.335  0.00  0.00     0.367 C 
ATOM     26  H6  <0> d           1.765  -1.698  -3.088  0.00  0.00     0.174 HD
ATOM     27  O2  <0> d           0.312  -2.548  -0.500  0.00  0.00    -0.238 OA
ATOM     28  O3  <0> d           1.036  -4.384  -1.747  0.00  0.00    -0.267 OA
BRANCH  25  29
ATOM     29  O1  <0> d           0.671  -0.465  -1.174  0.00  0.00    -0.304 OA
BRANCH  29  30
ATOM     30  C2  <0> d           0.002  -0.004   0.002  0.00  0.00     0.176 C 
ATOM     31  C1  <0> d          -0.019   1.526   0.010  0.00  0.00     0.034 C 
ENDBRANCH  29  30
ENDBRANCH  25  29
ENDBRANCH   1  23
TORSDOF 7
