REMARK  1 active torsions:
REMARK  status: ('A' for Active; 'I' for Inactive)
REMARK    1  A    between atoms: C3_3  and  C7_8 
ROOT
ATOM      1  C7  <0> d           3.672   2.183  -0.022  0.00  0.00     0.077 C 
ATOM      2  C8  <0> d           4.460   1.836  -1.287  0.00  0.00     0.161 A 
ATOM      3  C9  <0> d           5.053   0.462  -1.089  0.00  0.00     0.124 A 
ATOM      4  N1  <0> d           4.823  -0.519  -1.905  0.00  0.00    -0.180 NA
ATOM      5  C10 <0> d           4.021  -0.396  -2.973  0.00  0.00     0.350 A 
ATOM      6  O1  <0> d           3.867  -1.349  -3.713  0.00  0.00    -0.244 OA
ATOM      7  N2  <0> d           3.385   0.754  -3.245  0.00  0.00    -0.277 N 
ATOM      8  C11 <0> d           3.550   1.852  -2.481  0.00  0.00     0.238 A 
ATOM      9  O2  <0> d           2.952   2.870  -2.756  0.00  0.00    -0.272 OA
ATOM     10  N3  <0> d           5.844   0.297   0.015  0.00  0.00    -0.346 N 
ATOM     11  C12 <0> d           5.479   0.936   1.180  0.00  0.00     0.021 C 
ATOM     12  C13 <0> d           4.475   1.827   1.207  0.00  0.00     0.020 C 
ATOM     13  C14 <0> d           4.124   2.474   2.411  0.00  0.00     0.158 C 
ATOM     14  O3  <0> d           3.229   3.296   2.405  0.00  0.00    -0.293 OA
ATOM     15  C15 <0> d           4.833   2.167   3.700  0.00  0.00     0.084 C 
ATOM     16  C16 <0> d           5.359   0.728   3.648  0.00  0.00     0.014 C 
ATOM     17  C17 <0> d           6.258   0.599   2.429  0.00  0.00     0.058 C 
ATOM     18  H7  <0> d           2.793   0.798  -4.013  0.00  0.00     0.173 HD
ATOM     19  H8  <0> d           6.641  -0.256  -0.021  0.00  0.00     0.167 HD
ENDROOT
BRANCH   1  20
ATOM     20  C3  <0> d           2.378   1.411  -0.013  0.00  0.00    -0.047 A 
ATOM     21  C2  <0> d           1.171   2.086   0.002  0.00  0.00     0.008 A 
ATOM     22  C1  <0> d          -0.017   1.378   0.010  0.00  0.00     0.002 A 
ATOM     23  C6  <0> d           0.002  -0.004   0.002  0.00  0.00     0.019 A 
ATOM     24  C5  <0> d           1.210  -0.679  -0.014  0.00  0.00     0.011 A 
ATOM     25  C4  <0> d           2.397   0.029  -0.022  0.00  0.00     0.027 A 
ATOM     26 Br1  <0> d           1.236  -2.570  -0.025  0.00  0.00    -0.051 Br
ENDBRANCH   1  20
TORSDOF 1
