REMARK  3 active torsions:
REMARK  status: ('A' for Active; 'I' for Inactive)
REMARK    1  A    between atoms: C3_5  and  S1_8 
REMARK    2  A    between atoms: S1_8  and  N3_11 
REMARK    3  A    between atoms: N3_11  and  C5_12 
ROOT
ATOM      1  S1  <0> d           0.116  -3.656   1.701  0.00  0.00     0.280 S 
ATOM      2  O1  <0> d          -0.766  -3.446   2.794  0.00  0.00    -0.199 OA
ATOM      3  O2  <0> d           0.624  -2.587   0.915  0.00  0.00    -0.199 OA
ENDROOT
BRANCH   1   4
ATOM      4  C3  <0> d           1.513  -4.520   2.340  0.00  0.00     0.211 A 
ATOM      5  N2  <0> d           1.648  -5.852   2.418  0.00  0.00    -0.227 NA
ATOM      6  C2  <0> d           2.808  -6.138   2.942  0.00  0.00     0.211 A 
ATOM      7  N1  <0> d           3.455  -4.983   3.217  0.00  0.00    -0.334 N 
ATOM      8  C1  <0> d           4.787  -4.854   3.814  0.00  0.00     0.158 C 
ATOM      9  C4  <0> d           2.631  -3.957   2.840  0.00  0.00     0.148 A 
ATOM     10 Cl1  <0> d           2.964  -2.259   2.975  0.00  0.00    -0.061 Cl
ENDBRANCH   1   4
BRANCH   1  11
ATOM     11  N3  <0> d          -0.659  -4.683   0.658  0.00  0.00    -0.309 N 
ATOM     12  H5  <0> d          -1.560  -4.984   0.853  0.00  0.00     0.172 HD
BRANCH  11  13
ATOM     13  C5  <0> d           0.017  -5.137  -0.560  0.00  0.00     0.095 C 
ATOM     14  C9  <0> d          -0.385  -6.581  -0.849  0.00  0.00     0.040 C 
ATOM     15  C8  <0> d           0.506  -7.161  -1.950  0.00  0.00     0.142 C 
ATOM     16  S2  <0> d           0.235  -6.220  -3.482  0.00  0.00     0.144 S 
ATOM     17  C7  <0> d           0.519  -4.512  -2.932  0.00  0.00     0.142 C 
ATOM     18  O3  <0> d           1.251  -6.570  -4.412  0.00  0.00    -0.228 OA
ATOM     19  O4  <0> d          -1.128  -6.353  -3.861  0.00  0.00    -0.228 OA
ATOM     20  C6  <0> d          -0.374  -4.227  -1.721  0.00  0.00     0.040 C 
ENDBRANCH  11  13
ENDBRANCH   1  11
TORSDOF 3
