REMARK  3 active torsions:
REMARK  status: ('A' for Active; 'I' for Inactive)
REMARK    1  A    between atoms: C3_3  and  C6_8 
REMARK    2  A    between atoms: C6_8  and  N2_9 
REMARK    3  A    between atoms: N2_9  and  C7_10 
ROOT
ATOM      1  N2  <0> d           1.371  -0.174  -3.041  0.00  0.00    -0.383 N 
ATOM      2  H9  <0> d           2.114  -0.363  -2.446  0.00  0.00     0.160 HD
ENDROOT
BRANCH   1   3
ATOM      3  C6  <0> d          -0.005  -0.348  -2.571  0.00  0.00     0.163 C 
BRANCH   3   4
ATOM      4  C3  <0> d           0.008  -0.824  -1.141  0.00  0.00     0.017 A 
ATOM      5  C2  <0> d           0.002  -0.004   0.002  0.00  0.00     0.068 A 
ATOM      6  C1  <0> d          -0.018   1.503   0.010  0.00  0.00     0.073 C 
ATOM      7  N1  <0> d           0.023  -0.775   1.052  0.00  0.00    -0.133 NA
ATOM      8  O1  <0> d           0.034  -2.119   0.606  0.00  0.00    -0.217 OA
ATOM      9  C4  <0> d           0.027  -2.108  -0.735  0.00  0.00     0.085 A 
ATOM     10  C5  <0> d           0.039  -3.320  -1.631  0.00  0.00     0.079 C 
ENDBRANCH   3   4
ENDBRANCH   1   3
BRANCH   1  11
ATOM     11  C7  <0> d           1.612   0.259  -4.333  0.00  0.00     0.075 A 
ATOM     12  C10 <0> d           2.910   0.425  -4.784  0.00  0.00     0.131 A 
ATOM     13  C9  <0> d           3.123   0.860  -6.100  0.00  0.00     0.287 A 
ATOM     14 Cl1  <0> d           4.254   0.093  -3.737  0.00  0.00    -0.076 Cl
ATOM     15  N4  <0> d           2.065   1.117  -6.895  0.00  0.00    -0.238 N 
ATOM     16  O2  <0> d           4.259   1.009  -6.521  0.00  0.00    -0.265 OA
ATOM     17  N3  <0> d           0.761   0.949  -6.420  0.00  0.00    -0.180 NA
ATOM     18  C11 <0> d           2.284   1.577  -8.268  0.00  0.00     0.183 C 
ATOM     19  C8  <0> d           0.536   0.541  -5.202  0.00  0.00     0.170 A 
ENDBRANCH   1  11
TORSDOF 3
