REMARK  6 active torsions:
REMARK  status: ('A' for Active; 'I' for Inactive)
REMARK    1  A    between atoms: C6_6  and  N1_8 
REMARK    2  A    between atoms: N1_8  and  C8_9 
REMARK    3  A    between atoms: N2_11  and  C9_12 
REMARK    4  A    between atoms: N2_11  and  C21_27 
REMARK    5  A    between atoms: C9_12  and  C10_13 
REMARK    6  A    between atoms: C21_27  and  C22_28 
ROOT
ATOM      1  C8  <0> d          -5.006   0.981   0.354  0.00  0.00     0.174 C 
ATOM      2  S1  <0> d          -6.391   1.629   1.123  0.00  0.00    -0.041 SA
ATOM      3  N2  <0> d          -4.438   1.639  -0.676  0.00  0.00    -0.351 N 
ENDROOT
BRANCH   3   4
ATOM      4  C9  <0> d          -5.006   2.908  -1.137  0.00  0.00     0.169 C 
BRANCH   4   5
ATOM      5  C10 <0> d          -6.035   2.639  -2.205  0.00  0.00     0.029 A 
ATOM      6  C18 <0> d          -5.631   2.492  -3.550  0.00  0.00     0.253 A 
ATOM      7  N3  <0> d          -6.518   2.246  -4.530  0.00  0.00    -0.322 N 
ATOM      8  O1  <0> d          -4.448   2.585  -3.828  0.00  0.00    -0.268 OA
ATOM      9  C17 <0> d          -7.865   2.139  -4.257  0.00  0.00     0.051 A 
ATOM     10  H1  <0> d          -6.206   2.147  -5.443  0.00  0.00     0.169 HD
ATOM     11  C12 <0> d          -8.320   2.283  -2.933  0.00  0.00    -0.008 A 
ATOM     12  C16 <0> d          -8.784   1.891  -5.271  0.00  0.00    -0.028 A 
ATOM     13  C11 <0> d          -7.346   2.545  -1.872  0.00  0.00     0.028 A 
ATOM     14  C13 <0> d          -9.686   2.175  -2.650  0.00  0.00     0.014 A 
ATOM     15  C14 <0> d         -10.570   1.931  -3.662  0.00  0.00     0.008 A 
ATOM     16  C15 <0> d         -10.125   1.788  -4.970  0.00  0.00    -0.054 A 
ATOM     17  C20 <0> d         -11.118   1.519  -6.070  0.00  0.00     0.049 C 
ATOM     18  C19 <0> d          -8.315   1.734  -6.695  0.00  0.00     0.051 C 
ENDBRANCH   4   5
ENDBRANCH   3   4
BRANCH   3  19
ATOM     19  C21 <0> d          -3.252   1.085  -1.334  0.00  0.00     0.157 C 
BRANCH  19  20
ATOM     20  C22 <0> d          -1.992   1.607  -0.640  0.00  0.00     0.139 C 
ATOM     21  O2  <0> d          -1.912   1.073   0.692  0.00  0.00    -0.384 OA
ATOM     22  C25 <0> d          -0.511   0.878   0.985  0.00  0.00     0.168 C 
ATOM     23  C24 <0> d           0.063   0.330  -0.347  0.00  0.00     0.029 C 
ATOM     24  C23 <0> d          -0.740   1.131  -1.401  0.00  0.00     0.035 C 
ENDBRANCH  19  20
ENDBRANCH   3  19
BRANCH   1  25
ATOM     25  N1  <0> d          -4.483  -0.187   0.778  0.00  0.00    -0.333 N 
ATOM     26  H10 <0> d          -3.748  -0.594   0.293  0.00  0.00     0.168 HD
BRANCH  25  27
ATOM     27  C6  <0> d          -5.000  -0.811   1.919  0.00  0.00     0.034 A 
ATOM     28  C5  <0> d          -5.186  -2.187   1.934  0.00  0.00     0.029 A 
ATOM     29  C4  <0> d          -5.696  -2.801   3.062  0.00  0.00     0.003 A 
ATOM     30  C3  <0> d          -6.022  -2.046   4.174  0.00  0.00     0.007 A 
ATOM     31  C2  <0> d          -5.839  -0.676   4.161  0.00  0.00    -0.060 A 
ATOM     32  C1  <0> d          -6.195   0.143   5.375  0.00  0.00     0.048 C 
ATOM     33  C7  <0> d          -5.324  -0.057   3.039  0.00  0.00     0.036 A 
ENDBRANCH  25  27
ENDBRANCH   1  25
TORSDOF 6
