REMARK  4 active torsions:
REMARK  status: ('A' for Active; 'I' for Inactive)
REMARK    1  A    between atoms: C2_2  and  C5_5 
REMARK    2  A    between atoms: C6_7  and  C8_11 
REMARK    3  A    between atoms: C8_11  and  C9_12 
REMARK    4  A    between atoms: C8_11  and  N4_18 
ROOT
ATOM      1  C8  <0> d           1.954  -3.103  -3.413  0.00  0.00     0.258 C 
ENDROOT
BRANCH   1   2
ATOM      2  C6  <0> d           1.546  -1.837  -2.705  0.00  0.00     0.155 A 
ATOM      3  N1  <0> d           0.901  -1.766  -1.568  0.00  0.00    -0.214 NA
ATOM      4  C5  <0> d           0.707  -0.490  -1.238  0.00  0.00     0.155 A 
ATOM      5  N3  <0> d           1.223   0.272  -2.166  0.00  0.00    -0.155 NA
ATOM      6  N2  <0> d           1.781  -0.584  -3.130  0.00  0.00    -0.257 N 
ATOM      7  C7  <0> d           2.475  -0.189  -4.358  0.00  0.00     0.181 C 
BRANCH   4   8
ATOM      8  C2  <0> d           0.002  -0.004   0.002  0.00  0.00     0.013 C 
ATOM      9  C1  <0> d          -0.019   1.526   0.010  0.00  0.00     0.023 C 
ATOM     10  C3  <0> d           0.742  -0.511   1.242  0.00  0.00     0.023 C 
ATOM     11  C4  <0> d          -1.433  -0.534   0.013  0.00  0.00     0.023 C 
ENDBRANCH   4   8
ENDBRANCH   1   2
BRANCH   1  12
ATOM     12  C9  <0> d           0.727  -3.741  -4.067  0.00  0.00     0.024 C 
ATOM     13  C14 <0> d           1.141  -5.026  -4.785  0.00  0.00     0.007 C 
ATOM     14  C13 <0> d          -0.086  -5.663  -5.439  0.00  0.00     0.000 C 
ATOM     15  C12 <0> d          -1.124  -5.992  -4.364  0.00  0.00     0.000 C 
ATOM     16  C11 <0> d          -1.538  -4.707  -3.645  0.00  0.00     0.000 C 
ATOM     17  C10 <0> d          -0.311  -4.070  -2.991  0.00  0.00     0.007 C 
ENDBRANCH   1  12
BRANCH   1  18
ATOM     18  N4  <0> d           2.535  -4.041  -2.443  0.00  0.00    -0.068 N 
ATOM     19  H25 <0> d           1.851  -4.258  -1.734  0.00  0.00     0.275 HD
ATOM     20  H26 <0> d           2.808  -4.889  -2.917  0.00  0.00     0.275 HD
ATOM     21  H27 <0> d           3.345  -3.621  -2.011  0.00  0.00     0.275 HD
ENDBRANCH   1  18
TORSDOF 4
