REMARK  6 active torsions:
REMARK  status: ('A' for Active; 'I' for Inactive)
REMARK    1  A    between atoms: C2_2  and  S1_4 
REMARK    2  A    between atoms: S1_4  and  N1_7 
REMARK    3  A    between atoms: N1_7  and  C4_8 
REMARK    4  A    between atoms: C4_8  and  C5_9 
REMARK    5  A    between atoms: N2_13  and  S2_15 
REMARK    6  A    between atoms: S2_15  and  C10_18 
ROOT
ATOM      1  C5  <0> d           4.707   0.044  -0.642  0.00  0.00     0.023 C 
ATOM      2  C6  <0> d           5.188  -0.710  -1.884  0.00  0.00     0.009 C 
ATOM      3  C7  <0> d           6.609  -0.262  -2.236  0.00  0.00     0.021 C 
ATOM      4  C8  <0> d           7.548  -0.597  -1.073  0.00  0.00     0.135 C 
ATOM      5  N2  <0> d           7.013   0.005   0.155  0.00  0.00    -0.305 N 
ATOM      6  C9  <0> d           5.625  -0.287   0.539  0.00  0.00     0.141 C 
ENDROOT
BRANCH   5   7
ATOM      7  S2  <0> d           7.957   0.994   1.091  0.00  0.00     0.281 S 
ATOM      8  O3  <0> d           7.413   0.952   2.403  0.00  0.00    -0.199 OA
ATOM      9  O4  <0> d           9.307   0.647   0.815  0.00  0.00    -0.199 OA
BRANCH   7  10
ATOM     10  C10 <0> d           7.729   2.639   0.503  0.00  0.00     0.211 A 
ATOM     11  N4  <0> d           6.801   3.508   0.932  0.00  0.00    -0.227 NA
ATOM     12  C12 <0> d           6.927   4.630   0.277  0.00  0.00     0.211 A 
ATOM     13  N3  <0> d           7.944   4.506  -0.604  0.00  0.00    -0.334 N 
ATOM     14  C11 <0> d           8.453   3.244  -0.461  0.00  0.00     0.148 A 
ATOM     15  C13 <0> d           8.415   5.532  -1.538  0.00  0.00     0.158 C 
ATOM     16 Cl1  <0> d           9.775   2.553  -1.349  0.00  0.00    -0.061 Cl
ENDBRANCH   7  10
ENDBRANCH   5   7
BRANCH   1  17
ATOM     17  C4  <0> d           3.275  -0.380  -0.309  0.00  0.00     0.138 C 
BRANCH  17  18
ATOM     18  N1  <0> d           2.378   0.044  -1.387  0.00  0.00    -0.319 N 
ATOM     19  H8  <0> d           2.678   0.695  -2.040  0.00  0.00     0.172 HD
BRANCH  18  20
ATOM     20  S1  <0> d           0.851  -0.589  -1.490  0.00  0.00     0.230 S 
ATOM     21  O1  <0> d           1.037  -1.996  -1.428  0.00  0.00    -0.206 OA
ATOM     22  O2  <0> d           0.285   0.016  -2.645  0.00  0.00    -0.206 OA
BRANCH  20  23
ATOM     23  C2  <0> d           0.002  -0.004   0.002  0.00  0.00     0.121 C 
ATOM     24  C1  <0> d          -0.019   1.526   0.010  0.00  0.00     0.027 C 
ATOM     25  C3  <0> d          -1.433  -0.534   0.013  0.00  0.00     0.027 C 
ENDBRANCH  20  23
ENDBRANCH  18  20
ENDBRANCH  17  18
ENDBRANCH   1  17
TORSDOF 6
