REMARK  4 active torsions:
REMARK  status: ('A' for Active; 'I' for Inactive)
REMARK    1  A    between atoms: C7_7  and  O2_26 
REMARK       I    between atoms: N2_10  and  C9_11 
REMARK    2  A    between atoms: C9_11  and  C10_13 
REMARK    3  A    between atoms: C10_13  and  S1_14 
REMARK    4  A    between atoms: S1_14  and  C11_15 
ROOT
ATOM      1  C1  <0> d          -0.017   1.373   0.010  0.00  0.00     0.001 A 
ATOM      2  C2  <0> d           1.170   2.084   0.002  0.00  0.00     0.001 A 
ATOM      3  C3  <0> d           2.369   1.403   0.001  0.00  0.00     0.019 A 
ATOM      4  C4  <0> d           2.389   0.010  -0.003  0.00  0.00     0.019 A 
ATOM      5  C5  <0> d           1.206  -0.705  -0.019  0.00  0.00     0.007 A 
ATOM      6  C6  <0> d           0.002  -0.004   0.002  0.00  0.00     0.013 A 
ATOM      7  C7  <0> d           1.111  -2.201  -0.095  0.00  0.00     0.255 C 
ATOM      8  N1  <0> d           2.333  -2.894   0.288  0.00  0.00    -0.339 N 
ATOM      9  C8  <0> d           3.517  -2.486  -0.294  0.00  0.00     0.172 C 
ATOM     10  N2  <0> d           4.266  -3.294  -1.036  0.00  0.00    -0.189 NA
ATOM     11  C9  <0> d           3.884  -4.552  -1.243  0.00  0.00     0.255 C 
ATOM     12  O1  <0> d           2.849  -4.961  -0.754  0.00  0.00    -0.270 OA
ATOM     13  S2  <0> d           3.958  -0.801   0.027  0.00  0.00    -0.052 SA
ATOM     14  H7  <0> d           2.316  -3.620   0.931  0.00  0.00     0.164 HD
ENDROOT
BRANCH  11  15
ATOM     15  C10 <0> d           4.734  -5.468  -2.085  0.00  0.00     0.187 C 
BRANCH  15  16
ATOM     16  S1  <0> d           3.951  -7.102  -2.180  0.00  0.00    -0.083 SA
BRANCH  16  17
ATOM     17  C11 <0> d           5.050  -8.044  -3.184  0.00  0.00     0.168 A 
ATOM     18  N4  <0> d           6.164  -7.594  -3.708  0.00  0.00    -0.223 NA
ATOM     19  C17 <0> d           6.766  -8.583  -4.419  0.00  0.00     0.086 A 
ATOM     20  C12 <0> d           5.945  -9.719  -4.324  0.00  0.00     0.063 A 
ATOM     21  C16 <0> d           7.948  -8.649  -5.161  0.00  0.00     0.034 A 
ATOM     22  N3  <0> d           4.866  -9.351  -3.537  0.00  0.00    -0.333 N 
ATOM     23  C13 <0> d           6.311 -10.893  -4.964  0.00  0.00     0.032 A 
ATOM     24  H2  <0> d           4.119  -9.915  -3.284  0.00  0.00     0.168 HD
ATOM     25  C14 <0> d           7.482 -10.942  -5.693  0.00  0.00     0.002 A 
ATOM     26  C15 <0> d           8.296  -9.823  -5.790  0.00  0.00     0.002 A 
ENDBRANCH  16  17
ENDBRANCH  15  16
ENDBRANCH  11  15
BRANCH   7  27
ATOM     27  O2  <0> d           0.783  -2.569  -1.436  0.00  0.00    -0.372 OA
ATOM     28  H14 <0> d           0.702  -3.522  -1.574  0.00  0.00     0.212 HD
ENDBRANCH   7  27
TORSDOF 4
