REMARK  5 active torsions:
REMARK  status: ('A' for Active; 'I' for Inactive)
REMARK    1  A    between atoms: C6_6  and  O4_18 
REMARK    2  A    between atoms: C9_9  and  O2_13 
REMARK    3  A    between atoms: C11_11  and  O1_12 
REMARK    4  A    between atoms: O2_13  and  C12_14 
REMARK    5  A    between atoms: O4_18  and  C15_19 
ROOT
ATOM      1  C1  <0> d           0.093   1.637  -0.025  0.00  0.00     0.010 C 
ATOM      2  C2  <0> d           0.119   0.102   0.023  0.00  0.00    -0.009 C 
ATOM      3  C3  <0> d          -1.312  -0.443  -0.072  0.00  0.00     0.038 C 
ATOM      4  C4  <0> d          -1.324  -1.824  -0.541  0.00  0.00     0.143 C 
ATOM      5  C5  <0> d          -0.762  -3.067   0.087  0.00  0.00     0.084 C 
ATOM      6  C6  <0> d           0.684  -2.827   0.579  0.00  0.00     0.154 C 
ATOM      7  C7  <0> d           0.613  -1.814   1.705  0.00  0.00     0.016 C 
ATOM      8  C8  <0> d           0.856  -0.375   1.237  0.00  0.00     0.032 C 
ATOM      9  C9  <0> d           0.943   0.432   2.517  0.00  0.00     0.139 C 
ATOM     10  C10 <0> d           1.573  -0.566   3.532  0.00  0.00     0.065 C 
ATOM     11  C11 <0> d           1.725  -1.919   2.775  0.00  0.00     0.131 C 
ATOM     12  C14 <0> d          -0.692  -1.934   2.480  0.00  0.00     0.021 C 
ATOM     13  C17 <0> d          -0.758  -3.957  -1.165  0.00  0.00     0.017 C 
ATOM     14  C18 <0> d           0.038  -4.979  -1.445  0.00  0.00     0.025 C 
ATOM     15  C19 <0> d          -1.864  -3.399  -1.985  0.00  0.00     0.289 C 
ATOM     16  O6  <0> d          -2.230  -3.830  -3.059  0.00  0.00    -0.260 OA
ATOM     17  O7  <0> d          -2.402  -2.316  -1.342  0.00  0.00    -0.311 OA
ENDROOT
BRANCH   6  18
ATOM     18  O4  <0> d           1.275  -4.047   1.053  0.00  0.00    -0.315 OA
BRANCH  18  19
ATOM     19  C15 <0> d           2.586  -4.220   0.820  0.00  0.00     0.255 C 
ATOM     20  O5  <0> d           3.231  -3.333   0.314  0.00  0.00    -0.266 OA
ATOM     21  C16 <0> d           3.252  -5.520   1.190  0.00  0.00     0.126 C 
ENDBRANCH  18  19
ENDBRANCH   6  18
BRANCH  11  22
ATOM     22  O1  <0> d           1.469  -3.018   3.647  0.00  0.00    -0.395 OA
ATOM     23  H15 <0> d           2.133  -3.134   4.339  0.00  0.00     0.210 HD
ENDBRANCH  11  22
BRANCH   9  24
ATOM     24  O2  <0> d          -0.327   0.887   2.968  0.00  0.00    -0.316 OA
BRANCH  24  25
ATOM     25  C12 <0> d          -0.354   2.041   3.652  0.00  0.00     0.255 C 
ATOM     26  O3  <0> d           0.673   2.644   3.859  0.00  0.00    -0.266 OA
ATOM     27  C13 <0> d          -1.663   2.586   4.162  0.00  0.00     0.126 C 
ENDBRANCH  24  25
ENDBRANCH   9  24
TORSDOF 5
