REMARK  8 active torsions:
REMARK  status: ('A' for Active; 'I' for Inactive)
REMARK    1  A    between atoms: C2_2  and  C3_3 
REMARK    2  A    between atoms: C2_2  and  C11_14 
REMARK    3  A    between atoms: C3_3  and  N1_4 
REMARK    4  A    between atoms: N1_4  and  C4_5 
REMARK    5  A    between atoms: C4_5  and  C5_6 
REMARK    6  A    between atoms: C8_9  and  O2_13 
REMARK    7  A    between atoms: C9_10  and  O1_12 
REMARK    8  A    between atoms: C11_14  and  N2_15 
ROOT
ATOM      1  N1  <0> d           2.151  -0.103   1.171  0.00  0.00    -0.071 N 
ATOM      2  H7  <0> d           2.574  -0.495   0.344  0.00  0.00     0.277 HD
ATOM      3  H26 <0> d           2.209   0.904   1.134  0.00  0.00     0.277 HD
ENDROOT
BRANCH   1   4
ATOM      4  C3  <0> d           0.742  -0.511   1.242  0.00  0.00     0.238 C 
BRANCH   4   5
ATOM      5  C2  <0> d           0.002  -0.004   0.002  0.00  0.00     0.033 C 
ATOM      6  C1  <0> d          -0.019   1.526   0.010  0.00  0.00     0.013 C 
BRANCH   5   7
ATOM      7  C11 <0> d          -1.433  -0.534   0.013  0.00  0.00     0.240 C 
BRANCH   7   8
ATOM      8  N2  <0> d          -2.107  -0.147  -1.234  0.00  0.00    -0.071 N 
ATOM      9  C15 <0> d          -3.530  -0.547  -1.189  0.00  0.00     0.235 C 
ATOM     10  C14 <0> d          -3.925  -0.973  -2.616  0.00  0.00     0.029 C 
ATOM     11  C13 <0> d          -2.635  -0.820  -3.454  0.00  0.00     0.029 C 
ATOM     12  C12 <0> d          -1.517  -0.880  -2.383  0.00  0.00     0.235 C 
ATOM     13  H25 <0> d          -2.030   0.848  -1.378  0.00  0.00     0.279 HD
ENDBRANCH   7   8
ENDBRANCH   5   7
ENDBRANCH   4   5
ENDBRANCH   1   4
BRANCH   1  14
ATOM     14  C4  <0> d           2.862  -0.589   2.361  0.00  0.00     0.270 C 
BRANCH  14  15
ATOM     15  C5  <0> d           4.308  -0.171   2.290  0.00  0.00    -0.030 A 
ATOM     16  C10 <0> d           4.704   1.038   2.831  0.00  0.00     0.048 A 
ATOM     17  C9  <0> d           6.034   1.422   2.770  0.00  0.00     0.099 A 
ATOM     18  C8  <0> d           6.966   0.594   2.154  0.00  0.00     0.098 A 
ATOM     19  C7  <0> d           6.562  -0.614   1.608  0.00  0.00     0.040 A 
ATOM     20  C6  <0> d           5.235  -0.994   1.677  0.00  0.00     0.012 A 
BRANCH  17  21
ATOM     21  O1  <0> d           6.425   2.609   3.307  0.00  0.00    -0.358 OA
ATOM     22  H13 <0> d           6.384   3.352   2.691  0.00  0.00     0.217 HD
ENDBRANCH  17  21
BRANCH  18  23
ATOM     23  O2  <0> d           8.272   0.969   2.088  0.00  0.00    -0.358 OA
ATOM     24  H14 <0> d           8.495   1.477   1.296  0.00  0.00     0.217 HD
ENDBRANCH  18  23
ENDBRANCH  14  15
ENDBRANCH   1  14
TORSDOF 8
