REMARK  5 active torsions:
REMARK  status: ('A' for Active; 'I' for Inactive)
REMARK    1  A    between atoms: C2_2  and  C3_3 
REMARK    2  A    between atoms: C8_8  and  N1_9 
REMARK       I    between atoms: N1_9  and  C9_10 
REMARK    3  A    between atoms: C9_10  and  C10_12 
REMARK    4  A    between atoms: C14_17  and  N3_18 
REMARK    5  A    between atoms: N3_18  and  N4_19 
ROOT
ATOM      1  C10 <0> d           4.930  -0.217   1.141  0.00  0.00     0.080 A 
ATOM      2  C11 <0> d           4.274   0.134   2.327  0.00  0.00     0.041 A 
ATOM      3  C12 <0> d           5.037   0.350   3.461  0.00  0.00     0.029 A 
ATOM      4  C13 <0> d           6.413   0.215   3.393  0.00  0.00     0.138 A 
ATOM      5  N2  <0> d           7.012  -0.116   2.266  0.00  0.00    -0.240 NA
ATOM      6  C14 <0> d           6.330  -0.340   1.153  0.00  0.00     0.153 A 
ATOM      7 Br1  <0> d           4.206   0.827   5.092  0.00  0.00    -0.050 Br
ENDROOT
BRANCH   1   8
ATOM      8  C9  <0> d           4.166  -0.460  -0.096  0.00  0.00     0.260 C 
ATOM      9  N1  <0> d           2.837  -0.236  -0.122  0.00  0.00    -0.322 N 
ATOM     10  H10 <0> d           2.394   0.143   0.653  0.00  0.00     0.169 HD
ATOM     11  O1  <0> d           4.734  -0.862  -1.093  0.00  0.00    -0.267 OA
BRANCH   9  12
ATOM     12  C8  <0> d           2.097  -0.551  -1.266  0.00  0.00     0.041 A 
ATOM     13  C3  <0> d           0.796  -1.022  -1.146  0.00  0.00    -0.032 A 
ATOM     14  C4  <0> d           0.066  -1.327  -2.278  0.00  0.00     0.009 A 
ATOM     15  C5  <0> d           0.631  -1.170  -3.530  0.00  0.00     0.001 A 
ATOM     16  C6  <0> d           1.929  -0.706  -3.653  0.00  0.00     0.002 A 
ATOM     17  C7  <0> d           2.664  -0.399  -2.525  0.00  0.00     0.030 A 
BRANCH  13  18
ATOM     18  C2  <0> d           0.180  -1.195   0.219  0.00  0.00     0.036 C 
ATOM     19  C1  <0> d          -0.416   0.136   0.681  0.00  0.00     0.010 C 
ENDBRANCH  13  18
ENDBRANCH   9  12
ENDBRANCH   1   8
BRANCH   6  20
ATOM     20  N3  <0> d           6.999  -0.690  -0.005  0.00  0.00    -0.307 N 
ATOM     21  H13 <0> d           6.499  -0.927  -0.802  0.00  0.00     0.182 HD
BRANCH  20  22
ATOM     22  N4  <0> d           8.365  -0.704  -0.027  0.00  0.00    -0.248 NA
ATOM     23  H14 <0> d           8.732  -1.305   0.695  0.00  0.00     0.143 HD
ATOM     24  H15 <0> d           8.709  -0.978  -0.935  0.00  0.00     0.143 HD
ENDBRANCH  20  22
ENDBRANCH   6  20
TORSDOF 5
