REMARK  7 active torsions:
REMARK  status: ('A' for Active; 'I' for Inactive)
REMARK    1  A    between atoms: N1_2  and  C2_3 
REMARK    2  A    between atoms: N1_2  and  C11_14 
REMARK    3  A    between atoms: C2_3  and  C3_4 
REMARK    4  A    between atoms: C3_4  and  C4_5 
REMARK    5  A    between atoms: C4_5  and  C5_6 
REMARK    6  A    between atoms: C4_5  and  N2_13 
REMARK    7  A    between atoms: C14_17  and  O1_20 
ROOT
ATOM      1  C3  <0> d          -1.411  -1.020   1.720  0.00  0.00     0.057 C 
ENDROOT
BRANCH   1   2
ATOM      2  C2  <0> d           0.024  -0.743   1.267  0.00  0.00     0.125 C 
BRANCH   2   3
ATOM      3  N1  <0> d           0.002  -0.004   0.002  0.00  0.00    -0.385 N 
ATOM      4  C1  <0> d          -0.018   1.461   0.010  0.00  0.00     0.149 C 
BRANCH   3   5
ATOM      5  C11 <0> d          -0.000  -0.697  -1.214  0.00  0.00     0.029 A 
ATOM      6  C16 <0> d          -0.021   0.003  -2.413  0.00  0.00     0.032 A 
ATOM      7  C15 <0> d          -0.018  -0.682  -3.612  0.00  0.00     0.039 A 
ATOM      8  C14 <0> d          -0.005  -2.069  -3.619  0.00  0.00     0.068 A 
ATOM      9  C13 <0> d           0.011  -2.769  -2.422  0.00  0.00     0.039 A 
ATOM     10  C12 <0> d           0.013  -2.086  -1.222  0.00  0.00     0.032 A 
BRANCH   8  11
ATOM     11  O1  <0> d          -0.008  -2.742  -4.801  0.00  0.00    -0.356 OA
ATOM     12  C17 <0> d          -0.024  -1.958  -5.995  0.00  0.00     0.210 C 
ENDBRANCH   8  11
ENDBRANCH   3   5
ENDBRANCH   2   3
ENDBRANCH   1   2
BRANCH   1  13
ATOM     13  C4  <0> d          -1.387  -1.792   3.041  0.00  0.00     0.219 C 
BRANCH  13  14
ATOM     14  C5  <0> d          -2.794  -2.172   3.426  0.00  0.00    -0.011 A 
ATOM     15  C10 <0> d          -3.364  -3.324   2.915  0.00  0.00     0.019 A 
ATOM     16  C9  <0> d          -4.654  -3.675   3.272  0.00  0.00     0.019 A 
ATOM     17 Br1  <0> d          -2.377  -4.424   1.735  0.00  0.00    -0.051 Br
ATOM     18  C8  <0> d          -5.376  -2.868   4.131  0.00  0.00     0.001 A 
ATOM     19  C7  <0> d          -4.808  -1.713   4.637  0.00  0.00     0.001 A 
ATOM     20  C6  <0> d          -3.518  -1.365   4.285  0.00  0.00     0.011 A 
ENDBRANCH  13  14
BRANCH  13  21
ATOM     21  N2  <0> d          -0.804  -0.948   4.092  0.00  0.00    -0.071 N 
ATOM     22  H13 <0> d          -0.788  -1.457   4.963  0.00  0.00     0.275 HD
ATOM     23  H14 <0> d           0.138  -0.694   3.834  0.00  0.00     0.275 HD
ATOM     24  H22 <0> d          -1.360  -0.113   4.200  0.00  0.00     0.275 HD
ENDBRANCH  13  21
ENDBRANCH   1  13
TORSDOF 7
