REMARK  5 active torsions:
REMARK  status: ('A' for Active; 'I' for Inactive)
REMARK    1  A    between atoms: C6_6  and  N1_8 
REMARK    2  A    between atoms: N1_8  and  C9_10 
REMARK    3  A    between atoms: C9_10  and  C10_11 
REMARK    4  A    between atoms: C9_10  and  C11_13 
REMARK    5  A    between atoms: C10_11  and  N2_12 
ROOT
ATOM      1  C9  <0> d           1.556  -4.233   2.664  0.00  0.00     0.284 C 
ENDROOT
BRANCH   1   2
ATOM      2  N1  <0> d           1.265  -2.812   2.428  0.00  0.00     0.099 N 
ATOM      3  C8  <0> d           2.497  -2.012   2.448  0.00  0.00     0.311 C 
BRANCH   2   4
ATOM      4  C6  <0> d           0.538  -2.627   1.165  0.00  0.00     0.224 C 
ATOM      5  C5  <0> d          -0.856  -3.247   1.284  0.00  0.00     0.036 C 
ATOM      6  C4  <0> d          -1.614  -3.054  -0.031  0.00  0.00     0.002 C 
ATOM      7  C3  <0> d          -1.744  -1.559  -0.331  0.00  0.00     0.004 C 
ATOM      8  C2  <0> d          -0.350  -0.940  -0.450  0.00  0.00    -0.017 C 
ATOM      9  C1  <0> d          -0.480   0.555  -0.749  0.00  0.00     0.010 C 
ATOM     10  C7  <0> d           0.408  -1.133   0.865  0.00  0.00     0.040 C 
ENDBRANCH   2   4
ENDBRANCH   1   2
BRANCH   1  11
ATOM     11  C10 <0> d           2.841  -4.620   1.929  0.00  0.00     0.270 C 
BRANCH  11  12
ATOM     12  N2  <0> d           2.668  -4.391   0.489  0.00  0.00    -0.077 N 
ATOM     13  H20 <0> d           2.657  -3.399   0.305  0.00  0.00     0.274 HD
ATOM     14  H21 <0> d           3.433  -4.817  -0.013  0.00  0.00     0.274 HD
ATOM     15  H25 <0> d           1.797  -4.799   0.185  0.00  0.00     0.274 HD
ENDBRANCH  11  12
ENDBRANCH   1  11
BRANCH   1  16
ATOM     16  C11 <0> d           1.732  -4.470   4.142  0.00  0.00     0.017 A 
ATOM     17  C16 <0> d           1.657  -5.755   4.651  0.00  0.00     0.124 A 
ATOM     18  C15 <0> d           1.824  -5.973   6.008  0.00  0.00     0.044 A 
ATOM     19  F1  <0> d           1.425  -6.797   3.823  0.00  0.00    -0.205 F 
ATOM     20  C14 <0> d           2.055  -4.906   6.855  0.00  0.00     0.022 A 
ATOM     21  C13 <0> d           2.124  -3.621   6.347  0.00  0.00     0.011 A 
ATOM     22  C12 <0> d           1.963  -3.403   4.991  0.00  0.00     0.031 A 
ATOM     23 Br1  <0> d           2.441  -2.161   7.507  0.00  0.00    -0.051 Br
ENDBRANCH   1  16
TORSDOF 5
