REMARK  6 active torsions:
REMARK  status: ('A' for Active; 'I' for Inactive)
REMARK    1  A    between atoms: C3_4  and  C13_17 
REMARK    2  A    between atoms: C4_5  and  C5_7 
REMARK    3  A    between atoms: C13_17  and  N4_32 
REMARK    4  A    between atoms: C16_20  and  C19_23 
REMARK    5  A    between atoms: C19_23  and  C20_24 
REMARK    6  A    between atoms: C19_23  and  O3_30 
ROOT
ATOM      1  C13 <0> d          -5.030   0.945   1.336  0.00  0.00     0.277 C 
ENDROOT
BRANCH   1   2
ATOM      2  C3  <0> d          -5.098  -0.399   0.657  0.00  0.00     0.016 A 
ATOM      3  C2  <0> d          -4.044  -1.144   0.260  0.00  0.00     0.123 A 
ATOM      4  N1  <0> d          -4.521  -2.272  -0.309  0.00  0.00    -0.284 N 
ATOM      5  C1  <0> d          -3.715  -3.354  -0.879  0.00  0.00     0.179 C 
ATOM      6  N2  <0> d          -5.920  -2.227  -0.259  0.00  0.00    -0.172 NA
ATOM      7  C4  <0> d          -6.273  -1.102   0.325  0.00  0.00     0.096 A 
BRANCH   7   8
ATOM      8  C5  <0> d          -7.663  -0.650   0.584  0.00  0.00    -0.002 A 
ATOM      9  C10 <0> d          -8.640  -0.803  -0.397  0.00  0.00     0.053 A 
ATOM     10  C9  <0> d          -9.937  -0.382  -0.154  0.00  0.00     0.103 A 
ATOM     11  C8  <0> d         -10.262   0.192   1.071  0.00  0.00     0.102 A 
ATOM     12  O1  <0> d         -10.880  -0.536  -1.124  0.00  0.00    -0.346 OA
ATOM     13  C7  <0> d          -9.287   0.341   2.048  0.00  0.00     0.040 A 
ATOM     14  O2  <0> d         -11.532   0.607   1.329  0.00  0.00    -0.346 OA
ATOM     15  C6  <0> d          -7.994  -0.073   1.808  0.00  0.00     0.017 A 
ATOM     16  C12 <0> d         -12.395   0.780   0.200  0.00  0.00     0.202 C 
ATOM     17  C11 <0> d         -12.248  -0.447  -0.711  0.00  0.00     0.202 C 
ENDBRANCH   7   8
ENDBRANCH   1   2
BRANCH   1  18
ATOM     18  N4  <0> d          -5.434   1.986   0.369  0.00  0.00    -0.067 N 
ATOM     19  C14 <0> d          -4.366   2.184  -0.634  0.00  0.00     0.235 C 
ATOM     20  C15 <0> d          -4.855   3.178  -1.690  0.00  0.00     0.035 C 
ATOM     21  C16 <0> d          -5.183   4.513  -1.014  0.00  0.00     0.024 C 
ATOM     22  C17 <0> d          -6.236   4.280   0.072  0.00  0.00     0.035 C 
ATOM     23  C18 <0> d          -5.707   3.254   1.077  0.00  0.00     0.235 C 
ATOM     24  H29 <0> d          -6.289   1.681  -0.111  0.00  0.00     0.280 HD
BRANCH  21  25
ATOM     25  C19 <0> d          -5.730   5.492  -2.055  0.00  0.00     0.174 C 
BRANCH  25  26
ATOM     26  C20 <0> d          -4.692   5.720  -3.124  0.00  0.00     0.063 A 
ATOM     27  N3  <0> d          -3.486   6.131  -2.785  0.00  0.00    -0.263 NA
ATOM     28  C24 <0> d          -2.546   6.339  -3.686  0.00  0.00     0.117 A 
ATOM     29  C23 <0> d          -2.798   6.141  -5.030  0.00  0.00     0.019 A 
ATOM     30  C22 <0> d          -4.057   5.713  -5.426  0.00  0.00     0.003 A 
ATOM     31  C21 <0> d          -5.018   5.500  -4.450  0.00  0.00     0.030 A 
ENDBRANCH  25  26
BRANCH  25  32
ATOM     32  O3  <0> d          -6.042   6.734  -1.422  0.00  0.00    -0.389 OA
ATOM     33  H28 <0> d          -5.285   7.162  -0.999  0.00  0.00     0.210 HD
ENDBRANCH  25  32
ENDBRANCH  21  25
ENDBRANCH   1  18
TORSDOF 6
