REMARK  6 active torsions:
REMARK  status: ('A' for Active; 'I' for Inactive)
REMARK    1  A    between atoms: C6_7  and  C18_24 
REMARK    2  A    between atoms: N3_16  and  C15_20 
REMARK    3  A    between atoms: C15_20  and  C16_21 
REMARK    4  A    between atoms: C16_21  and  C17_22 
REMARK    5  A    between atoms: C17_22  and  O3_23 
REMARK    6  A    between atoms: C22_28  and  N4_30 
ROOT
ATOM      1  C1  <0> d          -0.016   1.355   0.009  0.00  0.00     0.001 A 
ATOM      2  C2  <0> d           1.141   2.140   0.003  0.00  0.00     0.002 A 
ATOM      3  C3  <0> d           2.404   1.644  -0.012  0.00  0.00     0.030 A 
ATOM      4  C4  <0> d           2.552   0.226  -0.023  0.00  0.00     0.039 A 
ATOM      5  N1  <0> d           3.625  -0.506  -0.029  0.00  0.00    -0.378 N 
ATOM      6  C5  <0> d           3.230  -1.920  -0.073  0.00  0.00     0.139 A 
ATOM      7  C6  <0> d           3.704  -2.647   1.185  0.00  0.00     0.148 C 
ATOM      8  N2  <0> d           2.944  -3.866   1.425  0.00  0.00    -0.326 N 
ATOM      9  C7  <0> d           1.611  -4.179   0.955  0.00  0.00     0.184 C 
ATOM     10  C8  <0> d           0.908  -3.179   0.076  0.00  0.00     0.072 C 
ATOM     11  C9  <0> d           1.704  -1.908  -0.024  0.00  0.00    -0.040 A 
ATOM     12  C10 <0> d           1.332  -0.636  -0.014  0.00  0.00    -0.005 A 
ATOM     13  C11 <0> d           0.002  -0.004   0.002  0.00  0.00     0.014 A 
ATOM     14  C12 <0> d           0.757  -4.629   2.114  0.00  0.00     0.243 C 
ATOM     15  O1  <0> d          -0.362  -4.200   2.295  0.00  0.00    -0.271 OA
ATOM     16  N3  <0> d           1.328  -5.551   2.945  0.00  0.00    -0.342 N 
ATOM     17  C13 <0> d           2.679  -6.020   2.586  0.00  0.00     0.228 C 
ATOM     18  C14 <0> d           3.525  -4.817   2.228  0.00  0.00     0.239 C 
ATOM     19  O2  <0> d           4.663  -4.699   2.631  0.00  0.00    -0.271 OA
ATOM     20  H23 <0> d           4.536  -0.174  -0.008  0.00  0.00     0.160 HD
ENDROOT
BRANCH   7  21
ATOM     21  C18 <0> d           3.546  -1.731   2.370  0.00  0.00    -0.031 A 
ATOM     22  C23 <0> d           4.641  -1.048   2.866  0.00  0.00     0.045 A 
ATOM     23  C22 <0> d           4.496  -0.203   3.951  0.00  0.00     0.103 A 
ATOM     24  C21 <0> d           3.258  -0.049   4.546  0.00  0.00     0.036 A 
ATOM     25  C20 <0> d           2.164  -0.737   4.054  0.00  0.00     0.003 A 
ATOM     26  C19 <0> d           2.308  -1.577   2.966  0.00  0.00     0.009 A 
BRANCH  23  27
ATOM     27  N4  <0> d           5.667   0.533   4.477  0.00  0.00    -0.116 N 
ATOM     28  O4  <0> d           5.541   1.269   5.428  0.00  0.00    -0.532 OA
ATOM     29  O5  <0> d           6.750   0.398   3.957  0.00  0.00    -0.532 OA
ENDBRANCH  23  27
ENDBRANCH   7  21
BRANCH  16  30
ATOM     30  C15 <0> d           0.631  -6.050   4.134  0.00  0.00     0.128 C 
BRANCH  30  31
ATOM     31  C16 <0> d          -0.189  -7.287   3.763  0.00  0.00     0.046 C 
BRANCH  31  32
ATOM     32  C17 <0> d          -0.916  -7.807   5.005  0.00  0.00     0.165 C 
BRANCH  32  33
ATOM     33  O3  <0> d          -1.682  -8.963   4.659  0.00  0.00    -0.401 OA
ATOM     34  H18 <0> d          -2.171  -9.347   5.399  0.00  0.00     0.209 HD
ENDBRANCH  32  33
ENDBRANCH  31  32
ENDBRANCH  30  31
ENDBRANCH  16  30
TORSDOF 6
