REMARK  4 active torsions:
REMARK  status: ('A' for Active; 'I' for Inactive)
REMARK    1  A    between atoms: C5_5  and  O3_29 
REMARK    2  A    between atoms: C7_7  and  N1_8 
REMARK    3  A    between atoms: C8_9  and  C9_10 
REMARK    4  A    between atoms: N2_19  and  C18_22 
ROOT
ATOM      1  C9  <0> d          -0.303  -0.008   4.894  0.00  0.00     0.059 A 
ATOM      2  C10 <0> d           0.123   1.406   4.901  0.00  0.00    -0.003 A 
ATOM      3  C11 <0> d           0.017   2.209   3.771  0.00  0.00     0.013 A 
ATOM      4  C12 <0> d           0.429   3.524   3.828  0.00  0.00     0.001 A 
ATOM      5  C13 <0> d           0.947   4.050   5.003  0.00  0.00     0.001 A 
ATOM      6  C14 <0> d           1.061   3.270   6.133  0.00  0.00     0.018 A 
ATOM      7  C15 <0> d           0.650   1.937   6.097  0.00  0.00     0.044 A 
ATOM      8  C16 <0> d           0.753   1.072   7.279  0.00  0.00     0.266 A 
ATOM      9  O1  <0> d           1.206   1.525   8.313  0.00  0.00    -0.267 OA
ATOM     10  N2  <0> d           0.355  -0.210   7.237  0.00  0.00    -0.244 N 
ATOM     11  C17 <0> d          -0.159  -0.778   6.135  0.00  0.00     0.267 A 
ATOM     12  O2  <0> d          -0.506  -1.945   6.164  0.00  0.00    -0.267 OA
ENDROOT
BRANCH   1  13
ATOM     13  C8  <0> d          -0.826  -0.586   3.757  0.00  0.00     0.106 C 
ATOM     14  N1  <0> d          -0.465  -0.122   2.531  0.00  0.00    -0.364 N 
ATOM     15  H7  <0> d           0.229   0.552   2.453  0.00  0.00     0.165 HD
BRANCH  14  16
ATOM     16  C7  <0> d          -1.092  -0.616   1.385  0.00  0.00     0.040 A 
ATOM     17  C2  <0> d          -0.724  -0.142   0.132  0.00  0.00    -0.035 A 
ATOM     18  C1  <0> d           0.353   0.904   0.008  0.00  0.00     0.050 C 
ATOM     19  C3  <0> d          -1.341  -0.635  -1.002  0.00  0.00     0.012 A 
ATOM     20  C4  <0> d          -2.329  -1.595  -0.893  0.00  0.00     0.037 A 
ATOM     21  C5  <0> d          -2.705  -2.067   0.357  0.00  0.00     0.067 A 
ATOM     22  C6  <0> d          -2.089  -1.576   1.497  0.00  0.00     0.066 A 
BRANCH  21  23
ATOM     23  O3  <0> d          -3.678  -3.011   0.463  0.00  0.00    -0.361 OA
ATOM     24  H17 <0> d          -3.348  -3.920   0.437  0.00  0.00     0.217 HD
ENDBRANCH  21  23
ENDBRANCH  14  16
ENDBRANCH   1  13
BRANCH  10  25
ATOM     25  C18 <0> d           0.477  -0.987   8.397  0.00  0.00     0.047 A 
ATOM     26  C23 <0> d          -0.532  -0.978   9.349  0.00  0.00     0.054 A 
ATOM     27  C22 <0> d          -0.411  -1.750  10.490  0.00  0.00     0.036 A 
ATOM     28  C21 <0> d           0.721  -2.522  10.687  0.00  0.00     0.024 A 
ATOM     29 Cl1  <0> d          -1.675  -1.745  11.679  0.00  0.00    -0.084 Cl
ATOM     30  C20 <0> d           1.730  -2.528   9.741  0.00  0.00     0.004 A 
ATOM     31  C19 <0> d           1.611  -1.763   8.598  0.00  0.00     0.030 A 
ENDBRANCH  10  25
TORSDOF 4
