REMARK  4 active torsions:
REMARK  status: ('A' for Active; 'I' for Inactive)
REMARK    1  A    between atoms: C6_6  and  N1_8 
REMARK    2  A    between atoms: C11_13  and  N3_17 
REMARK       I    between atoms: N3_17  and  C15_18 
REMARK    3  A    between atoms: C15_18  and  C16_20 
REMARK    4  A    between atoms: C16_20  and  N4_21 
ROOT
ATOM      1  N1  <0> d           6.636   2.616  -4.624  0.00  0.00    -0.238 N 
ATOM      2  C8  <0> d           6.290   1.347  -4.337  0.00  0.00     0.046 A 
ATOM      3  C9  <0> d           5.145   1.384  -3.607  0.00  0.00     0.008 A 
ATOM      4  C10 <0> d           4.780   2.719  -3.446  0.00  0.00     0.150 A 
ATOM      5  N2  <0> d           5.673   3.462  -4.055  0.00  0.00    -0.179 NA
ATOM      6  C11 <0> d           4.435   0.159  -3.087  0.00  0.00     0.121 C 
ATOM      7  C12 <0> d           5.405  -1.026  -3.149  0.00  0.00     0.030 C 
ATOM      8  C13 <0> d           6.036  -1.098  -4.543  0.00  0.00     0.008 C 
ATOM      9  C14 <0> d           7.004   0.077  -4.728  0.00  0.00     0.060 C 
ENDROOT
BRANCH   6  10
ATOM     10  N3  <0> d           4.018   0.383  -1.700  0.00  0.00    -0.351 N 
ATOM     11  C15 <0> d           2.852   1.009  -1.440  0.00  0.00     0.236 C 
ATOM     12  O1  <0> d           2.149   1.386  -2.353  0.00  0.00    -0.272 OA
ATOM     13  H15 <0> d           4.580   0.081  -0.970  0.00  0.00     0.163 HD
BRANCH  11  14
ATOM     14  C16 <0> d           2.423   1.239  -0.014  0.00  0.00     0.235 C 
BRANCH  14  15
ATOM     15  N4  <0> d           1.132   1.932   0.002  0.00  0.00    -0.299 N 
ATOM     16  C24 <0> d          -0.014   1.213   0.009  0.00  0.00     0.261 A 
ATOM     17  C23 <0> d          -1.281   1.960   0.019  0.00  0.00     0.061 A 
ATOM     18  O2  <0> d           0.002  -0.004   0.002  0.00  0.00    -0.267 OA
ATOM     19  C18 <0> d          -1.219   3.371   0.032  0.00  0.00     0.073 A 
ATOM     20  C22 <0> d          -2.517   1.315   0.020  0.00  0.00     0.019 A 
ATOM     21  N5  <0> d          -0.005   3.976   0.024  0.00  0.00    -0.243 NA
ATOM     22  C19 <0> d          -2.405   4.108   0.048  0.00  0.00     0.032 A 
ATOM     23  C17 <0> d           1.097   3.290   0.009  0.00  0.00     0.213 A 
ATOM     24  C20 <0> d          -3.615   3.452   0.037  0.00  0.00     0.002 A 
ATOM     25  C21 <0> d          -3.673   2.064   0.029  0.00  0.00     0.001 A 
ENDBRANCH  14  15
ENDBRANCH  11  14
ENDBRANCH   6  10
BRANCH   1  26
ATOM     26  C6  <0> d           7.759   3.019  -5.360  0.00  0.00     0.059 A 
ATOM     27  C5  <0> d           7.685   4.130  -6.189  0.00  0.00     0.038 A 
ATOM     28  C4  <0> d           8.793   4.525  -6.912  0.00  0.00    -0.059 A 
ATOM     29  C3  <0> d           9.976   3.815  -6.812  0.00  0.00     0.013 A 
ATOM     30  C25 <0> d           8.714   5.731  -7.812  0.00  0.00     0.048 C 
ATOM     31  C2  <0> d          10.053   2.708  -5.987  0.00  0.00    -0.059 A 
ATOM     32  C1  <0> d          11.343   1.938  -5.880  0.00  0.00     0.048 C 
ATOM     33  C7  <0> d           8.949   2.312  -5.256  0.00  0.00     0.038 A 
ENDBRANCH   1  26
TORSDOF 4
