REMARK  7 active torsions:
REMARK  status: ('A' for Active; 'I' for Inactive)
REMARK    1  A    between atoms: C2_2  and  C3_3 
REMARK    2  A    between atoms: C8_8  and  N1_9 
REMARK       I    between atoms: N1_9  and  C9_10 
REMARK    3  A    between atoms: C9_10  and  C10_12 
REMARK    4  A    between atoms: C18_21  and  N2_22 
REMARK    5  A    between atoms: N2_22  and  C19_23 
REMARK    6  A    between atoms: C22_26  and  S1_29 
REMARK    7  A    between atoms: S1_29  and  N3_32 
ROOT
ATOM      1  C10 <0> d          -1.448  -0.339  -4.806  0.00  0.00     0.084 C 
ATOM      2  C11 <0> d          -2.141  -0.459  -6.004  0.00  0.00     0.035 C 
ATOM      3  C12 <0> d          -1.423  -0.116  -7.234  0.00  0.00    -0.001 A 
ATOM      4  C13 <0> d          -2.110   0.051  -8.442  0.00  0.00     0.014 A 
ATOM      5  C14 <0> d          -1.418   0.374  -9.576  0.00  0.00     0.001 A 
ATOM      6  C15 <0> d          -0.041   0.540  -9.539  0.00  0.00     0.003 A 
ATOM      7  C16 <0> d           0.655   0.379  -8.357  0.00  0.00     0.038 A 
ATOM      8  C17 <0> d          -0.025   0.049  -7.195  0.00  0.00     0.088 A 
ATOM      9  O2  <0> d           0.642  -0.119  -6.027  0.00  0.00    -0.292 OA
ATOM     10  C18 <0> d          -0.049   0.128  -4.883  0.00  0.00     0.164 C 
ENDROOT
BRANCH  10  11
ATOM     11  N2  <0> d           0.510   0.760  -3.873  0.00  0.00    -0.336 N 
ATOM     12  H22 <0> d          -0.028   1.030  -3.112  0.00  0.00     0.168 HD
BRANCH  11  13
ATOM     13  C19 <0> d           1.849   1.037  -3.897  0.00  0.00     0.034 A 
ATOM     14  C24 <0> d           2.311   2.301  -3.523  0.00  0.00     0.031 A 
ATOM     15  C23 <0> d           3.664   2.571  -3.545  0.00  0.00     0.027 A 
ATOM     16  C22 <0> d           4.561   1.597  -3.946  0.00  0.00     0.079 A 
ATOM     17  C21 <0> d           4.110   0.344  -4.323  0.00  0.00     0.027 A 
ATOM     18  C20 <0> d           2.761   0.058  -4.301  0.00  0.00     0.031 A 
BRANCH  16  19
ATOM     19  S1  <0> d           6.286   1.953  -3.976  0.00  0.00     0.256 S 
ATOM     20  O3  <0> d           6.497   3.018  -3.059  0.00  0.00    -0.201 OA
ATOM     21  O4  <0> d           6.960   0.707  -3.866  0.00  0.00    -0.201 OA
BRANCH  19  22
ATOM     22  N3  <0> d           6.637   2.549  -5.481  0.00  0.00    -0.324 N 
ATOM     23  H20 <0> d           7.360   3.186  -5.594  0.00  0.00     0.169 HD
ATOM     24  H21 <0> d           6.120   2.261  -6.249  0.00  0.00     0.169 HD
ENDBRANCH  19  22
ENDBRANCH  16  19
ENDBRANCH  11  13
ENDBRANCH  10  11
BRANCH   1  25
ATOM     25  C9  <0> d          -2.082  -0.659  -3.517  0.00  0.00     0.260 C 
ATOM     26  N1  <0> d          -1.352  -0.639  -2.384  0.00  0.00    -0.322 N 
ATOM     27  H10 <0> d          -0.421  -0.367  -2.411  0.00  0.00     0.169 HD
ATOM     28  O1  <0> d          -3.264  -0.943  -3.474  0.00  0.00    -0.267 OA
BRANCH  26  29
ATOM     29  C8  <0> d          -1.937  -1.009  -1.168  0.00  0.00     0.041 A 
ATOM     30  C3  <0> d          -1.139  -1.414  -0.107  0.00  0.00    -0.032 A 
ATOM     31  C4  <0> d          -1.719  -1.773   1.094  0.00  0.00     0.009 A 
ATOM     32  C5  <0> d          -3.094  -1.735   1.238  0.00  0.00     0.001 A 
ATOM     33  C6  <0> d          -3.892  -1.338   0.180  0.00  0.00     0.002 A 
ATOM     34  C7  <0> d          -3.318  -0.978  -1.023  0.00  0.00     0.030 A 
BRANCH  30  35
ATOM     35  C2  <0> d           0.360  -1.456  -0.263  0.00  0.00     0.036 C 
ATOM     36  C1  <0> d           0.941  -0.070   0.021  0.00  0.00     0.010 C 
ENDBRANCH  30  35
ENDBRANCH  26  29
ENDBRANCH   1  25
TORSDOF 7
