REMARK  6 active torsions:
REMARK  status: ('A' for Active; 'I' for Inactive)
REMARK    1  A    between atoms: C2_2  and  N1_3 
REMARK    2  A    between atoms: N1_3  and  C3_4 
REMARK    3  A    between atoms: C5_6  and  S1_10 
REMARK    4  A    between atoms: S1_10  and  N3_13 
REMARK    5  A    between atoms: N3_13  and  C8_14 
REMARK    6  A    between atoms: C8_14  and  C9_15 
ROOT
ATOM      1  S1  <0> d           0.545  -5.284  -0.019  0.00  0.00     0.259 S 
ATOM      2  O1  <0> d           0.030  -6.487  -0.573  0.00  0.00    -0.201 OA
ATOM      3  O2  <0> d           1.667  -4.610  -0.573  0.00  0.00    -0.201 OA
ENDROOT
BRANCH   1   4
ATOM      4  C5  <0> d          -0.782  -4.126  -0.007  0.00  0.00     0.084 A 
ATOM      5  C4  <0> d          -0.533  -2.765  -0.002  0.00  0.00     0.075 A 
ATOM      6  C3  <0> d          -1.608  -1.881   0.007  0.00  0.00     0.124 A 
ATOM      7  N2  <0> d          -2.852  -2.333   0.017  0.00  0.00    -0.244 NA
ATOM      8  C7  <0> d          -3.119  -3.625   0.007  0.00  0.00     0.120 A 
ATOM      9  C6  <0> d          -2.102  -4.558  -0.003  0.00  0.00     0.044 A 
BRANCH   6  10
ATOM     10  N1  <0> d          -1.372  -0.511   0.012  0.00  0.00    -0.375 N 
ATOM     11  H7  <0> d          -2.118   0.109   0.023  0.00  0.00     0.161 HD
BRANCH  10  12
ATOM     12  C2  <0> d           0.002  -0.004   0.002  0.00  0.00     0.116 C 
ATOM     13  C1  <0> d          -0.019   1.526   0.010  0.00  0.00     0.026 C 
ENDBRANCH  10  12
ENDBRANCH   6  10
ENDBRANCH   1   4
BRANCH   1  14
ATOM     14  N3  <0> d           0.923  -5.613   1.559  0.00  0.00    -0.315 N 
ATOM     15  H11 <0> d           1.789  -5.359   1.914  0.00  0.00     0.172 HD
BRANCH  14  16
ATOM     16  C8  <0> d          -0.052  -6.289   2.420  0.00  0.00     0.137 C 
BRANCH  16  17
ATOM     17  C9  <0> d           0.650  -6.804   3.678  0.00  0.00     0.019 C 
ATOM     18  C12 <0> d          -0.345  -7.645   4.513  0.00  0.00     0.146 C 
ATOM     19  S2  <0> d           0.216  -7.341   6.237  0.00  0.00     0.144 S 
ATOM     20  C11 <0> d           1.572  -6.138   5.909  0.00  0.00     0.141 C 
ATOM     21  O3  <0> d          -0.822  -6.685   6.952  0.00  0.00    -0.228 OA
ATOM     22  O4  <0> d           0.776  -8.538   6.761  0.00  0.00    -0.228 OA
ATOM     23  C10 <0> d           1.151  -5.611   4.508  0.00  0.00     0.022 C 
ENDBRANCH  16  17
ENDBRANCH  14  16
ENDBRANCH   1  14
TORSDOF 6
