REMARK  5 active torsions:
REMARK  status: ('A' for Active; 'I' for Inactive)
REMARK    1  A    between atoms: N1_7  and  C7_8 
REMARK    2  A    between atoms: C7_8  and  N2_9 
REMARK    3  A    between atoms: C14_16  and  C16_19 
REMARK    4  A    between atoms: C14_16  and  O3_26 
REMARK    5  A    between atoms: C18_23  and  N4_25 
ROOT
ATOM      1  N2  <0> d           0.843  -0.336   3.579  0.00  0.00    -0.289 N 
ATOM      2  C8  <0> d           0.629  -1.511   4.300  0.00  0.00     0.049 A 
ATOM      3  C9  <0> d          -0.292  -2.540   4.113  0.00  0.00     0.030 A 
ATOM      4  C10 <0> d          -0.310  -3.618   4.974  0.00  0.00     0.002 A 
ATOM      5  C11 <0> d           0.583  -3.687   6.027  0.00  0.00     0.001 A 
ATOM      6  C12 <0> d           1.501  -2.669   6.219  0.00  0.00     0.013 A 
ATOM      7  C13 <0> d           1.521  -1.592   5.362  0.00  0.00     0.014 A 
ATOM      8  C14 <0> d           2.374  -0.346   5.296  0.00  0.00     0.190 A 
ATOM      9  C15 <0> d           1.846   0.399   4.089  0.00  0.00     0.267 A 
ATOM     10  O1  <0> d           2.250   1.460   3.664  0.00  0.00    -0.269 OA
ENDROOT
BRANCH   8  11
ATOM     11  C16 <0> d           2.201   0.490   6.566  0.00  0.00     0.198 A 
ATOM     12  S1  <0> d           2.982  -0.325   8.020  0.00  0.00    -0.074 SA
ATOM     13  C18 <0> d           4.128   0.862   8.361  0.00  0.00     0.164 A 
ATOM     14  N3  <0> d           3.948   1.807   7.457  0.00  0.00    -0.189 NA
ATOM     15  C17 <0> d           3.041   1.761   6.515  0.00  0.00     0.263 A 
ATOM     16  O2  <0> d           2.884   2.638   5.688  0.00  0.00    -0.270 OA
BRANCH  13  17
ATOM     17  N4  <0> d           5.051   0.848   9.365  0.00  0.00    -0.378 N 
ATOM     18  H20 <0> d           5.666   1.592   9.469  0.00  0.00     0.158 HD
ATOM     19  H21 <0> d           5.093   0.096   9.975  0.00  0.00     0.158 HD
ENDBRANCH  13  17
ENDBRANCH   8  11
BRANCH   8  20
ATOM     20  O3  <0> d           3.748  -0.690   5.106  0.00  0.00    -0.374 OA
ATOM     21  H22 <0> d           3.919  -1.195   4.299  0.00  0.00     0.211 HD
ENDBRANCH   8  20
BRANCH   1  22
ATOM     22  C7  <0> d           0.067   0.050   2.397  0.00  0.00     0.367 C 
BRANCH  22  23
ATOM     23  N1  <0> d           0.711  -0.490   1.192  0.00  0.00    -0.051 N 
ATOM     24  C2  <0> d           0.002  -0.004   0.002  0.00  0.00     0.186 C 
ATOM     25  C1  <0> d          -0.019   1.526   0.010  0.00  0.00     0.040 C 
ATOM     26  C3  <0> d           0.717  -0.497  -1.258  0.00  0.00     0.033 C 
ATOM     27  C4  <0> d           0.735  -2.028  -1.262  0.00  0.00     0.004 C 
ATOM     28  C5  <0> d           1.410  -2.524   0.020  0.00  0.00     0.028 C 
ATOM     29  C6  <0> d           0.669  -1.956   1.232  0.00  0.00     0.237 C 
ATOM     30  H23 <0> d           1.671  -0.182   1.159  0.00  0.00     0.282 HD
ENDBRANCH  22  23
ENDBRANCH   1  22
TORSDOF 5
