REMARK  4 active torsions:
REMARK  status: ('A' for Active; 'I' for Inactive)
REMARK    1  A    between atoms: N1_2  and  C2_3 
REMARK       I    between atoms: N1_2  and  C5_8 
REMARK    2  A    between atoms: C2_3  and  C3_4 
REMARK    3  A    between atoms: C3_4  and  C4_5 
REMARK    4  A    between atoms: C5_8  and  C6_10 
ROOT
ATOM      1  C1  <0> d          -2.370  -0.258  -0.953  0.00  0.00     0.152 C 
ATOM      2  N1  <0> d          -1.114  -0.828  -0.460  0.00  0.00    -0.355 N 
ATOM      3  C5  <0> d          -0.000  -0.761  -1.217  0.00  0.00     0.228 C 
ATOM      4  O1  <0> d           1.016  -1.313  -0.851  0.00  0.00    -0.273 OA
ENDROOT
BRANCH   3   5
ATOM      5  C6  <0> d          -0.018  -0.001  -2.518  0.00  0.00     0.111 C 
ATOM      6  C11 <0> d           1.304   0.696  -2.704  0.00  0.00    -0.039 A 
ATOM      7  C10 <0> d           1.959   0.734  -3.914  0.00  0.00    -0.051 A 
ATOM      8  C12 <0> d           1.867   1.321  -1.599  0.00  0.00     0.008 A 
ATOM      9  C9  <0> d           1.413   0.072  -5.152  0.00  0.00     0.039 C 
ATOM     10  C15 <0> d           3.173   1.401  -4.019  0.00  0.00     0.007 A 
ATOM     11  C8  <0> d          -0.076  -0.225  -4.989  0.00  0.00     0.006 C 
ATOM     12  C7  <0> d          -0.278  -0.974  -3.666  0.00  0.00     0.019 C 
ATOM     13  C14 <0> d           3.729   2.021  -2.921  0.00  0.00     0.001 A 
ATOM     14  C13 <0> d           3.074   1.981  -1.705  0.00  0.00     0.001 A 
ENDBRANCH   3   5
BRANCH   2  15
ATOM     15  C2  <0> d          -1.067  -1.470   0.856  0.00  0.00     0.132 C 
BRANCH  15  16
ATOM     16  C3  <0> d          -1.388  -2.959   0.708  0.00  0.00     0.089 C 
BRANCH  16  17
ATOM     17  C4  <0> d          -1.340  -3.619   2.062  0.00  0.00     0.072 C 
ATOM     18  S1  <0> d          -0.992  -2.755   3.362  0.00  0.00    -0.066 SA
ATOM     19  N2  <0> d          -1.591  -4.939   2.177  0.00  0.00    -0.393 N 
ATOM     20  H9  <0> d          -1.802  -5.463   1.389  0.00  0.00     0.156 HD
ATOM     21  H10 <0> d          -1.560  -5.364   3.049  0.00  0.00     0.156 HD
ENDBRANCH  16  17
ENDBRANCH  15  16
ENDBRANCH   2  15
TORSDOF 4
