REMARK  3 active torsions:
REMARK  status: ('A' for Active; 'I' for Inactive)
REMARK    1  A    between atoms: C2_2  and  C3_3 
REMARK    2  A    between atoms: C2_2  and  N2_14 
REMARK       I    between atoms: N2_14  and  C11_15 
REMARK    3  A    between atoms: C11_15  and  C12_17 
ROOT
ATOM      1  C1  <0> d          -0.019   1.526   0.010  0.00  0.00     0.037 C 
ATOM      2  C2  <0> d           0.002  -0.004   0.002  0.00  0.00     0.114 C 
ENDROOT
BRANCH   2   3
ATOM      3  C3  <0> d           0.707  -0.490  -1.238  0.00  0.00    -0.034 A 
ATOM      4  C8  <0> d           2.027  -0.899  -1.165  0.00  0.00     0.041 A 
ATOM      5  C7  <0> d           2.672  -1.350  -2.305  0.00  0.00     0.069 A 
ATOM      6  C6  <0> d           1.994  -1.379  -3.523  0.00  0.00     0.096 A 
ATOM      7  N1  <0> d           4.006  -1.776  -2.252  0.00  0.00    -0.323 N 
ATOM      8  C5  <0> d           0.676  -0.964  -3.589  0.00  0.00     0.040 A 
ATOM      9  O2  <0> d           2.640  -1.818  -4.637  0.00  0.00    -0.340 OA
ATOM     10  C4  <0> d           0.035  -0.521  -2.446  0.00  0.00     0.012 A 
ATOM     11  C10 <0> d           4.043  -1.549  -4.714  0.00  0.00     0.278 C 
ATOM     12  C9  <0> d           4.699  -1.903  -3.404  0.00  0.00     0.246 C 
ATOM     13  O1  <0> d           5.846  -2.299  -3.385  0.00  0.00    -0.271 OA
ATOM     14  H8  <0> d           4.426  -1.976  -1.400  0.00  0.00     0.169 HD
ENDBRANCH   2   3
BRANCH   2  15
ATOM     15  N2  <0> d          -1.372  -0.511   0.012  0.00  0.00    -0.349 N 
ATOM     16  C11 <0> d          -2.029  -0.655   1.181  0.00  0.00     0.253 C 
ATOM     17  O3  <0> d          -1.480  -0.364   2.226  0.00  0.00    -0.268 OA
ATOM     18  H11 <0> d          -1.810  -0.743  -0.822  0.00  0.00     0.163 HD
BRANCH  16  19
ATOM     19  C12 <0> d          -3.416  -1.167   1.191  0.00  0.00     0.050 A 
ATOM     20  C16 <0> d          -4.056  -1.504  -0.001  0.00  0.00     0.133 A 
ATOM     21  N3  <0> d          -5.290  -1.966   0.008  0.00  0.00    -0.271 NA
ATOM     22  C15 <0> d          -5.969  -2.116   1.128  0.00  0.00     0.135 A 
ATOM     23  C14 <0> d          -5.407  -1.799   2.353  0.00  0.00     0.029 A 
ATOM     24  C13 <0> d          -4.110  -1.316   2.398  0.00  0.00     0.039 A 
ATOM     25 Br1  <0> d          -6.399  -2.024   3.947  0.00  0.00    -0.050 Br
ENDBRANCH  16  19
ENDBRANCH   2  15
TORSDOF 3
