REMARK  4 active torsions:
REMARK  status: ('A' for Active; 'I' for Inactive)
REMARK    1  A    between atoms: N1_2  and  C3_4 
REMARK    2  A    between atoms: C10_11  and  C11_12 
REMARK    3  A    between atoms: C15_16  and  C16_18 
REMARK    4  A    between atoms: C20_22  and  N4_29 
ROOT
ATOM      1  C11 <0> d          -0.258   2.161  -4.649  0.00  0.00     0.058 A 
ATOM      2  C12 <0> d          -0.289   3.465  -5.162  0.00  0.00     0.031 A 
ATOM      3  C13 <0> d          -0.225   4.538  -4.289  0.00  0.00     0.005 A 
ATOM      4  C14 <0> d          -0.132   4.285  -2.930  0.00  0.00     0.031 A 
ATOM      5  C15 <0> d          -0.105   2.958  -2.481  0.00  0.00     0.058 A 
ATOM      6  N2  <0> d          -0.173   1.950  -3.342  0.00  0.00    -0.249 NA
ENDROOT
BRANCH   1   7
ATOM      7  C10 <0> d          -0.325   1.016  -5.569  0.00  0.00     0.049 C 
ATOM      8  C9  <0> d          -1.301   0.079  -5.418  0.00  0.00     0.047 A 
ATOM      9  C7  <0> d          -2.458   0.123  -4.494  0.00  0.00     0.009 A 
ATOM     10  C27 <0> d          -1.437  -1.202  -6.141  0.00  0.00     0.257 A 
ATOM     11  C6  <0> d          -3.176  -1.061  -4.702  0.00  0.00     0.046 A 
ATOM     12  C8  <0> d          -2.894   1.057  -3.561  0.00  0.00     0.044 A 
ATOM     13  C5  <0> d          -4.329  -1.294  -3.961  0.00  0.00     0.033 A 
ATOM     14  N5  <0> d          -2.541  -1.818  -5.684  0.00  0.00    -0.322 N 
ATOM     15  C4  <0> d          -4.757  -0.368  -3.032  0.00  0.00     0.031 A 
ATOM     16  C3  <0> d          -4.043   0.807  -2.825  0.00  0.00     0.030 A 
ATOM     17  H25 <0> d          -2.854  -2.681  -5.998  0.00  0.00     0.169 HD
ATOM     18  O2  <0> d          -0.684  -1.624  -6.998  0.00  0.00    -0.267 OA
BRANCH  16  19
ATOM     19  N1  <0> d          -4.486   1.739  -1.880  0.00  0.00    -0.390 N 
ATOM     20  C1  <0> d          -3.815   3.036  -1.759  0.00  0.00     0.149 C 
ATOM     21  C2  <0> d          -5.620   1.418  -1.010  0.00  0.00     0.149 C 
ENDBRANCH  16  19
ENDBRANCH   1   7
BRANCH   5  22
ATOM     22  C16 <0> d          -0.006   2.680  -1.040  0.00  0.00     0.049 C 
ATOM     23  C17 <0> d           0.873   1.745  -0.586  0.00  0.00     0.047 A 
ATOM     24  C24 <0> d           1.888   1.011  -1.369  0.00  0.00     0.257 A 
ATOM     25  C18 <0> d           1.014   1.237   0.797  0.00  0.00     0.009 A 
ATOM     26  N3  <0> d           2.541   0.189  -0.530  0.00  0.00    -0.322 N 
ATOM     27  O1  <0> d           2.099   1.133  -2.561  0.00  0.00    -0.267 OA
ATOM     28  C23 <0> d           2.046   0.291   0.769  0.00  0.00     0.046 A 
ATOM     29  H18 <0> d           3.261  -0.404  -0.795  0.00  0.00     0.169 HD
ATOM     30  C22 <0> d           2.403  -0.359   1.945  0.00  0.00     0.033 A 
ATOM     31  C21 <0> d           1.746  -0.073   3.124  0.00  0.00     0.031 A 
ATOM     32  C20 <0> d           0.721   0.866   3.152  0.00  0.00     0.030 A 
ATOM     33  C19 <0> d           0.353   1.523   1.987  0.00  0.00     0.044 A 
BRANCH  32  34
ATOM     34  N4  <0> d           0.061   1.148   4.353  0.00  0.00    -0.390 N 
ATOM     35  C25 <0> d          -1.018   2.138   4.382  0.00  0.00     0.149 C 
ATOM     36  C26 <0> d           0.451   0.453   5.583  0.00  0.00     0.149 C 
ENDBRANCH  32  34
ENDBRANCH   5  22
TORSDOF 4
