REMARK  4 active torsions:
REMARK  status: ('A' for Active; 'I' for Inactive)
REMARK    1  A    between atoms: C2_2  and  C3_3 
REMARK    2  A    between atoms: C3_3  and  C17_23 
REMARK    3  A    between atoms: C6_6  and  C7_8 
REMARK    4  A    between atoms: C17_23  and  O4_25 
ROOT
ATOM      1  C3  <0> d          -1.433  -0.534   0.013  0.00  0.00     0.257 C 
ATOM      2  C4  <0> d          -1.496  -2.070  -0.112  0.00  0.00     0.143 A 
ATOM      3  C5  <0> d          -1.657  -2.340  -1.632  0.00  0.00     0.134 A 
ATOM      4  C6  <0> d          -1.661  -0.942  -2.284  0.00  0.00     0.294 C 
ATOM      5  N1  <0> d          -2.125  -0.028  -1.200  0.00  0.00     0.116 N 
ATOM      6  C14 <0> d          -3.035  -2.955  -1.734  0.00  0.00     0.233 A 
ATOM      7  O1  <0> d          -3.564  -3.322  -2.761  0.00  0.00    -0.272 OA
ATOM      8  N3  <0> d          -3.578  -3.032  -0.513  0.00  0.00    -0.292 N 
ATOM      9  C15 <0> d          -2.794  -2.565   0.486  0.00  0.00     0.234 A 
ATOM     10  O2  <0> d          -3.076  -2.542   1.665  0.00  0.00    -0.272 OA
ATOM     11  C16 <0> d          -4.914  -3.583  -0.274  0.00  0.00     0.162 C 
ATOM     12  H9  <0> d          -3.127  -0.066  -1.087  0.00  0.00     0.318 HD
ENDROOT
BRANCH   4  13
ATOM     13  C7  <0> d          -2.630  -0.902  -3.438  0.00  0.00     0.110 A 
ATOM     14  S1  <0> d          -2.293  -0.915  -5.089  0.00  0.00    -0.075 SA
ATOM     15  C9  <0> d          -3.967  -0.851  -5.664  0.00  0.00     0.009 A 
ATOM     16  C8  <0> d          -4.675  -0.815  -4.503  0.00  0.00     0.048 A 
ATOM     17  C10 <0> d          -4.498  -0.836  -7.056  0.00  0.00     0.048 C 
ATOM     18  N2  <0> d          -3.937  -0.844  -3.400  0.00  0.00    -0.247 NA
ATOM     19  C13 <0> d          -6.195  -0.745  -4.527  0.00  0.00     0.060 C 
ATOM     20  C12 <0> d          -6.643  -0.270  -5.911  0.00  0.00     0.006 C 
ATOM     21  C11 <0> d          -6.004  -1.140  -6.998  0.00  0.00     0.006 C 
ENDBRANCH   4  13
BRANCH   1  22
ATOM     22  C2  <0> d           0.021  -0.059   0.034  0.00  0.00     0.049 C 
ATOM     23  C1  <0> d           0.059   1.470   0.076  0.00  0.00     0.008 C 
ENDBRANCH   1  22
BRANCH   1  24
ATOM     24  C17 <0> d          -2.151  -0.076   1.256  0.00  0.00     0.298 C 
ATOM     25  O3  <0> d          -1.532   0.114   2.276  0.00  0.00    -0.262 OA
BRANCH  24  26
ATOM     26  O4  <0> d          -3.479   0.121   1.230  0.00  0.00    -0.324 OA
ATOM     27  C18 <0> d          -4.094   0.555   2.445  0.00  0.00     0.213 C 
ENDBRANCH  24  26
ENDBRANCH   1  24
TORSDOF 4
