REMARK  5 active torsions:
REMARK  status: ('A' for Active; 'I' for Inactive)
REMARK    1  A    between atoms: C2_2  and  C3_3 
REMARK    2  A    between atoms: C2_2  and  N3_21 
REMARK    3  A    between atoms: C3_3  and  C4_4 
REMARK    4  A    between atoms: C3_3  and  S2_10 
REMARK    5  A    between atoms: S2_10  and  C8_11 
ROOT
ATOM      1  C3  <0> d           0.657  -0.524   1.135  0.00  0.00     0.125 C 
ENDROOT
BRANCH   1   2
ATOM      2  C2  <0> d          -0.084  -0.017  -0.103  0.00  0.00     0.198 C 
ATOM      3  C1  <0> d          -1.490  -0.620  -0.139  0.00  0.00     0.041 C 
BRANCH   2   4
ATOM      4  N3  <0> d          -0.180   1.448  -0.051  0.00  0.00    -0.074 N 
ATOM      5  H13 <0> d          -0.629   1.725   0.809  0.00  0.00     0.274 HD
ATOM      6  H14 <0> d           0.745   1.847  -0.092  0.00  0.00     0.274 HD
ATOM      7  H15 <0> d          -0.724   1.778  -0.835  0.00  0.00     0.274 HD
ENDBRANCH   2   4
ENDBRANCH   1   2
BRANCH   1   8
ATOM      8  C4  <0> d          -0.009   0.016   2.375  0.00  0.00    -0.000 A 
ATOM      9  S1  <0> d          -1.687  -0.212   2.940  0.00  0.00    -0.104 SA
ATOM     10  C7  <0> d          -1.582   0.752   4.439  0.00  0.00     0.069 A 
ATOM     11  C6  <0> d          -0.297   1.183   4.405  0.00  0.00     0.018 A 
ATOM     12  C5  <0> d           0.509   0.806   3.347  0.00  0.00     0.035 A 
ATOM     13 Br1  <0> d           0.382   2.284   5.785  0.00  0.00    -0.051 Br
ENDBRANCH   1   8
BRANCH   1  14
ATOM     14  S2  <0> d           0.613  -2.337   1.167  0.00  0.00    -0.080 SA
BRANCH  14  15
ATOM     15  C8  <0> d           1.620  -2.811  -0.199  0.00  0.00     0.168 A 
ATOM     16  N2  <0> d           2.162  -1.984  -1.059  0.00  0.00    -0.223 NA
ATOM     17  C14 <0> d           2.876  -2.684  -1.978  0.00  0.00     0.086 A 
ATOM     18  C9  <0> d           2.748  -4.044  -1.654  0.00  0.00     0.063 A 
ATOM     19  C13 <0> d           3.638  -2.311  -3.088  0.00  0.00     0.034 A 
ATOM     20  N1  <0> d           1.948  -4.098  -0.524  0.00  0.00    -0.333 N 
ATOM     21  C10 <0> d           3.375  -5.004  -2.433  0.00  0.00     0.032 A 
ATOM     22  H3  <0> d           1.672  -4.898  -0.051  0.00  0.00     0.168 HD
ATOM     23  C11 <0> d           4.124  -4.620  -3.526  0.00  0.00     0.002 A 
ATOM     24  C12 <0> d           4.254  -3.277  -3.851  0.00  0.00     0.002 A 
ENDBRANCH  14  15
ENDBRANCH   1  14
TORSDOF 5
