REMARK  5 active torsions:
REMARK  status: ('A' for Active; 'I' for Inactive)
REMARK    1  A    between atoms: C3_3  and  C12_15 
REMARK    2  A    between atoms: N1_6  and  C6_9 
REMARK    3  A    between atoms: N3_20  and  C17_23 
REMARK    4  A    between atoms: C23_29  and  C24_31 
REMARK    5  A    between atoms: C23_29  and  C27_34 
ROOT
ATOM      1  C12 <0> d          -2.606  -0.527   0.746  0.00  0.00     0.241 C 
ATOM      2  C13 <0> d          -3.571  -1.377  -0.074  0.00  0.00     0.130 C 
ATOM      3  C14 <0> d          -4.782  -1.324   0.932  0.00  0.00     0.141 C 
ATOM      4  C15 <0> d          -5.884  -1.734   0.095  0.00  0.00     0.239 C 
ATOM      5  O2  <0> d          -6.861  -2.374   0.421  0.00  0.00    -0.272 OA
ATOM      6  N3  <0> d          -5.586  -1.241  -1.151  0.00  0.00    -0.252 N 
ATOM      7  C16 <0> d          -4.280  -0.811  -1.264  0.00  0.00     0.238 C 
ATOM      8  O3  <0> d          -3.801  -0.116  -2.134  0.00  0.00    -0.272 OA
ATOM      9  C23 <0> d          -4.169  -1.651   2.225  0.00  0.00     0.229 C 
ATOM     10  N4  <0> d          -2.783  -1.054   2.139  0.00  0.00    -0.045 N 
ATOM     11  H20 <0> d          -2.098  -1.771   2.324  0.00  0.00     0.279 HD
ATOM     12  H28 <0> d          -2.682  -0.302   2.805  0.00  0.00     0.279 HD
ENDROOT
BRANCH   1  13
ATOM     13  C3  <0> d          -1.188  -0.728   0.278  0.00  0.00     0.067 A 
ATOM     14  C2  <0> d          -0.387   0.219  -0.252  0.00  0.00     0.038 A 
ATOM     15  C1  <0> d          -0.759   1.662  -0.478  0.00  0.00     0.070 C 
ATOM     16  N2  <0> d           0.816  -0.352  -0.555  0.00  0.00    -0.291 N 
ATOM     17  N1  <0> d           0.762  -1.704  -0.191  0.00  0.00    -0.218 N 
ATOM     18  C5  <0> d           1.965   0.331  -1.155  0.00  0.00     0.178 C 
ATOM     19  C4  <0> d          -0.465  -1.943   0.317  0.00  0.00     0.277 A 
ATOM     20  O1  <0> d          -0.875  -3.011   0.734  0.00  0.00    -0.266 OA
BRANCH  17  21
ATOM     21  C6  <0> d           1.792  -2.639  -0.333  0.00  0.00     0.060 A 
ATOM     22  C11 <0> d           1.537  -3.871  -0.922  0.00  0.00     0.031 A 
ATOM     23  C10 <0> d           2.558  -4.790  -1.066  0.00  0.00     0.002 A 
ATOM     24  C9  <0> d           3.830  -4.489  -0.614  0.00  0.00     0.000 A 
ATOM     25  C8  <0> d           4.086  -3.266  -0.023  0.00  0.00     0.002 A 
ATOM     26  C7  <0> d           3.071  -2.340   0.118  0.00  0.00     0.031 A 
ENDBRANCH  17  21
ENDBRANCH   1  13
BRANCH   9  27
ATOM     27  C24 <0> d          -4.947  -0.993   3.366  0.00  0.00     0.025 C 
ATOM     28  C25 <0> d          -6.425  -1.375   3.262  0.00  0.00     0.012 C 
ATOM     29  C26 <0> d          -4.389  -1.474   4.707  0.00  0.00     0.012 C 
ENDBRANCH   9  27
BRANCH   9  30
ATOM     30  C27 <0> d          -4.113  -3.145   2.418  0.00  0.00     0.212 C 
ATOM     31  O4  <0> d          -3.038  -3.700   2.570  0.00  0.00    -0.646 OA
ATOM     32  O5  <0> d          -5.143  -3.798   2.421  0.00  0.00    -0.646 OA
ENDBRANCH   9  30
BRANCH   6  33
ATOM     33  C17 <0> d          -6.507  -1.190  -2.207  0.00  0.00     0.045 A 
ATOM     34  C22 <0> d          -6.125  -0.675  -3.439  0.00  0.00     0.030 A 
ATOM     35  C21 <0> d          -7.033  -0.632  -4.479  0.00  0.00     0.002 A 
ATOM     36  C20 <0> d          -8.324  -1.090  -4.291  0.00  0.00     0.000 A 
ATOM     37  C19 <0> d          -8.709  -1.597  -3.063  0.00  0.00     0.002 A 
ATOM     38  C18 <0> d          -7.804  -1.649  -2.021  0.00  0.00     0.030 A 
ENDBRANCH   6  33
TORSDOF 5
