REMARK  7 active torsions:
REMARK  status: ('A' for Active; 'I' for Inactive)
REMARK    1  A    between atoms: C2_2  and  O1_3 
REMARK    2  A    between atoms: O1_3  and  C3_4 
REMARK    3  A    between atoms: C6_7  and  N1_10 
REMARK    4  A    between atoms: N1_10  and  S1_11 
REMARK    5  A    between atoms: S1_11  and  C9_14 
REMARK    6  A    between atoms: C15_20  and  C18_25 
REMARK       I    between atoms: C18_25  and  N3_27 
REMARK    7  A    between atoms: N3_27  and  C19_28 
ROOT
ATOM      1  C9  <0> d          -0.228   1.634  -0.177  0.00  0.00     0.080 A 
ATOM      2  C10 <0> d           0.824   2.542  -0.273  0.00  0.00     0.027 A 
ATOM      3  C11 <0> d           0.590   3.876  -0.412  0.00  0.00     0.032 A 
ATOM      4  C12 <0> d          -0.734   4.350  -0.460  0.00  0.00     0.045 A 
ATOM      5  C13 <0> d          -1.800   3.424  -0.362  0.00  0.00     0.008 A 
ATOM      6  C14 <0> d          -1.522   2.058  -0.225  0.00  0.00     0.040 A 
ATOM      7  C15 <0> d          -3.135   3.902  -0.411  0.00  0.00     0.049 A 
ATOM      8  C16 <0> d          -3.329   5.268  -0.554  0.00  0.00     0.077 A 
ATOM      9  C17 <0> d          -2.220   6.117  -0.644  0.00  0.00     0.180 A 
ATOM     10  N2  <0> d          -0.991   5.655  -0.597  0.00  0.00    -0.334 N 
ATOM     11  O4  <0> d          -2.419   7.451  -0.783  0.00  0.00    -0.172 OA
ATOM     12  H22 <0> d          -0.161   6.374  -0.673  0.00  0.00     0.168 HD
ENDROOT
BRANCH   1  13
ATOM     13  S1  <0> d           0.120  -0.084   0.001  0.00  0.00     0.263 S 
ATOM     14  O2  <0> d          -1.065  -0.778  -0.365  0.00  0.00    -0.200 OA
ATOM     15  O3  <0> d           1.367  -0.315  -0.639  0.00  0.00    -0.200 OA
BRANCH  13  16
ATOM     16  N1  <0> d           0.356  -0.371   1.615  0.00  0.00    -0.281 N 
ATOM     17  H10 <0> d           1.340  -0.705   1.976  0.00  0.00     0.179 HD
BRANCH  16  18
ATOM     18  C6  <0> d          -0.696  -0.187   2.520  0.00  0.00     0.042 A 
ATOM     19  C5  <0> d          -1.735  -1.107   2.572  0.00  0.00     0.033 A 
ATOM     20  C4  <0> d          -2.773  -0.925   3.465  0.00  0.00     0.039 A 
ATOM     21  C3  <0> d          -2.776   0.175   4.310  0.00  0.00     0.068 A 
ATOM     22  C8  <0> d          -1.739   1.094   4.258  0.00  0.00     0.039 A 
ATOM     23  C7  <0> d          -0.697   0.910   3.370  0.00  0.00     0.033 A 
BRANCH  21  24
ATOM     24  O1  <0> d          -3.799   0.353   5.190  0.00  0.00    -0.352 OA
BRANCH  24  25
ATOM     25  C2  <0> d          -3.738   1.507   6.030  0.00  0.00     0.171 C 
ATOM     26  C1  <0> d          -4.964   1.537   6.944  0.00  0.00     0.034 C 
ENDBRANCH  24  25
ENDBRANCH  21  24
ENDBRANCH  16  18
ENDBRANCH  13  16
ENDBRANCH   1  13
BRANCH   7  27
ATOM     27  C18 <0> d          -4.283   2.975  -0.314  0.00  0.00     0.258 C 
ATOM     28  O5  <0> d          -4.094   1.774  -0.296  0.00  0.00    -0.267 OA
ATOM     29  N3  <0> d          -5.538   3.460  -0.245  0.00  0.00    -0.307 N 
ATOM     30  H15 <0> d          -5.716   4.541  -0.345  0.00  0.00     0.170 HD
BRANCH  29  31
ATOM     31  C19 <0> d          -6.610   2.594  -0.047  0.00  0.00     0.130 A 
ATOM     32  N4  <0> d          -6.383   1.308   0.174  0.00  0.00    -0.243 NA
ATOM     33  C23 <0> d          -7.369   0.455   0.372  0.00  0.00     0.125 A 
ATOM     34  C22 <0> d          -8.684   0.874   0.344  0.00  0.00    -0.044 A 
ATOM     35  C21 <0> d          -8.966   2.213   0.109  0.00  0.00     0.012 A 
ATOM     36  C24 <0> d          -9.802  -0.112   0.565  0.00  0.00     0.049 C 
ATOM     37  C20 <0> d          -7.911   3.085  -0.089  0.00  0.00     0.051 A 
ENDBRANCH  29  31
ENDBRANCH   7  27
TORSDOF 7
