REMARK  6 active torsions:
REMARK  status: ('A' for Active; 'I' for Inactive)
REMARK    1  A    between atoms: C3_4  and  S1_7 
REMARK    2  A    between atoms: S1_7  and  N3_10 
REMARK    3  A    between atoms: N3_10  and  C5_11 
REMARK    4  A    between atoms: C5_11  and  C6_12 
REMARK    5  A    between atoms: C6_12  and  C7_13 
REMARK    6  A    between atoms: C6_12  and  N4_18 
ROOT
ATOM      1  N3  <0> d           2.953  -3.121  -0.086  0.00  0.00    -0.313 N 
ATOM      2  H7  <0> d           3.875  -3.063   0.210  0.00  0.00     0.172 HD
ENDROOT
BRANCH   1   3
ATOM      3  S1  <0> d           1.846  -2.004   0.431  0.00  0.00     0.261 S 
ATOM      4  O1  <0> d           1.159  -1.548  -0.727  0.00  0.00    -0.200 OA
ATOM      5  O2  <0> d           2.536  -1.121   1.304  0.00  0.00    -0.200 OA
BRANCH   3   6
ATOM      6  C3  <0> d           0.661  -2.861   1.414  0.00  0.00     0.115 A 
ATOM      7  C2  <0> d           0.731  -3.061   2.751  0.00  0.00     0.138 A 
ATOM      8  N1  <0> d          -0.365  -3.756   3.120  0.00  0.00    -0.284 N 
ATOM      9  C1  <0> d          -0.693  -4.188   4.481  0.00  0.00     0.179 C 
ATOM     10  N2  <0> d          -1.131  -3.996   1.972  0.00  0.00    -0.184 NA
ATOM     11  C4  <0> d          -0.518  -3.454   0.951  0.00  0.00     0.165 A 
ENDBRANCH   3   6
ENDBRANCH   1   3
BRANCH   1  12
ATOM     12  C5  <0> d           2.541  -4.197  -0.991  0.00  0.00     0.170 C 
BRANCH  12  13
ATOM     13  C6  <0> d           3.781  -4.859  -1.595  0.00  0.00     0.238 C 
BRANCH  13  14
ATOM     14  C7  <0> d           4.583  -5.517  -0.501  0.00  0.00    -0.019 A 
ATOM     15  C10 <0> d           4.219  -6.729  -0.016  0.00  0.00     0.058 A 
ATOM     16  S2  <0> d           5.475  -7.026   1.217  0.00  0.00    -0.113 SA
ATOM     17  C9  <0> d           6.395  -5.510   1.009  0.00  0.00     0.050 A 
ATOM     18  C8  <0> d           5.697  -4.891   0.026  0.00  0.00     0.017 A 
ENDBRANCH  13  14
BRANCH  13  19
ATOM     19  N4  <0> d           3.368  -5.871  -2.576  0.00  0.00    -0.069 N 
ATOM     20  C11 <0> d           2.606  -5.226  -3.654  0.00  0.00     0.270 C 
ATOM     21  C12 <0> d           4.558  -6.523  -3.139  0.00  0.00     0.270 C 
ATOM     22  H19 <0> d           2.789  -6.562  -2.122  0.00  0.00     0.279 HD
ENDBRANCH  13  19
ENDBRANCH  12  13
ENDBRANCH   1  12
TORSDOF 6
