REMARK  2 active torsions:
REMARK  status: ('A' for Active; 'I' for Inactive)
REMARK    1  A    between atoms: C4_4  and  N1_7 
REMARK    2  A    between atoms: C8_10  and  C11_17 
ROOT
ATOM      1  N1  <0> d           3.623  -0.652  -0.037  0.00  0.00    -0.230 N 
ATOM      2  C7  <0> d           3.640  -1.996   0.051  0.00  0.00     0.269 A 
ATOM      3  O1  <0> d           2.596  -2.619   0.146  0.00  0.00    -0.267 OA
ATOM      4  C8  <0> d           4.870  -2.677   0.034  0.00  0.00     0.101 A 
ATOM      5  C9  <0> d           6.024  -1.958  -0.073  0.00  0.00     0.197 A 
ATOM      6  N2  <0> d           5.961  -0.590  -0.161  0.00  0.00    -0.285 N 
ATOM      7  H1  <0> d           6.779  -0.074  -0.237  0.00  0.00     0.172 HD
ATOM      8  C10 <0> d           4.772   0.040  -0.147  0.00  0.00     0.336 A 
ATOM      9  O2  <0> d           4.736   1.252  -0.232  0.00  0.00    -0.246 OA
ATOM     10  O3  <0> d           7.218  -2.587  -0.091  0.00  0.00    -0.171 OA
ENDROOT
BRANCH   4  11
ATOM     11  C11 <0> d           4.913  -4.180   0.133  0.00  0.00     0.278 C 
ATOM     12  N4  <0> d           4.069  -4.768  -0.919  0.00  0.00    -0.061 N 
ATOM     13  C21 <0> d           3.958  -6.221  -0.725  0.00  0.00     0.238 C 
ATOM     14  H17 <0> d           3.149  -4.356  -0.879  0.00  0.00     0.278 HD
ATOM     15  H18 <0> d           4.479  -4.580  -1.821  0.00  0.00     0.278 HD
ATOM     16  C20 <0> d           3.062  -6.513   0.487  0.00  0.00     0.069 C 
ATOM     17  C13 <0> d           3.548  -5.666   1.636  0.00  0.00    -0.019 A 
ATOM     18  C12 <0> d           4.385  -4.615   1.479  0.00  0.00     0.052 A 
ATOM     19  C14 <0> d           3.258  -5.776   3.048  0.00  0.00    -0.001 A 
ATOM     20  N3  <0> d           4.651  -4.050   2.697  0.00  0.00    -0.356 N 
ATOM     21  C19 <0> d           3.982  -4.728   3.676  0.00  0.00     0.043 A 
ATOM     22  H3  <0> d           5.227  -3.284   2.843  0.00  0.00     0.166 HD
ATOM     23  C18 <0> d           3.919  -4.552   5.056  0.00  0.00     0.030 A 
ATOM     24  C17 <0> d           3.127  -5.437   5.767  0.00  0.00     0.002 A 
ATOM     25  C16 <0> d           2.423  -6.458   5.149  0.00  0.00     0.001 A 
ATOM     26  C15 <0> d           2.466  -6.656   3.791  0.00  0.00     0.014 A 
ENDBRANCH   4  11
BRANCH   1  27
ATOM     27  C4  <0> d           2.399   0.031  -0.021  0.00  0.00     0.047 A 
ATOM     28  C3  <0> d           1.730   0.287  -1.210  0.00  0.00     0.030 A 
ATOM     29  C2  <0> d           0.524   0.960  -1.191  0.00  0.00     0.002 A 
ATOM     30  C1  <0> d          -0.017   1.377   0.011  0.00  0.00     0.000 A 
ATOM     31  C6  <0> d           0.647   1.124   1.197  0.00  0.00     0.002 A 
ATOM     32  C5  <0> d           1.854   0.452   1.184  0.00  0.00     0.030 A 
ENDBRANCH   1  27
TORSDOF 2
