REMARK  7 active torsions:
REMARK  status: ('A' for Active; 'I' for Inactive)
REMARK       I    between atoms: N1_2  and  C2_3 
REMARK    1  A    between atoms: C2_3  and  C3_5 
REMARK    2  A    between atoms: C3_5  and  S1_6 
REMARK    3  A    between atoms: S1_6  and  C4_7 
REMARK    4  A    between atoms: N2_10  and  C8_14 
REMARK    5  A    between atoms: C8_14  and  C9_15 
REMARK    6  A    between atoms: C9_15  and  C10_16 
REMARK    7  A    between atoms: C10_16  and  O3_17 
ROOT
ATOM      1  C4  <0> d           1.441  -4.537   2.311  0.00  0.00     0.107 A 
ATOM      2  C5  <0> d           2.030  -5.357   3.298  0.00  0.00     0.001 A 
ATOM      3  C6  <0> d           1.969  -6.700   3.155  0.00  0.00     0.025 A 
ATOM      4  N2  <0> d           1.340  -7.226   2.063  0.00  0.00    -0.301 N 
ATOM      5  C7  <0> d           0.788  -6.418   1.140  0.00  0.00     0.349 A 
ATOM      6  O2  <0> d           0.231  -6.907   0.171  0.00  0.00    -0.244 OA
ATOM      7  N3  <0> d           0.835  -5.094   1.269  0.00  0.00    -0.186 NA
ATOM      8  C11 <0> d           2.658  -7.381   4.317  0.00  0.00     0.058 C 
ATOM      9  C12 <0> d           3.524  -6.282   4.970  0.00  0.00     0.011 C 
ATOM     10  C13 <0> d           2.766  -4.997   4.569  0.00  0.00     0.044 C 
ENDROOT
BRANCH   1  11
ATOM     11  S1  <0> d           1.502  -2.783   2.465  0.00  0.00    -0.100 SA
BRANCH  11  12
ATOM     12  C3  <0> d           0.625  -2.182   0.995  0.00  0.00     0.183 C 
BRANCH  12  13
ATOM     13  C2  <0> d           0.604  -0.675   1.004  0.00  0.00     0.226 C 
ATOM     14  N1  <0> d           0.002  -0.004   0.002  0.00  0.00    -0.365 N 
ATOM     15  C1  <0> d          -0.018   1.461   0.010  0.00  0.00     0.149 C 
ATOM     16  H4  <0> d          -0.418  -0.491  -0.724  0.00  0.00     0.161 HD
ATOM     17  O1  <0> d           1.130  -0.067   1.911  0.00  0.00    -0.273 OA
ENDBRANCH  12  13
ENDBRANCH  11  12
ENDBRANCH   1  11
BRANCH   4  18
ATOM     18  C8  <0> d           1.265  -8.679   1.896  0.00  0.00     0.135 C 
BRANCH  18  19
ATOM     19  C9  <0> d          -0.006  -9.205   2.565  0.00  0.00     0.046 C 
BRANCH  19  20
ATOM     20  C10 <0> d          -0.084 -10.723   2.390  0.00  0.00     0.165 C 
BRANCH  20  21
ATOM     21  O3  <0> d          -1.272 -11.214   3.015  0.00  0.00    -0.401 OA
ATOM     22  H13 <0> d          -1.387 -12.172   2.943  0.00  0.00     0.209 HD
ENDBRANCH  20  21
ENDBRANCH  19  20
ENDBRANCH  18  19
ENDBRANCH   4  18
TORSDOF 7
