REMARK  5 active torsions:
REMARK  status: ('A' for Active; 'I' for Inactive)
REMARK    1  A    between atoms: C14_16  and  C15_17 
REMARK    2  A    between atoms: C15_17  and  N3_26 
REMARK    3  A    between atoms: C16_18  and  C17_19 
REMARK    4  A    between atoms: C16_18  and  N3_26 
REMARK    5  A    between atoms: C17_19  and  C18_20 
ROOT
ATOM      1  C1  <0> d          -2.674   1.205  -2.467  0.00  0.00     0.016 C 
ATOM      2  C2  <0> d          -3.338   1.510  -1.122  0.00  0.00    -0.034 C 
ATOM      3  C3  <0> d          -3.494   3.021  -0.957  0.00  0.00     0.010 C 
ATOM      4  C4  <0> d          -2.129   3.698  -1.099  0.00  0.00     0.005 C 
ATOM      5  C5  <0> d          -1.202   3.228   0.032  0.00  0.00     0.034 C 
ATOM      6  C6  <0> d          -1.156   1.715   0.017  0.00  0.00    -0.084 C 
ATOM      7  C7  <0> d          -0.013   1.076   0.008  0.00  0.00     0.014 C 
ATOM      8  C8  <0> d          -2.467   0.964   0.019  0.00  0.00     0.022 C 
ATOM      9  C9  <0> d          -2.221  -0.519  -0.240  0.00  0.00     0.018 C 
ATOM     10  C10 <0> d          -3.521  -1.292  -0.231  0.00  0.00     0.031 C 
ATOM     11  C11 <0> d          -4.569  -0.673  -1.176  0.00  0.00     0.137 C 
ATOM     12  C12 <0> d          -4.701   0.825  -1.039  0.00  0.00     0.042 C 
ATOM     13  O1  <0> d          -4.102  -1.091  -2.491  0.00  0.00    -0.315 OA
ATOM     14  C13 <0> d          -3.717  -2.377  -2.393  0.00  0.00     0.265 C 
ATOM     15  O2  <0> d          -3.713  -3.186  -3.290  0.00  0.00    -0.265 OA
ATOM     16  C14 <0> d          -3.265  -2.641  -0.969  0.00  0.00     0.117 C 
ENDROOT
BRANCH  16  17
ATOM     17  C15 <0> d          -1.777  -2.995  -0.937  0.00  0.00     0.247 C 
BRANCH  17  18
ATOM     18  N3  <0> d          -1.584  -4.329  -1.535  0.00  0.00    -0.074 N 
ATOM     19  H29 <0> d          -1.919  -4.317  -2.506  0.00  0.00     0.277 HD
ATOM     20  H30 <0> d          -2.119  -5.022  -0.998  0.00  0.00     0.277 HD
BRANCH  18  21
ATOM     21  C16 <0> d          -0.156  -4.697  -1.517  0.00  0.00     0.238 C 
BRANCH  21  22
ATOM     22  C17 <0> d           0.013  -6.083  -2.143  0.00  0.00     0.088 C 
BRANCH  22  23
ATOM     23  C18 <0> d           1.470  -6.467  -2.128  0.00  0.00     0.052 A 
ATOM     24  N2  <0> d           2.479  -5.752  -2.647  0.00  0.00    -0.247 NA
ATOM     25  C20 <0> d           3.602  -6.387  -2.453  0.00  0.00     0.207 A 
ATOM     26  N1  <0> d           3.340  -7.538  -1.797  0.00  0.00    -0.359 N 
ATOM     27  C19 <0> d           1.988  -7.585  -1.586  0.00  0.00     0.116 A 
ATOM     28  H5  <0> d           4.009  -8.227  -1.518  0.00  0.00     0.166 HD
ENDBRANCH  22  23
ENDBRANCH  21  22
ENDBRANCH  18  21
ENDBRANCH  17  18
ENDBRANCH  16  17
TORSDOF 5
