REMARK  3 active torsions:
REMARK  status: ('A' for Active; 'I' for Inactive)
REMARK    1  A    between atoms: C7_7  and  N2_12 
REMARK    2  A    between atoms: N2_12  and  C8_13 
REMARK    3  A    between atoms: C8_13  and  C9_14 
ROOT
ATOM      1  C1  <0> d          -0.017   1.372   0.010  0.00  0.00     0.001 A 
ATOM      2  C2  <0> d           1.160   2.101   0.002  0.00  0.00     0.002 A 
ATOM      3  C3  <0> d           2.376   1.433  -0.013  0.00  0.00     0.026 A 
ATOM      4  C4  <0> d           2.397   0.069  -0.021  0.00  0.00     0.095 A 
ATOM      5  C5  <0> d           1.223  -0.696  -0.013  0.00  0.00     0.034 A 
ATOM      6  C6  <0> d           0.002  -0.004   0.002  0.00  0.00     0.017 A 
ATOM      7  C7  <0> d           1.502  -2.140  -0.024  0.00  0.00     0.148 A 
ATOM      8  N1  <0> d           2.731  -2.547  -0.038  0.00  0.00    -0.141 NA
ATOM      9  S1  <0> d           3.671  -1.162  -0.039  0.00  0.00     0.286 S 
ATOM     10  O1  <0> d           4.328  -1.087  -1.297  0.00  0.00    -0.198 OA
ATOM     11  O2  <0> d           4.352  -1.100   1.206  0.00  0.00    -0.198 OA
ENDROOT
BRANCH   7  12
ATOM     12  N2  <0> d           0.467  -3.050  -0.018  0.00  0.00    -0.373 N 
ATOM     13  H5  <0> d          -0.452  -2.739  -0.008  0.00  0.00     0.161 HD
BRANCH  12  14
ATOM     14  C8  <0> d           0.754  -4.486  -0.029  0.00  0.00     0.126 C 
BRANCH  14  15
ATOM     15  C9  <0> d          -0.560  -5.269  -0.020  0.00  0.00     0.003 C 
ATOM     16  C14 <0> d          -0.264  -6.764  -0.157  0.00  0.00     0.006 C 
ATOM     17  C13 <0> d          -1.579  -7.547  -0.148  0.00  0.00     0.000 C 
ATOM     18  C12 <0> d          -2.316  -7.291   1.168  0.00  0.00     0.000 C 
ATOM     19  C11 <0> d          -2.612  -5.796   1.305  0.00  0.00     0.000 C 
ATOM     20  C10 <0> d          -1.297  -5.013   1.296  0.00  0.00     0.006 C 
ENDBRANCH  14  15
ENDBRANCH  12  14
ENDBRANCH   7  12
TORSDOF 3
