REMARK  2 active torsions:
REMARK  status: ('A' for Active; 'I' for Inactive)
REMARK    1  A    between atoms: C7_7  and  N1_8 
REMARK       I    between atoms: N1_8  and  C8_9 
REMARK    2  A    between atoms: C8_9  and  C9_11 
ROOT
ATOM      1  C9  <0> d           1.204   1.778  -0.015  0.00  0.00     0.085 A 
ATOM      2  C10 <0> d          -0.013   1.075  -0.015  0.00  0.00     0.108 A 
ATOM      3  N2  <0> d          -1.163   1.698  -0.017  0.00  0.00    -0.364 N 
ATOM      4  C11 <0> d          -1.246   3.035  -0.008  0.00  0.00     0.045 A 
ATOM      5  C12 <0> d          -2.496   3.677  -0.004  0.00  0.00     0.033 A 
ATOM      6  C13 <0> d          -2.559   5.037  -0.001  0.00  0.00     0.044 A 
ATOM      7  C14 <0> d          -1.399   5.811  -0.001  0.00  0.00     0.117 A 
ATOM      8  C15 <0> d          -0.168   5.221  -0.004  0.00  0.00     0.059 A 
ATOM      9  C16 <0> d          -0.070   3.822  -0.007  0.00  0.00     0.031 A 
ATOM     10  C17 <0> d           1.188   3.177  -0.011  0.00  0.00     0.137 A 
ATOM     11  O2  <0> d           2.338   3.889  -0.010  0.00  0.00    -0.190 OA
ATOM     12  F1  <0> d          -1.494   7.158   0.003  0.00  0.00    -0.206 F 
ATOM     13  H13 <0> d          -2.100   1.121  -0.025  0.00  0.00     0.165 HD
ENDROOT
BRANCH   1  14
ATOM     14  C8  <0> d           2.484   1.048  -0.018  0.00  0.00     0.260 C 
ATOM     15  N1  <0> d           2.491  -0.300  -0.021  0.00  0.00    -0.322 N 
ATOM     16  H8  <0> d           1.546  -0.855   0.070  0.00  0.00     0.169 HD
ATOM     17  O1  <0> d           3.534   1.662  -0.018  0.00  0.00    -0.267 OA
BRANCH  15  18
ATOM     18  C7  <0> d           3.701  -0.992  -0.141  0.00  0.00     0.041 A 
ATOM     19  C2  <0> d           3.812  -2.287   0.347  0.00  0.00    -0.035 A 
ATOM     20  C1  <0> d           2.631  -2.949   1.008  0.00  0.00     0.050 C 
ATOM     21  C3  <0> d           5.008  -2.968   0.228  0.00  0.00     0.009 A 
ATOM     22  C4  <0> d           6.093  -2.362  -0.379  0.00  0.00     0.001 A 
ATOM     23  C5  <0> d           5.985  -1.072  -0.867  0.00  0.00     0.002 A 
ATOM     24  C6  <0> d           4.791  -0.388  -0.754  0.00  0.00     0.030 A 
ENDBRANCH  15  18
ENDBRANCH   1  14
TORSDOF 2
