REMARK  4 active torsions:
REMARK  status: ('A' for Active; 'I' for Inactive)
REMARK    1  A    between atoms: C2_2  and  C3_3 
REMARK    2  A    between atoms: C2_2  and  N1_13 
REMARK    3  A    between atoms: C8_8  and  C9_9 
REMARK       I    between atoms: N1_13  and  C10_14 
REMARK    4  A    between atoms: C10_14  and  C11_16 
ROOT
ATOM      1  C1  <0> d          -0.019   1.526   0.010  0.00  0.00     0.037 C 
ATOM      2  C2  <0> d           0.002  -0.004   0.002  0.00  0.00     0.114 C 
ENDROOT
BRANCH   2   3
ATOM      3  C3  <0> d          -1.412  -0.526   0.013  0.00  0.00    -0.021 A 
ATOM      4  C8  <0> d          -2.108  -0.661  -1.174  0.00  0.00     0.056 A 
ATOM      5  C7  <0> d          -3.403  -1.143  -1.164  0.00  0.00     0.017 A 
ATOM      6  C6  <0> d          -4.006  -1.482   0.032  0.00  0.00     0.001 A 
ATOM      7  C5  <0> d          -3.311  -1.342   1.220  0.00  0.00     0.001 A 
ATOM      8  C4  <0> d          -2.015  -0.864   1.210  0.00  0.00     0.010 A 
BRANCH   4   9
ATOM      9  C9  <0> d          -1.452  -0.286  -2.478  0.00  0.00     0.418 C 
ATOM     10  F1  <0> d          -2.348  -0.508  -3.530  0.00  0.00    -0.166 F 
ATOM     11  F2  <0> d          -1.094   1.066  -2.449  0.00  0.00    -0.166 F 
ATOM     12  F3  <0> d          -0.308  -1.068  -2.667  0.00  0.00    -0.166 F 
ENDBRANCH   4   9
ENDBRANCH   2   3
BRANCH   2  13
ATOM     13  N1  <0> d           0.711  -0.489   1.189  0.00  0.00    -0.347 N 
ATOM     14  C10 <0> d           2.054  -0.600   1.174  0.00  0.00     0.273 C 
ATOM     15  O1  <0> d           2.678  -0.297   0.175  0.00  0.00    -0.266 OA
ATOM     16  H9  <0> d           0.213  -0.731   1.986  0.00  0.00     0.163 HD
BRANCH  14  17
ATOM     17  C11 <0> d           2.767  -1.088   2.368  0.00  0.00     0.155 A 
ATOM     18  N3  <0> d           2.145  -1.434   3.488  0.00  0.00    -0.137 NA
ATOM     19  N2  <0> d           2.842  -1.854   4.483  0.00  0.00    -0.110 NA
ATOM     20  S1  <0> d           4.378  -1.799   3.979  0.00  0.00     0.025 SA
ATOM     21  C12 <0> d           4.144  -1.220   2.421  0.00  0.00     0.111 A 
ENDBRANCH  14  17
ENDBRANCH   2  13
TORSDOF 4
