REMARK  5 active torsions:
REMARK  status: ('A' for Active; 'I' for Inactive)
REMARK    1  A    between atoms: C6_8  and  N5_25 
REMARK    2  A    between atoms: C7_9  and  C9_12 
REMARK    3  A    between atoms: C10_13  and  C12_16 
REMARK       I    between atoms: C12_16  and  N4_18 
REMARK    4  A    between atoms: N4_18  and  C13_19 
REMARK    5  A    between atoms: C13_19  and  C14_20 
ROOT
ATOM      1  C9  <0> d          -2.411   1.278  -0.071  0.00  0.00     0.049 C 
ATOM      2  C10 <0> d          -3.482   1.650   0.732  0.00  0.00     0.113 C 
ATOM      3  C11 <0> d          -3.390   2.821   1.550  0.00  0.00     0.105 C 
ATOM      4  N3  <0> d          -3.318   3.750   2.200  0.00  0.00    -0.191 NA
ENDROOT
BRANCH   2   5
ATOM      5  C12 <0> d          -4.706   0.843   0.741  0.00  0.00     0.262 C 
ATOM      6  O2  <0> d          -4.784  -0.153   0.045  0.00  0.00    -0.267 OA
ATOM      7  N4  <0> d          -5.745   1.204   1.519  0.00  0.00    -0.354 N 
ATOM      8  H7  <0> d          -5.684   1.997   2.074  0.00  0.00     0.162 HD
BRANCH   7   9
ATOM      9  C13 <0> d          -6.969   0.398   1.528  0.00  0.00     0.155 C 
BRANCH   9  10
ATOM     10  C14 <0> d          -7.984   1.021   2.489  0.00  0.00     0.139 C 
ATOM     11  O3  <0> d          -7.456   1.020   3.825  0.00  0.00    -0.384 OA
ATOM     12  C17 <0> d          -8.572   0.819   4.719  0.00  0.00     0.168 C 
ATOM     13  C16 <0> d          -9.435  -0.239   3.987  0.00  0.00     0.029 C 
ATOM     14  C15 <0> d          -9.275   0.180   2.505  0.00  0.00     0.035 C 
ENDBRANCH   9  10
ENDBRANCH   7   9
ENDBRANCH   2   5
BRANCH   1  15
ATOM     15  C7  <0> d          -1.273   2.099  -0.148  0.00  0.00     0.074 A 
ATOM     16  C6  <0> d          -1.381   3.460  -0.532  0.00  0.00     0.123 A 
ATOM     17  N2  <0> d          -0.290   4.207  -0.601  0.00  0.00    -0.217 NA
ATOM     18  C4  <0> d           0.916   3.714  -0.313  0.00  0.00     0.138 A 
ATOM     19  N1  <0> d           1.082   2.412   0.066  0.00  0.00    -0.273 N 
ATOM     20  C5  <0> d           2.037   4.557  -0.405  0.00  0.00     0.051 A 
ATOM     21  C3  <0> d           2.323   1.928   0.354  0.00  0.00     0.102 A 
ATOM     22  C8  <0> d           0.015   1.588   0.160  0.00  0.00     0.266 A 
ATOM     23  C2  <0> d           3.413   2.725   0.272  0.00  0.00     0.018 A 
ATOM     24  C1  <0> d           3.276   4.065  -0.115  0.00  0.00     0.005 A 
ATOM     25  O1  <0> d           0.157   0.426   0.497  0.00  0.00    -0.267 OA
BRANCH  16  26
ATOM     26  N5  <0> d          -2.610   3.999  -0.835  0.00  0.00    -0.263 NA
ATOM     27  C21 <0> d          -2.516   5.454  -1.023  0.00  0.00     0.123 C 
ATOM     28  C20 <0> d          -3.911   6.020  -1.299  0.00  0.00     0.182 C 
ATOM     29  O4  <0> d          -4.470   5.362  -2.439  0.00  0.00    -0.389 OA
ATOM     30  C19 <0> d          -4.577   3.943  -2.291  0.00  0.00     0.182 C 
ATOM     31  C18 <0> d          -3.188   3.357  -2.025  0.00  0.00     0.123 C 
ENDBRANCH  16  26
ENDBRANCH   1  15
TORSDOF 5
