REMARK  0 active torsions:
REMARK  status: ('A' for Active; 'I' for Inactive)
ROOT
ATOM      1  C1  <0> d           4.668   4.336   0.191  0.00  0.00     0.310 C 
ATOM      2  N1  <0> d           3.862   3.117   0.341  0.00  0.00     0.089 N 
ATOM      3  C2  <0> d           4.405   2.023  -0.478  0.00  0.00     0.277 C 
ATOM      4  C3  <0> d           3.803   0.687  -0.035  0.00  0.00     0.071 C 
ATOM      5  C4  <0> d           2.283   0.832  -0.016  0.00  0.00    -0.023 A 
ATOM      6  C5  <0> d           1.725   2.061  -0.003  0.00  0.00     0.020 A 
ATOM      7  S1  <0> d          -0.022   1.771   0.012  0.00  0.00    -0.073 SA
ATOM      8  C6  <0> d           0.002  -0.004   0.002  0.00  0.00     0.092 A 
ATOM      9  C7  <0> d           1.374  -0.313  -0.013  0.00  0.00     0.073 A 
ATOM     10  C8  <0> d           1.698  -1.706  -0.023  0.00  0.00     0.261 A 
ATOM     11  O1  <0> d           2.862  -2.070  -0.035  0.00  0.00    -0.267 OA
ATOM     12  N2  <0> d           0.702  -2.611  -0.019  0.00  0.00    -0.302 N 
ATOM     13  H1  <0> d           0.934  -3.686  -0.027  0.00  0.00     0.171 HD
ATOM     14  C9  <0> d          -0.607  -2.222  -0.005  0.00  0.00     0.159 A 
ATOM     15  N3  <0> d          -0.934  -0.946   0.006  0.00  0.00    -0.330 N 
ATOM     16  S2  <0> d          -1.876  -3.445   0.000  0.00  0.00    -0.013 SA
ATOM     17  C10 <0> d           2.450   3.371  -0.001  0.00  0.00     0.318 C 
ATOM     18  H11 <0> d          -1.997  -0.664   0.017  0.00  0.00     0.168 HD
ENDROOT
TORSDOF 0
