REMARK  5 active torsions:
REMARK  status: ('A' for Active; 'I' for Inactive)
REMARK       I    between atoms: N1_2  and  C2_3 
REMARK    1  A    between atoms: C2_3  and  C3_5 
REMARK    2  A    between atoms: C3_5  and  N2_6 
REMARK    3  A    between atoms: C5_8  and  N4_11 
REMARK    4  A    between atoms: N4_11  and  C7_12 
REMARK    5  A    between atoms: C7_12  and  C8_13 
ROOT
ATOM      1  N2  <0> d           1.291  -2.644  -2.232  0.00  0.00    -0.270 N 
ATOM      2  C4  <0> d           2.351  -3.495  -2.268  0.00  0.00     0.143 A 
ATOM      3  C5  <0> d           2.685  -3.677  -3.571  0.00  0.00     0.065 A 
ATOM      4  C6  <0> d           1.803  -2.916  -4.351  0.00  0.00     0.169 A 
ATOM      5  N3  <0> d           0.968  -2.304  -3.551  0.00  0.00    -0.182 NA
ENDROOT
BRANCH   3   6
ATOM      6  N4  <0> d           3.731  -4.487  -4.053  0.00  0.00    -0.381 N 
ATOM      7  H9  <0> d           4.290  -4.979  -3.431  0.00  0.00     0.160 HD
BRANCH   6   8
ATOM      8  C7  <0> d           3.974  -4.588  -5.494  0.00  0.00     0.185 C 
BRANCH   8   9
ATOM      9  C8  <0> d           5.140  -5.510  -5.743  0.00  0.00     0.072 A 
ATOM     10  O2  <0> d           6.430  -5.143  -5.817  0.00  0.00    -0.306 OA
ATOM     11  C11 <0> d           7.191  -6.226  -6.046  0.00  0.00     0.121 A 
ATOM     12  C10 <0> d           6.386  -7.301  -6.130  0.00  0.00     0.048 A 
ATOM     13 Br1  <0> d           9.074  -6.236  -6.227  0.00  0.00    -0.023 Br
ATOM     14  C9  <0> d           5.064  -6.839  -5.934  0.00  0.00     0.038 A 
ENDBRANCH   8   9
ENDBRANCH   6   8
ENDBRANCH   3   6
BRANCH   1  15
ATOM     15  C3  <0> d           0.606  -2.171  -1.026  0.00  0.00     0.253 C 
BRANCH  15  16
ATOM     16  C2  <0> d           0.585  -0.664  -1.018  0.00  0.00     0.237 C 
ATOM     17  N1  <0> d           0.002  -0.004   0.002  0.00  0.00    -0.364 N 
ATOM     18  C1  <0> d          -0.018   1.461   0.010  0.00  0.00     0.149 C 
ATOM     19  H4  <0> d          -0.404  -0.499   0.731  0.00  0.00     0.161 HD
ATOM     20  O1  <0> d           1.093  -0.046  -1.929  0.00  0.00    -0.272 OA
ENDBRANCH  15  16
ENDBRANCH   1  15
TORSDOF 5
