REMARK  6 active torsions:
REMARK  status: ('A' for Active; 'I' for Inactive)
REMARK    1  A    between atoms: C5_5  and  S2_7 
REMARK    2  A    between atoms: S2_7  and  N1_10 
REMARK    3  A    between atoms: N1_10  and  C6_11 
REMARK    4  A    between atoms: C9_14  and  C13_18 
REMARK    5  A    between atoms: C14_19  and  C15_20 
REMARK    6  A    between atoms: C15_20  and  N2_21 
ROOT
ATOM      1  C6  <0> d           2.324  -3.939  -2.364  0.00  0.00     0.043 A 
ATOM      2  C7  <0> d           2.538  -2.584  -2.136  0.00  0.00     0.031 A 
ATOM      3  C8  <0> d           3.504  -1.909  -2.850  0.00  0.00     0.023 A 
ATOM      4  C9  <0> d           4.268  -2.586  -3.802  0.00  0.00     0.023 A 
ATOM      5  C10 <0> d           4.051  -3.947  -4.028  0.00  0.00    -0.041 A 
ATOM      6  C11 <0> d           3.087  -4.618  -3.307  0.00  0.00     0.038 A 
ATOM      7  C12 <0> d           4.874  -4.682  -5.054  0.00  0.00     0.050 C 
ENDROOT
BRANCH   1   8
ATOM      8  N1  <0> d           1.345  -4.620  -1.640  0.00  0.00    -0.280 N 
ATOM      9  H6  <0> d           0.506  -4.859  -2.064  0.00  0.00     0.179 HD
BRANCH   8  10
ATOM     10  S2  <0> d           1.615  -5.020  -0.056  0.00  0.00     0.269 S 
ATOM     11  O1  <0> d           0.470  -5.739   0.383  0.00  0.00    -0.200 OA
ATOM     12  O2  <0> d           2.066  -3.838   0.591  0.00  0.00    -0.200 OA
BRANCH  10  13
ATOM     13  C5  <0> d           2.963  -6.155  -0.027  0.00  0.00     0.120 A 
ATOM     14  C4  <0> d           4.294  -5.899  -0.004  0.00  0.00     0.034 A 
ATOM     15  C3  <0> d           5.180  -6.959   0.016  0.00  0.00     0.016 A 
ATOM     16  C2  <0> d           4.692  -8.224   0.011  0.00  0.00    -0.020 A 
ATOM     17  C1  <0> d           5.443  -9.530   0.029  0.00  0.00     0.056 C 
ATOM     18  S1  <0> d           2.930  -7.940  -0.029  0.00  0.00    -0.082 SA
ENDBRANCH  10  13
ENDBRANCH   8  10
ENDBRANCH   1   8
BRANCH   4  19
ATOM     19  C13 <0> d           5.273  -1.887  -4.546  0.00  0.00    -0.065 C 
ATOM     20  C14 <0> d           6.096  -1.314  -5.156  0.00  0.00    -0.074 C 
BRANCH  20  21
ATOM     21  C15 <0> d           7.128  -0.595  -5.921  0.00  0.00     0.323 C 
BRANCH  21  22
ATOM     22  N2  <0> d           7.785  -1.524  -6.850  0.00  0.00    -0.069 N 
ATOM     23  H15 <0> d           8.214  -2.274  -6.328  0.00  0.00     0.275 HD
ATOM     24  H16 <0> d           7.100  -1.905  -7.485  0.00  0.00     0.275 HD
ATOM     25  H17 <0> d           8.493  -1.032  -7.374  0.00  0.00     0.275 HD
ENDBRANCH  21  22
ENDBRANCH  20  21
ENDBRANCH   4  19
TORSDOF 6
