REMARK  7 active torsions:
REMARK  status: ('A' for Active; 'I' for Inactive)
REMARK    1  A    between atoms: N1_2  and  C2_3 
REMARK    2  A    between atoms: N1_2  and  C11_16 
REMARK    3  A    between atoms: C2_3  and  C3_4 
REMARK    4  A    between atoms: C11_16  and  C12_17 
REMARK       I    between atoms: C12_17  and  N4_19 
REMARK    5  A    between atoms: N4_19  and  N5_20 
REMARK    6  A    between atoms: C14_23  and  C16_27 
REMARK    7  A    between atoms: C14_23  and  C22_33 
ROOT
ATOM      1  N5  <0> d          -0.873  -1.186  -4.880  0.00  0.00    -0.167 N 
ATOM      2  C13 <0> d          -1.858  -1.552  -5.723  0.00  0.00     0.285 A 
ATOM      3  O3  <0> d          -2.332  -2.660  -5.859  0.00  0.00    -0.267 OA
ATOM      4  C14 <0> d          -2.252  -0.291  -6.466  0.00  0.00     0.173 A 
ATOM      5  N6  <0> d          -1.359   0.736  -5.902  0.00  0.00    -0.315 N 
ATOM      6  C15 <0> d          -0.596   0.119  -4.982  0.00  0.00     0.346 A 
ATOM      7  O4  <0> d           0.253   0.683  -4.320  0.00  0.00    -0.245 OA
ATOM      8  H14 <0> d          -1.329   1.675  -6.145  0.00  0.00     0.166 HD
ENDROOT
BRANCH   1   9
ATOM      9  N4  <0> d          -0.224  -2.062  -4.000  0.00  0.00    -0.255 N 
ATOM     10  C12 <0> d          -0.510  -2.029  -2.683  0.00  0.00     0.265 C 
ATOM     11  O2  <0> d          -1.329  -1.242  -2.260  0.00  0.00    -0.270 OA
ATOM     12  H13 <0> d           0.431  -2.692  -4.338  0.00  0.00     0.191 HD
BRANCH  10  13
ATOM     13  C11 <0> d           0.189  -2.971  -1.737  0.00  0.00     0.376 C 
BRANCH  13  14
ATOM     14  N1  <0> d          -0.294  -2.739  -0.369  0.00  0.00     0.100 N 
ATOM     15  C1  <0> d           0.101  -1.407   0.109  0.00  0.00     0.310 C 
BRANCH  14  16
ATOM     16  C2  <0> d           0.182  -3.788   0.542  0.00  0.00     0.350 C 
BRANCH  16  17
ATOM     17  C3  <0> d          -0.524  -3.659   1.868  0.00  0.00     0.136 A 
ATOM     18  N3  <0> d          -1.394  -2.707   2.013  0.00  0.00    -0.233 NA
ATOM     19  C10 <0> d          -2.071  -2.533   3.175  0.00  0.00     0.074 A 
ATOM     20  C5  <0> d          -1.813  -3.405   4.256  0.00  0.00     0.061 A 
ATOM     21  C9  <0> d          -3.011  -1.512   3.329  0.00  0.00     0.032 A 
ATOM     22  C4  <0> d          -0.818  -4.470   4.060  0.00  0.00     0.259 A 
ATOM     23  C6  <0> d          -2.492  -3.244   5.461  0.00  0.00     0.019 A 
ATOM     24  N2  <0> d          -0.212  -4.543   2.852  0.00  0.00    -0.309 N 
ATOM     25  O1  <0> d          -0.548  -5.255   4.951  0.00  0.00    -0.267 OA
ATOM     26  H1  <0> d           0.450  -5.233   2.687  0.00  0.00     0.170 HD
ATOM     27  C7  <0> d          -3.416  -2.229   5.589  0.00  0.00     0.001 A 
ATOM     28  C8  <0> d          -3.672  -1.369   4.529  0.00  0.00     0.002 A 
ENDBRANCH  16  17
ENDBRANCH  14  16
ENDBRANCH  13  14
ENDBRANCH  10  13
ENDBRANCH   1   9
BRANCH   4  29
ATOM     29  C16 <0> d          -3.694   0.055  -6.197  0.00  0.00    -0.016 A 
ATOM     30  C21 <0> d          -4.674  -0.910  -6.340  0.00  0.00     0.010 A 
ATOM     31  C20 <0> d          -5.996  -0.594  -6.089  0.00  0.00     0.001 A 
ATOM     32  C19 <0> d          -6.339   0.689  -5.705  0.00  0.00     0.000 A 
ATOM     33  C18 <0> d          -5.360   1.655  -5.568  0.00  0.00     0.001 A 
ATOM     34  C17 <0> d          -4.037   1.338  -5.814  0.00  0.00     0.010 A 
ENDBRANCH   4  29
BRANCH   4  35
ATOM     35  C22 <0> d          -2.010  -0.450  -7.945  0.00  0.00    -0.016 A 
ATOM     36  C27 <0> d          -2.492  -1.562  -8.609  0.00  0.00     0.010 A 
ATOM     37  C26 <0> d          -2.274  -1.706  -9.966  0.00  0.00     0.001 A 
ATOM     38  C25 <0> d          -1.566  -0.741 -10.658  0.00  0.00     0.000 A 
ATOM     39  C24 <0> d          -1.079   0.368  -9.993  0.00  0.00     0.001 A 
ATOM     40  C23 <0> d          -1.300   0.514  -8.637  0.00  0.00     0.010 A 
ENDBRANCH   4  35
TORSDOF 7
