REMARK  11 active torsions:
REMARK  status: ('A' for Active; 'I' for Inactive)
REMARK    1  A    between atoms: C4_4  and  C23_29 
REMARK    2  A    between atoms: C6_8  and  O5_28 
REMARK    3  A    between atoms: C7_9  and  C11_14 
REMARK    4  A    between atoms: C8_10  and  O2_13 
REMARK    5  A    between atoms: C12_15  and  C13_16 
REMARK    6  A    between atoms: C13_16  and  C14_17 
REMARK    7  A    between atoms: C14_17  and  C16_19 
REMARK    8  A    between atoms: C16_19  and  C17_20 
REMARK    9  A    between atoms: C17_20  and  C18_21 
REMARK   10  A    between atoms: C18_21  and  C19_22 
REMARK   11  A    between atoms: C23_29  and  C24_30 
ROOT
ATOM      1  C1  <0> d          -0.019   1.526   0.010  0.00  0.00     0.015 C 
ATOM      2  C2  <0> d           0.002  -0.004   0.002  0.00  0.00     0.021 C 
ATOM      3  C3  <0> d           0.639  -0.513  -1.281  0.00  0.00     0.061 C 
ATOM      4  C4  <0> d           0.086   0.057  -2.589  0.00  0.00     0.096 C 
ATOM      5  N1  <0> d           1.262   0.066  -3.489  0.00  0.00    -0.353 N 
ATOM      6  C5  <0> d           2.419   0.013  -2.773  0.00  0.00     0.254 C 
ATOM      7  O1  <0> d           3.537  -0.087  -3.232  0.00  0.00    -0.270 OA
ATOM      8  C6  <0> d           2.077   0.081  -1.313  0.00  0.00     0.154 C 
ATOM      9  C7  <0> d           2.912  -0.699  -0.320  0.00  0.00     0.085 C 
ATOM     10  C8  <0> d           2.375  -0.343   1.083  0.00  0.00     0.158 C 
ATOM     11  C9  <0> d           0.875  -0.523   1.136  0.00  0.00    -0.056 C 
ATOM     12  C10 <0> d           0.323  -1.130   2.158  0.00  0.00     0.017 C 
ATOM     13  H11 <0> d           1.215   0.103  -4.457  0.00  0.00     0.163 HD
ENDROOT
BRANCH   9  14
ATOM     14  C11 <0> d           2.764  -2.178  -0.570  0.00  0.00    -0.020 C 
ATOM     15  C12 <0> d           3.816  -2.901  -0.867  0.00  0.00    -0.030 C 
BRANCH  15  16
ATOM     16  C13 <0> d           3.668  -4.379  -1.117  0.00  0.00     0.031 C 
BRANCH  16  17
ATOM     17  C14 <0> d           4.253  -4.726  -2.487  0.00  0.00    -0.015 C 
ATOM     18  C15 <0> d           5.761  -4.465  -2.478  0.00  0.00     0.010 C 
BRANCH  17  19
ATOM     19  C16 <0> d           3.993  -6.201  -2.795  0.00  0.00     0.004 C 
BRANCH  19  20
ATOM     20  C17 <0> d           4.467  -6.518  -4.215  0.00  0.00     0.003 C 
BRANCH  20  21
ATOM     21  C18 <0> d           4.206  -7.993  -4.523  0.00  0.00     0.032 C 
BRANCH  21  22
ATOM     22  C19 <0> d           4.680  -8.309  -5.943  0.00  0.00     0.132 C 
ATOM     23  O4  <0> d           6.120  -8.249  -6.027  0.00  0.00    -0.316 OA
ATOM     24  C22 <0> d           6.509  -8.976  -7.095  0.00  0.00     0.259 C 
ATOM     25  C21 <0> d           5.481 -10.059  -7.359  0.00  0.00     0.113 C 
ATOM     26  O3  <0> d           7.514  -8.790  -7.739  0.00  0.00    -0.265 OA
ATOM     27  C20 <0> d           4.373  -9.787  -6.310  0.00  0.00     0.042 C 
ENDBRANCH  21  22
ENDBRANCH  20  21
ENDBRANCH  19  20
ENDBRANCH  17  19
ENDBRANCH  16  17
ENDBRANCH  15  16
ENDBRANCH   9  14
BRANCH   8  28
ATOM     28  O5  <0> d           2.037   1.450  -0.907  0.00  0.00    -0.379 OA
ATOM     29  H32 <0> d           2.901   1.885  -0.904  0.00  0.00     0.211 HD
ENDBRANCH   8  28
BRANCH  10  30
ATOM     30  O2  <0> d           2.984  -1.196   2.054  0.00  0.00    -0.390 OA
ATOM     31  H14 <0> d           2.694  -1.030   2.961  0.00  0.00     0.210 HD
ENDBRANCH  10  30
BRANCH   4  32
ATOM     32  C23 <0> d          -1.016  -0.846  -3.146  0.00  0.00     0.064 C 
BRANCH  32  33
ATOM     33  C24 <0> d          -1.625  -0.202  -4.365  0.00  0.00    -0.056 A 
ATOM     34  C29 <0> d          -1.101  -0.458  -5.618  0.00  0.00     0.007 A 
ATOM     35  C28 <0> d          -1.663   0.130  -6.736  0.00  0.00     0.001 A 
ATOM     36  C27 <0> d          -2.743   0.981  -6.600  0.00  0.00     0.000 A 
ATOM     37  C26 <0> d          -3.264   1.242  -5.346  0.00  0.00     0.001 A 
ATOM     38  C25 <0> d          -2.705   0.651  -4.229  0.00  0.00     0.007 A 
ENDBRANCH  32  33
ENDBRANCH   4  32
TORSDOF 11
