REMARK  5 active torsions:
REMARK  status: ('A' for Active; 'I' for Inactive)
REMARK    1  A    between atoms: C2_2  and  C3_3 
REMARK    2  A    between atoms: C3_3  and  C4_4 
REMARK    3  A    between atoms: C4_4  and  N1_5 
REMARK    4  A    between atoms: C7_9  and  C18_24 
REMARK    5  A    between atoms: C18_24  and  C19_25 
ROOT
ATOM      1  N1  <0> d           1.425  -2.500  -2.470  0.00  0.00    -0.288 N 
ATOM      2  C5  <0> d           0.789  -2.748  -3.654  0.00  0.00     0.233 C 
ATOM      3  O1  <0> d          -0.316  -2.375  -3.983  0.00  0.00    -0.272 OA
ATOM      4  C6  <0> d           1.745  -3.581  -4.464  0.00  0.00     0.128 C 
ATOM      5  C7  <0> d           1.931  -3.271  -5.954  0.00  0.00     0.240 C 
ATOM      6  N2  <0> d           3.383  -3.576  -6.176  0.00  0.00     0.114 N 
ATOM      7  C8  <0> d           4.086  -3.372  -4.871  0.00  0.00     0.279 A 
ATOM      8  C9  <0> d           3.059  -2.869  -3.944  0.00  0.00     0.147 C 
ATOM      9  C10 <0> d           2.776  -2.735  -2.534  0.00  0.00     0.234 C 
ATOM     10  O2  <0> d           3.558  -2.813  -1.611  0.00  0.00    -0.272 OA
ATOM     11  C11 <0> d           4.706  -4.671  -4.427  0.00  0.00     0.017 A 
ATOM     12  C12 <0> d           4.182  -5.898  -4.084  0.00  0.00     0.012 A 
ATOM     13  C13 <0> d           5.024  -6.929  -3.705  0.00  0.00     0.001 A 
ATOM     14  C14 <0> d           6.391  -6.724  -3.674  0.00  0.00     0.002 A 
ATOM     15  C15 <0> d           6.920  -5.497  -4.018  0.00  0.00     0.030 A 
ATOM     16  C16 <0> d           6.079  -4.454  -4.400  0.00  0.00     0.044 A 
ATOM     17  N3  <0> d           6.369  -3.145  -4.788  0.00  0.00    -0.324 N 
ATOM     18  C17 <0> d           5.258  -2.445  -5.081  0.00  0.00     0.267 A 
ATOM     19  O3  <0> d           5.209  -1.288  -5.445  0.00  0.00    -0.270 OA
ATOM     20  H13 <0> d           3.507  -4.521  -6.509  0.00  0.00     0.318 HD
ATOM     21  H18 <0> d           7.267  -2.782  -4.840  0.00  0.00     0.169 HD
ENDROOT
BRANCH   5  22
ATOM     22  C18 <0> d           1.633  -1.798  -6.243  0.00  0.00     0.073 C 
BRANCH  22  23
ATOM     23  C19 <0> d           1.704  -1.553  -7.728  0.00  0.00    -0.048 A 
ATOM     24  C26 <0> d           2.942  -1.249  -8.541  0.00  0.00     0.155 A 
ATOM     25  N4  <0> d           2.487  -1.097  -9.927  0.00  0.00    -0.385 N 
ATOM     26  C25 <0> d           1.187  -1.268  -9.961  0.00  0.00     0.038 A 
ATOM     27  H27 <0> d           3.052  -0.898 -10.690  0.00  0.00     0.160 HD
ATOM     28  C20 <0> d           0.672  -1.554  -8.603  0.00  0.00    -0.006 A 
ATOM     29  C24 <0> d           0.254  -1.226 -11.034  0.00  0.00     0.030 A 
ATOM     30  C21 <0> d          -0.769  -1.777  -8.440  0.00  0.00     0.014 A 
ATOM     31  C22 <0> d          -1.570  -1.714  -9.528  0.00  0.00     0.001 A 
ATOM     32  C23 <0> d          -1.058  -1.442 -10.805  0.00  0.00     0.002 A 
ENDBRANCH  22  23
ENDBRANCH   5  22
BRANCH   1  33
ATOM     33  C4  <0> d           0.739  -2.027  -1.265  0.00  0.00     0.135 C 
BRANCH  33  34
ATOM     34  C3  <0> d           0.718  -0.497  -1.257  0.00  0.00     0.020 C 
BRANCH  34  35
ATOM     35  C2  <0> d           0.002  -0.004   0.002  0.00  0.00    -0.003 C 
ATOM     36  C1  <0> d          -0.019   1.526   0.010  0.00  0.00     0.005 C 
ENDBRANCH  34  35
ENDBRANCH  33  34
ENDBRANCH   1  33
TORSDOF 5
