REMARK  6 active torsions:
REMARK  status: ('A' for Active; 'I' for Inactive)
REMARK    1  A    between atoms: C3_3  and  C21_27 
REMARK    2  A    between atoms: C5_5  and  C14_16 
REMARK    3  A    between atoms: N1_6  and  C6_7 
REMARK    4  A    between atoms: C6_7  and  C7_8 
REMARK    5  A    between atoms: C10_11  and  O1_14 
REMARK    6  A    between atoms: C16_19  and  C17_21 
REMARK       I    between atoms: C21_27  and  N4_29 
ROOT
ATOM      1  C1  <0> d           0.232   1.390   0.183  0.00  0.00     0.069 C 
ATOM      2  C2  <0> d           0.155  -0.112   0.094  0.00  0.00     0.024 A 
ATOM      3  C3  <0> d           0.228  -0.857  -1.063  0.00  0.00     0.056 A 
ATOM      4  C4  <0> d           0.113  -2.221  -0.685  0.00  0.00     0.051 A 
ATOM      5  C5  <0> d          -0.025  -2.250   0.665  0.00  0.00     0.065 A 
ATOM      6  N1  <0> d           0.007  -0.960   1.134  0.00  0.00    -0.344 N 
ENDROOT
BRANCH   5   7
ATOM      7  C14 <0> d          -0.177  -3.467   1.493  0.00  0.00     0.091 A 
ATOM      8  N2  <0> d          -0.353  -4.646   0.921  0.00  0.00    -0.237 NA
ATOM      9  C16 <0> d          -0.486  -5.747   1.643  0.00  0.00     0.127 A 
ATOM     10  S1  <0> d          -0.371  -5.099   3.305  0.00  0.00    -0.077 SA
ATOM     11  C15 <0> d          -0.144  -3.382   2.861  0.00  0.00     0.086 A 
BRANCH   9  12
ATOM     12  C17 <0> d          -0.683  -7.141   1.195  0.00  0.00     0.100 A 
ATOM     13  N3  <0> d          -0.747  -7.460  -0.092  0.00  0.00    -0.243 NA
ATOM     14  C19 <0> d          -0.916  -8.696  -0.479  0.00  0.00     0.071 A 
ATOM     15  S2  <0> d          -1.018  -9.551   0.967  0.00  0.00    -0.085 SA
ATOM     16  C20 <0> d          -1.004  -9.229  -1.886  0.00  0.00     0.078 C 
ATOM     17  C18 <0> d          -0.816  -8.175   2.087  0.00  0.00     0.086 A 
ENDBRANCH   9  12
ENDBRANCH   5   7
BRANCH   6  18
ATOM     18  C6  <0> d          -0.104  -0.565   2.540  0.00  0.00     0.167 C 
BRANCH  18  19
ATOM     19  C7  <0> d           1.274  -0.377   3.120  0.00  0.00    -0.040 A 
ATOM     20  C12 <0> d           1.820   0.890   3.204  0.00  0.00     0.011 A 
ATOM     21  C11 <0> d           3.081   1.066   3.741  0.00  0.00     0.037 A 
ATOM     22  C10 <0> d           3.804  -0.031   4.184  0.00  0.00     0.068 A 
ATOM     23  C9  <0> d           3.256  -1.303   4.093  0.00  0.00     0.037 A 
ATOM     24  C8  <0> d           1.993  -1.473   3.561  0.00  0.00     0.011 A 
BRANCH  22  25
ATOM     25  O1  <0> d           5.046   0.138   4.708  0.00  0.00    -0.356 OA
ATOM     26  C13 <0> d           5.547   1.476   4.771  0.00  0.00     0.210 C 
ENDBRANCH  22  25
ENDBRANCH  18  19
ENDBRANCH   6  18
BRANCH   3  27
ATOM     27  C21 <0> d           0.395  -0.337  -2.431  0.00  0.00     0.251 C 
ATOM     28  O2  <0> d           0.481   0.861  -2.620  0.00  0.00    -0.268 OA
ATOM     29  N4  <0> d           0.450  -1.190  -3.473  0.00  0.00    -0.366 N 
ATOM     30  H19 <0> d           0.381  -2.146  -3.323  0.00  0.00     0.159 HD
ATOM     31  H20 <0> d           0.560  -0.848  -4.374  0.00  0.00     0.159 HD
ENDBRANCH   3  27
TORSDOF 6
