REMARK  4 active torsions:
REMARK  status: ('A' for Active; 'I' for Inactive)
REMARK    1  A    between atoms: C11_13  and  N2_16 
REMARK       I    between atoms: N2_16  and  C14_17 
REMARK    2  A    between atoms: C14_17  and  C15_19 
REMARK    3  A    between atoms: C15_19  and  C16_20 
REMARK    4  A    between atoms: C16_20  and  N3_21 
ROOT
ATOM      1  C1  <0> d          -1.297  -0.768   0.011  0.00  0.00     0.048 C 
ATOM      2  C2  <0> d           0.002  -0.004   0.002  0.00  0.00    -0.059 A 
ATOM      3  C3  <0> d           1.206  -0.695  -0.013  0.00  0.00     0.014 A 
ATOM      4  C4  <0> d           2.394  -0.020  -0.022  0.00  0.00    -0.048 A 
ATOM      5  C5  <0> d           2.399   1.377  -0.015  0.00  0.00     0.005 A 
ATOM      6  C6  <0> d           1.181   2.082   0.002  0.00  0.00     0.044 A 
ATOM      7  C7  <0> d          -0.017   1.373   0.010  0.00  0.00     0.037 A 
ATOM      8  N1  <0> d           1.486   3.425   0.009  0.00  0.00    -0.358 N 
ATOM      9  H1  <0> d           0.679   4.172   0.023  0.00  0.00     0.166 HD
ATOM     10  C8  <0> d           2.841   3.595  -0.005  0.00  0.00     0.017 A 
ATOM     11  C9  <0> d           3.447   2.392  -0.021  0.00  0.00    -0.021 A 
ATOM     12  C10 <0> d           4.939   2.184  -0.042  0.00  0.00     0.066 C 
ATOM     13  C11 <0> d           5.608   3.502  -0.452  0.00  0.00     0.089 C 
ATOM     14  C12 <0> d           5.043   4.643   0.400  0.00  0.00     0.031 C 
ATOM     15  C13 <0> d           3.588   4.909  -0.003  0.00  0.00     0.059 C 
ATOM     16  C22 <0> d           3.695  -0.781  -0.038  0.00  0.00     0.049 C 
ENDROOT
BRANCH  13  17
ATOM     17  N2  <0> d           7.054   3.404  -0.240  0.00  0.00    -0.356 N 
ATOM     18  C14 <0> d           7.894   4.177  -0.956  0.00  0.00     0.219 C 
ATOM     19  O1  <0> d           7.453   4.954  -1.776  0.00  0.00    -0.274 OA
ATOM     20  H14 <0> d           7.454   2.699   0.504  0.00  0.00     0.162 HD
BRANCH  18  21
ATOM     21  C15 <0> d           9.382   4.076  -0.738  0.00  0.00     0.130 C 
BRANCH  21  22
ATOM     22  C16 <0> d          10.102   5.053  -1.669  0.00  0.00     0.244 C 
BRANCH  22  23
ATOM     23  N3  <0> d          11.552   4.955  -1.456  0.00  0.00    -0.071 N 
ATOM     24  C21 <0> d          12.287   5.697  -2.488  0.00  0.00     0.235 C 
ATOM     25  C20 <0> d          13.788   5.454  -2.322  0.00  0.00     0.028 C 
ATOM     26  C19 <0> d          14.224   5.914  -0.928  0.00  0.00     0.003 C 
ATOM     27  C18 <0> d          13.409   5.161   0.127  0.00  0.00     0.028 C 
ATOM     28  C17 <0> d          11.918   5.413  -0.110  0.00  0.00     0.235 C 
ATOM     29  H32 <0> d          11.836   3.895  -1.539  0.00  0.00     0.279 HD
ENDBRANCH  22  23
ENDBRANCH  21  22
ENDBRANCH  18  21
ENDBRANCH  13  17
TORSDOF 4
