REMARK  3 active torsions:
REMARK  status: ('A' for Active; 'I' for Inactive)
REMARK    1  A    between atoms: C4_4  and  N1_7 
REMARK    2  A    between atoms: C14_18  and  C15_19 
REMARK       I    between atoms: C15_19  and  N4_21 
REMARK    3  A    between atoms: N4_21  and  C16_22 
ROOT
ATOM      1  N1  <0> d          -1.215  -0.657   0.010  0.00  0.00    -0.305 N 
ATOM      2  C7  <0> d          -2.258   0.075  -0.479  0.00  0.00     0.216 A 
ATOM      3  N2  <0> d          -2.295   1.372  -0.511  0.00  0.00    -0.241 NA
ATOM      4  C8  <0> d          -1.250   2.132  -0.045  0.00  0.00     0.096 A 
ATOM      5  C9  <0> d          -0.115   1.402   0.479  0.00  0.00     0.057 A 
ATOM      6  C10 <0> d          -0.102  -0.003   0.501  0.00  0.00     0.057 A 
ATOM      7  C11 <0> d           1.025  -0.624   1.013  0.00  0.00     0.050 A 
ATOM      8  C12 <0> d           2.073   0.158   1.473  0.00  0.00     0.120 A 
ATOM      9  N3  <0> d           2.032   1.483   1.440  0.00  0.00    -0.253 NA
ATOM     10  C13 <0> d           0.983   2.116   0.963  0.00  0.00     0.113 A 
ATOM     11  S1  <0> d           0.484   3.800   0.720  0.00  0.00    -0.062 SA
ATOM     12  C14 <0> d          -1.126   3.530   0.000  0.00  0.00     0.104 A 
ENDROOT
BRANCH   1  13
ATOM     13  C4  <0> d          -1.267  -2.055   0.004  0.00  0.00     0.040 A 
ATOM     14  C3  <0> d          -1.790  -2.737   1.095  0.00  0.00     0.030 A 
ATOM     15  C2  <0> d          -1.841  -4.117   1.085  0.00  0.00     0.002 A 
ATOM     16  C1  <0> d          -1.372  -4.820  -0.009  0.00  0.00     0.000 A 
ATOM     17  C6  <0> d          -0.850  -4.144  -1.097  0.00  0.00     0.002 A 
ATOM     18  C5  <0> d          -0.801  -2.764  -1.096  0.00  0.00     0.030 A 
ENDBRANCH   1  13
BRANCH  12  19
ATOM     19  C15 <0> d          -2.056   4.497  -0.429  0.00  0.00     0.267 C 
ATOM     20  O1  <0> d          -3.123   4.147  -0.904  0.00  0.00    -0.267 OA
ATOM     21  N4  <0> d          -1.767   5.808  -0.314  0.00  0.00    -0.300 N 
ATOM     22  H9  <0> d          -0.918   6.086   0.064  0.00  0.00     0.171 HD
BRANCH  21  23
ATOM     23  C16 <0> d          -2.657   6.733  -0.725  0.00  0.00     0.355 C 
ATOM     24  O2  <0> d          -3.718   6.385  -1.197  0.00  0.00    -0.283 OA
ENDBRANCH  21  23
ENDBRANCH  12  19
TORSDOF 3
