REMARK  7 active torsions:
REMARK  status: ('A' for Active; 'I' for Inactive)
REMARK    1  A    between atoms: C4_4  and  C7_7 
REMARK    2  A    between atoms: C7_7  and  C8_8 
REMARK    3  A    between atoms: C8_8  and  C9_9 
REMARK    4  A    between atoms: C8_8  and  N3_24 
REMARK    5  A    between atoms: C10_12  and  S1_14 
REMARK    6  A    between atoms: S1_14  and  C11_15 
REMARK    7  A    between atoms: C11_15  and  C12_16 
ROOT
ATOM      1  C9  <0> d           5.543  -1.588   1.383  0.00  0.00     0.200 A 
ATOM      2  N1  <0> d           5.822  -2.819   1.069  0.00  0.00    -0.124 NA
ATOM      3  N2  <0> d           7.091  -3.010   1.163  0.00  0.00    -0.114 NA
ATOM      4  C10 <0> d           7.670  -1.897   1.546  0.00  0.00     0.231 A 
ATOM      5  O1  <0> d           6.702  -0.972   1.687  0.00  0.00    -0.266 OA
ENDROOT
BRANCH   1   6
ATOM      6  C8  <0> d           4.171  -0.963   1.399  0.00  0.00     0.266 C 
BRANCH   6   7
ATOM      7  C7  <0> d           3.711  -0.707  -0.038  0.00  0.00     0.080 C 
BRANCH   7   8
ATOM      8  C4  <0> d           2.396   0.029  -0.020  0.00  0.00    -0.056 A 
ATOM      9  C3  <0> d           2.377   1.411  -0.013  0.00  0.00     0.007 A 
ATOM     10  C2  <0> d           1.171   2.086   0.002  0.00  0.00     0.001 A 
ATOM     11  C1  <0> d          -0.017   1.378   0.010  0.00  0.00     0.000 A 
ATOM     12  C6  <0> d           0.002  -0.004   0.002  0.00  0.00     0.001 A 
ATOM     13  C5  <0> d           1.208  -0.679  -0.012  0.00  0.00     0.007 A 
ENDBRANCH   7   8
ENDBRANCH   6   7
BRANCH   6  14
ATOM     14  N3  <0> d           3.226  -1.872   2.061  0.00  0.00    -0.067 N 
ATOM     15  H14 <0> d           3.192  -2.746   1.558  0.00  0.00     0.275 HD
ATOM     16  H15 <0> d           3.530  -2.041   3.008  0.00  0.00     0.275 HD
ATOM     17  H16 <0> d           2.308  -1.454   2.072  0.00  0.00     0.275 HD
ENDBRANCH   6  14
ENDBRANCH   1   6
BRANCH   4  18
ATOM     18  S1  <0> d           9.394  -1.655   1.816  0.00  0.00    -0.078 SA
BRANCH  18  19
ATOM     19  C11 <0> d          10.128  -3.272   1.445  0.00  0.00     0.125 C 
BRANCH  19  20
ATOM     20  C12 <0> d          11.620  -3.203   1.639  0.00  0.00    -0.005 A 
ATOM     21  C17 <0> d          12.172  -3.495   2.874  0.00  0.00     0.042 A 
ATOM     22  C16 <0> d          13.543  -3.438   3.050  0.00  0.00     0.024 A 
ATOM     23 Cl1  <0> d          11.144  -3.941   4.200  0.00  0.00    -0.084 Cl
ATOM     24  C15 <0> d          14.361  -3.077   1.996  0.00  0.00     0.003 A 
ATOM     25  C14 <0> d          13.810  -2.779   0.764  0.00  0.00     0.024 A 
ATOM     26  C13 <0> d          12.440  -2.842   0.585  0.00  0.00     0.042 A 
ATOM     27 Cl2  <0> d          11.748  -2.469  -0.964  0.00  0.00    -0.084 Cl
ENDBRANCH  19  20
ENDBRANCH  18  19
ENDBRANCH   4  18
TORSDOF 7
