REMARK  7 active torsions:
REMARK  status: ('A' for Active; 'I' for Inactive)
REMARK    1  A    between atoms: C2_2  and  O1_4 
REMARK    2  A    between atoms: O1_4  and  C4_5 
REMARK    3  A    between atoms: C4_5  and  C5_7 
REMARK    4  A    between atoms: C6_8  and  N2_23 
REMARK    5  A    between atoms: C10_15  and  C12_17 
REMARK    6  A    between atoms: C12_17  and  O5_19 
REMARK    7  A    between atoms: O5_19  and  C13_20 
ROOT
ATOM      1  C5  <0> d          -2.867  -2.186  -0.693  0.00  0.00     0.066 C 
ATOM      2  C6  <0> d          -3.051  -3.376  -1.324  0.00  0.00     0.121 C 
ATOM      3  N1  <0> d          -4.334  -3.946  -1.346  0.00  0.00    -0.260 N 
ATOM      4  C7  <0> d          -4.559  -5.230  -1.629  0.00  0.00     0.240 C 
ATOM      5  O3  <0> d          -3.651  -6.005  -1.838  0.00  0.00    -0.272 OA
ATOM      6  C8  <0> d          -6.013  -5.674  -1.676  0.00  0.00     0.184 C 
ATOM      7  S1  <0> d          -6.847  -4.036  -1.520  0.00  0.00    -0.102 SA
ATOM      8  C9  <0> d          -5.412  -3.121  -1.019  0.00  0.00     0.094 C 
ATOM      9  C10 <0> d          -5.317  -1.914  -0.419  0.00  0.00     0.056 C 
ATOM     10  C11 <0> d          -3.950  -1.468   0.057  0.00  0.00     0.096 C 
ENDROOT
BRANCH   1  11
ATOM     11  C4  <0> d          -1.593  -1.601  -0.741  0.00  0.00     0.293 C 
ATOM     12  O2  <0> d          -0.866  -1.644   0.235  0.00  0.00    -0.259 OA
BRANCH  11  13
ATOM     13  O1  <0> d          -1.173  -0.989  -1.869  0.00  0.00    -0.313 OA
BRANCH  13  14
ATOM     14  C2  <0> d           0.136  -0.415  -1.847  0.00  0.00     0.124 C 
ATOM     15  C1  <0> d           0.734  -0.454  -3.255  0.00  0.00     0.040 C 
ATOM     16  C3  <0> d           0.048   1.036  -1.371  0.00  0.00     0.040 C 
ENDBRANCH  13  14
ENDBRANCH  11  13
ENDBRANCH   1  11
BRANCH   2  17
ATOM     17  N2  <0> d          -1.999  -4.010  -1.931  0.00  0.00    -0.384 N 
ATOM     18  H19 <0> d          -1.096  -3.683  -1.801  0.00  0.00     0.157 HD
ATOM     19  H20 <0> d          -2.159  -4.786  -2.490  0.00  0.00     0.157 HD
ENDBRANCH   2  17
BRANCH   9  20
ATOM     20  C12 <0> d          -6.448  -1.104  -0.240  0.00  0.00     0.292 C 
ATOM     21  O4  <0> d          -7.538  -1.485  -0.627  0.00  0.00    -0.259 OA
BRANCH  20  22
ATOM     22  O5  <0> d          -6.328   0.099   0.363  0.00  0.00    -0.313 OA
BRANCH  22  23
ATOM     23  C13 <0> d          -7.521   0.872   0.512  0.00  0.00     0.124 C 
ATOM     24  C14 <0> d          -7.410   1.743   1.765  0.00  0.00     0.040 C 
ATOM     25  C15 <0> d          -7.707   1.765  -0.716  0.00  0.00     0.040 C 
ENDBRANCH  22  23
ENDBRANCH  20  22
ENDBRANCH   9  20
TORSDOF 7
