REMARK  5 active torsions:
REMARK  status: ('A' for Active; 'I' for Inactive)
REMARK       I    between atoms: N2_12  and  C11_13 
REMARK    1  A    between atoms: C11_13  and  C12_15 
REMARK       I    between atoms: C12_15  and  N3_17 
REMARK    2  A    between atoms: N3_17  and  C13_18 
REMARK    3  A    between atoms: C13_18  and  C14_19 
REMARK    4  A    between atoms: C14_19  and  C15_20 
REMARK    5  A    between atoms: C14_19  and  N4_25 
ROOT
ATOM      1  C1  <0> d           3.694  -0.318  -0.985  0.00  0.00     0.068 C 
ATOM      2  C2  <0> d           2.640  -1.367  -0.737  0.00  0.00     0.008 A 
ATOM      3  C3  <0> d           1.716  -1.601  -1.698  0.00  0.00     0.057 A 
ATOM      4  C4  <0> d           0.717  -2.576  -1.496  0.00  0.00     0.075 A 
ATOM      5  C5  <0> d           0.726  -3.311  -0.221  0.00  0.00     0.019 A 
ATOM      6  C6  <0> d          -0.225  -4.293   0.062  0.00  0.00     0.016 A 
ATOM      7  C7  <0> d          -0.180  -4.952   1.258  0.00  0.00     0.001 A 
ATOM      8  C8  <0> d           0.802  -4.654   2.193  0.00  0.00     0.002 A 
ATOM      9  C9  <0> d           1.750  -3.689   1.934  0.00  0.00     0.030 A 
ATOM     10  C10 <0> d           1.725  -3.004   0.722  0.00  0.00     0.045 A 
ATOM     11  N1  <0> d           2.659  -2.038   0.430  0.00  0.00    -0.359 N 
ATOM     12  N2  <0> d          -0.209  -2.824  -2.432  0.00  0.00    -0.205 NA
ATOM     13  C11 <0> d          -0.274  -2.063  -3.520  0.00  0.00     0.335 C 
ATOM     14  O1  <0> d          -0.351  -0.852  -3.413  0.00  0.00    -0.260 OA
ATOM     15  H23 <0> d           3.347  -1.833   1.083  0.00  0.00     0.166 HD
ENDROOT
BRANCH  13  16
ATOM     16  C12 <0> d          -0.253  -2.693  -4.872  0.00  0.00     0.311 C 
ATOM     17  O2  <0> d          -0.176  -3.900  -4.978  0.00  0.00    -0.262 OA
ATOM     18  N3  <0> d          -0.318  -1.922  -5.976  0.00  0.00    -0.350 N 
ATOM     19  H10 <0> d          -0.379  -0.958  -5.891  0.00  0.00     0.162 HD
BRANCH  18  20
ATOM     20  C13 <0> d          -0.297  -2.541  -7.303  0.00  0.00     0.163 C 
BRANCH  20  21
ATOM     21  C14 <0> d          -0.253  -1.448  -8.374  0.00  0.00     0.261 C 
BRANCH  21  22
ATOM     22  C15 <0> d          -1.531  -0.652  -8.332  0.00  0.00     0.085 A 
ATOM     23  O3  <0> d          -1.817   0.330  -7.462  0.00  0.00    -0.325 OA
ATOM     24  C18 <0> d          -3.041   0.818  -7.722  0.00  0.00     0.142 A 
ATOM     25  C17 <0> d          -3.555   0.140  -8.764  0.00  0.00     0.027 A 
ATOM     26  C16 <0> d          -2.582  -0.807  -9.158  0.00  0.00     0.037 A 
ENDBRANCH  21  22
BRANCH  21  27
ATOM     27  N4  <0> d           0.887  -0.558  -8.118  0.00  0.00    -0.067 N 
ATOM     28  C19 <0> d           2.139  -1.314  -8.255  0.00  0.00     0.270 C 
ATOM     29  C20 <0> d           0.874   0.546  -9.087  0.00  0.00     0.270 C 
ATOM     30  H22 <0> d           0.820  -0.185  -7.183  0.00  0.00     0.280 HD
ENDBRANCH  21  27
ENDBRANCH  20  21
ENDBRANCH  18  20
ENDBRANCH  13  16
TORSDOF 5
