REMARK  4 active torsions:
REMARK  status: ('A' for Active; 'I' for Inactive)
REMARK    1  A    between atoms: C5_5  and  S1_8 
REMARK    2  A    between atoms: S1_8  and  N1_11 
REMARK    3  A    between atoms: N1_11  and  C8_12 
REMARK    4  A    between atoms: C8_12  and  C9_13 
ROOT
ATOM      1  C9  <0> d           3.767  -5.528   1.029  0.00  0.00     0.029 A 
ATOM      2  C10 <0> d           4.886  -5.004   0.470  0.00  0.00     0.028 A 
ATOM      3  C11 <0> d           6.090  -5.835   0.404  0.00  0.00    -0.008 A 
ATOM      4  C12 <0> d           7.274  -5.350  -0.161  0.00  0.00     0.021 A 
ATOM      5  C13 <0> d           8.380  -6.151  -0.206  0.00  0.00    -0.055 A 
ATOM      6  C14 <0> d           8.339  -7.442   0.302  0.00  0.00    -0.054 A 
ATOM      7  C15 <0> d           7.183  -7.941   0.863  0.00  0.00     0.037 A 
ATOM      8  C16 <0> d           6.045  -7.144   0.921  0.00  0.00     0.045 A 
ATOM      9  N2  <0> d           4.875  -7.617   1.477  0.00  0.00    -0.322 N 
ATOM     10  H1  <0> d           4.846  -8.518   1.833  0.00  0.00     0.169 HD
ATOM     11  C17 <0> d           3.776  -6.844   1.538  0.00  0.00     0.253 A 
ATOM     12  O3  <0> d           2.761  -7.293   2.041  0.00  0.00    -0.268 OA
ATOM     13  C18 <0> d           9.571  -8.307   0.241  0.00  0.00     0.049 C 
ATOM     14  C19 <0> d           9.656  -5.628  -0.815  0.00  0.00     0.049 C 
ENDROOT
BRANCH   1  15
ATOM     15  C8  <0> d           2.512  -4.699   1.113  0.00  0.00     0.176 C 
BRANCH  15  16
ATOM     16  N1  <0> d           1.651  -4.999  -0.034  0.00  0.00    -0.311 N 
ATOM     17  H9  <0> d           2.011  -5.473  -0.800  0.00  0.00     0.172 HD
BRANCH  16  18
ATOM     18  S1  <0> d           0.063  -4.530  -0.023  0.00  0.00     0.259 S 
ATOM     19  O1  <0> d          -0.476  -4.950   1.223  0.00  0.00    -0.201 OA
ATOM     20  O2  <0> d          -0.490  -4.937  -1.267  0.00  0.00    -0.201 OA
BRANCH  18  21
ATOM     21  C5  <0> d           0.040  -2.768  -0.013  0.00  0.00     0.079 A 
ATOM     22  C4  <0> d           0.025  -2.071  -1.206  0.00  0.00     0.026 A 
ATOM     23  C3  <0> d           0.006  -0.689  -1.199  0.00  0.00     0.008 A 
ATOM     24  C2  <0> d           0.002  -0.004   0.002  0.00  0.00    -0.062 A 
ATOM     25  C1  <0> d          -0.018   1.503   0.010  0.00  0.00     0.048 C 
ATOM     26  C7  <0> d           0.023  -0.702   1.195  0.00  0.00     0.008 A 
ATOM     27  C6  <0> d           0.037  -2.084   1.188  0.00  0.00     0.026 A 
ENDBRANCH  18  21
ENDBRANCH  16  18
ENDBRANCH  15  16
ENDBRANCH   1  15
TORSDOF 4
