REMARK  5 active torsions:
REMARK  status: ('A' for Active; 'I' for Inactive)
REMARK    1  A    between atoms: C5_5  and  C9_9 
REMARK       I    between atoms: C9_9  and  N1_11 
REMARK    2  A    between atoms: C11_13  and  C18_21 
REMARK       I    between atoms: C18_21  and  N3_23 
REMARK    3  A    between atoms: N3_23  and  C19_24 
REMARK    4  A    between atoms: C19_24  and  C20_25 
REMARK    5  A    between atoms: C20_25  and  C21_26 
ROOT
ATOM      1  C9  <0> d           0.059  -4.412   0.065  0.00  0.00     0.254 C 
ATOM      2  O1  <0> d           0.240  -4.977   1.126  0.00  0.00    -0.267 OA
ATOM      3  N1  <0> d          -0.080  -5.132  -1.066  0.00  0.00    -0.346 N 
ATOM      4  C10 <0> d          -0.204  -4.628  -2.454  0.00  0.00     0.141 C 
ATOM      5  C11 <0> d           0.629  -5.614  -3.304  0.00  0.00     0.106 C 
ATOM      6  C12 <0> d           0.662  -6.911  -2.478  0.00  0.00    -0.007 C 
ATOM      7  C13 <0> d          -0.138  -6.607  -1.204  0.00  0.00     0.136 C 
ATOM      8  C14 <0> d           2.100  -7.271  -2.118  0.00  0.00     0.039 C 
ATOM      9  C15 <0> d           2.112  -8.594  -1.346  0.00  0.00     0.233 C 
ATOM     10  N2  <0> d           1.515  -9.650  -2.173  0.00  0.00    -0.075 N 
ATOM     11  C16 <0> d           0.105  -9.341  -2.438  0.00  0.00     0.233 C 
ATOM     12  C17 <0> d           0.008  -8.050  -3.255  0.00  0.00     0.039 C 
ATOM     13  H20 <0> d           2.014  -9.713  -3.047  0.00  0.00     0.277 HD
ATOM     14  H37 <0> d           1.579 -10.532  -1.687  0.00  0.00     0.277 HD
ENDROOT
BRANCH   5  15
ATOM     15  C18 <0> d          -0.038  -5.853  -4.634  0.00  0.00     0.224 C 
ATOM     16  O2  <0> d          -1.248  -5.842  -4.717  0.00  0.00    -0.273 OA
ATOM     17  N3  <0> d           0.710  -6.079  -5.732  0.00  0.00    -0.360 N 
ATOM     18  H25 <0> d           1.678  -6.088  -5.666  0.00  0.00     0.162 HD
BRANCH  17  19
ATOM     19  C19 <0> d           0.062  -6.311  -7.025  0.00  0.00     0.127 C 
BRANCH  19  20
ATOM     20  C20 <0> d           1.130  -6.539  -8.097  0.00  0.00     0.061 C 
BRANCH  20  21
ATOM     21  C21 <0> d           0.463  -6.778  -9.427  0.00  0.00    -0.022 A 
ATOM     22  C22 <0> d           0.103  -5.760 -10.417  0.00  0.00    -0.001 A 
ATOM     23  C23 <0> d           0.235  -4.371 -10.472  0.00  0.00     0.014 A 
ATOM     24  C27 <0> d          -0.490  -6.452 -11.488  0.00  0.00     0.043 A 
ATOM     25  C24 <0> d          -0.214  -3.690 -11.569  0.00  0.00     0.001 A 
ATOM     26  C25 <0> d          -0.801  -4.368 -12.628  0.00  0.00     0.002 A 
ATOM     27  C26 <0> d          -0.941  -5.739 -12.594  0.00  0.00     0.030 A 
ATOM     28  N4  <0> d          -0.485  -7.789 -11.161  0.00  0.00    -0.359 N 
ATOM     29  H2  <0> d          -0.835  -8.501 -11.719  0.00  0.00     0.166 HD
ATOM     30  C28 <0> d           0.092  -7.965  -9.932  0.00  0.00     0.013 A 
ATOM     31  C29 <0> d           0.279  -9.294  -9.247  0.00  0.00     0.068 C 
ENDBRANCH  20  21
ENDBRANCH  19  20
ENDBRANCH  17  19
ENDBRANCH   5  15
BRANCH   1  32
ATOM     32  C5  <0> d          -0.007  -2.936   0.015  0.00  0.00     0.038 A 
ATOM     33  C4  <0> d           0.786  -2.229  -0.890  0.00  0.00     0.018 A 
ATOM     34  C3  <0> d           0.719  -0.852  -0.932  0.00  0.00     0.008 A 
ATOM     35  C2  <0> d          -0.133  -0.172  -0.080  0.00  0.00    -0.061 A 
ATOM     36  C1  <0> d          -0.201   1.333  -0.130  0.00  0.00     0.048 C 
ATOM     37  C7  <0> d          -0.917  -0.866   0.824  0.00  0.00     0.014 A 
ATOM     38  C6  <0> d          -0.864  -2.244   0.872  0.00  0.00    -0.046 A 
ATOM     39  C8  <0> d          -1.723  -2.999   1.853  0.00  0.00     0.049 C 
ENDBRANCH   1  32
TORSDOF 5
