REMARK  5 active torsions:
REMARK  status: ('A' for Active; 'I' for Inactive)
REMARK    1  A    between atoms: C6_6  and  S1_7 
REMARK    2  A    between atoms: S1_7  and  N1_10 
REMARK    3  A    between atoms: N2_13  and  C11_16 
REMARK    4  A    between atoms: C11_16  and  C12_17 
REMARK    5  A    between atoms: C12_17  and  N3_18 
ROOT
ATOM      1  S1  <0> d          -1.513  -0.903   0.013  0.00  0.00     0.261 S 
ATOM      2  O1  <0> d          -1.222  -2.184   0.554  0.00  0.00    -0.200 OA
ATOM      3  O2  <0> d          -2.492  -0.042   0.578  0.00  0.00    -0.200 OA
ENDROOT
BRANCH   1   4
ATOM      4  C6  <0> d           0.002  -0.004   0.002  0.00  0.00     0.082 A 
ATOM      5  C1  <0> d          -0.017   1.378   0.010  0.00  0.00     0.028 A 
ATOM      6  C2  <0> d           1.169   2.091   0.002  0.00  0.00     0.040 A 
ATOM      7  C3  <0> d           2.378   1.419  -0.013  0.00  0.00     0.096 A 
ATOM      8  O4  <0> d           3.552   2.104  -0.020  0.00  0.00    -0.340 OA
ATOM      9  C4  <0> d           2.397   0.025  -0.021  0.00  0.00     0.070 A 
ATOM     10  C16 <0> d           4.655   1.496   0.659  0.00  0.00     0.278 C 
ATOM     11  C15 <0> d           4.751   0.043   0.269  0.00  0.00     0.246 C 
ATOM     12  N6  <0> d           3.629  -0.644  -0.038  0.00  0.00    -0.323 N 
ATOM     13  O3  <0> d           5.831  -0.507   0.231  0.00  0.00    -0.271 OA
ATOM     14  H18 <0> d           3.675  -1.586  -0.267  0.00  0.00     0.169 HD
ATOM     15  C5  <0> d           1.207  -0.684  -0.013  0.00  0.00     0.057 A 
ENDBRANCH   1   4
BRANCH   1  16
ATOM     16  N1  <0> d          -1.950  -1.144  -1.566  0.00  0.00    -0.303 N 
ATOM     17  C10 <0> d          -1.506  -2.340  -2.299  0.00  0.00     0.165 C 
ATOM     18  C9  <0> d          -0.879  -1.902  -3.621  0.00  0.00     0.293 C 
ATOM     19  N2  <0> d          -1.823  -1.043  -4.348  0.00  0.00     0.093 N 
ATOM     20  C8  <0> d          -2.106   0.190  -3.601  0.00  0.00     0.293 C 
ATOM     21  C7  <0> d          -2.789  -0.166  -2.276  0.00  0.00     0.165 C 
BRANCH  19  22
ATOM     22  C11 <0> d          -1.326  -0.738  -5.697  0.00  0.00     0.294 C 
BRANCH  22  23
ATOM     23  C12 <0> d          -1.279  -2.023  -6.525  0.00  0.00     0.182 C 
BRANCH  23  24
ATOM     24  N3  <0> d          -0.784  -1.720  -7.870  0.00  0.00    -0.261 N 
ATOM     25  N5  <0> d          -1.306  -0.772  -8.766  0.00  0.00    -0.165 NA
ATOM     26  C14 <0> d          -0.568  -0.824  -9.843  0.00  0.00     0.256 A 
ATOM     27  N4  <0> d           0.376  -1.750  -9.677  0.00  0.00    -0.234 NA
ATOM     28  C13 <0> d           0.258  -2.297  -8.495  0.00  0.00     0.229 A 
ENDBRANCH  23  24
ENDBRANCH  22  23
ENDBRANCH  19  22
ENDBRANCH   1  16
TORSDOF 5
