REMARK  6 active torsions:
REMARK  status: ('A' for Active; 'I' for Inactive)
REMARK    1  A    between atoms: C5_5  and  C6_7 
REMARK    2  A    between atoms: C6_7  and  N1_9 
REMARK    3  A    between atoms: N1_9  and  S1_10 
REMARK    4  A    between atoms: S1_10  and  C8_13 
REMARK    5  A    between atoms: C11_16  and  C14_19 
REMARK    6  A    between atoms: C14_19  and  N2_21 
ROOT
ATOM      1  S1  <0> d           3.508  -4.198   1.732  0.00  0.00     0.259 S 
ATOM      2  O2  <0> d           4.585  -3.625   2.461  0.00  0.00    -0.201 OA
ATOM      3  O3  <0> d           2.443  -4.892   2.368  0.00  0.00    -0.201 OA
ENDROOT
BRANCH   1   4
ATOM      4  N1  <0> d           2.819  -2.969   0.861  0.00  0.00    -0.305 N 
ATOM      5  H11 <0> d           3.168  -2.067   0.936  0.00  0.00     0.173 HD
BRANCH   4   6
ATOM      6  C6  <0> d           1.684  -3.245  -0.023  0.00  0.00     0.146 C 
ATOM      7  C7  <0> d           2.192  -3.480  -1.447  0.00  0.00     0.040 C 
BRANCH   6   8
ATOM      8  C5  <0> d           0.742  -2.069  -0.013  0.00  0.00     0.076 A 
ATOM      9  C4  <0> d          -0.601  -2.136  -0.007  0.00  0.00     0.037 A 
ATOM     10  C3  <0> d          -1.078  -0.805   0.003  0.00  0.00     0.035 A 
ATOM     11  C2  <0> d           0.002  -0.004   0.002  0.00  0.00     0.049 A 
ATOM     12  C1  <0> d          -0.018   1.503   0.010  0.00  0.00     0.076 C 
ATOM     13  O1  <0> d           1.102  -0.775  -0.013  0.00  0.00    -0.318 OA
ENDBRANCH   6   8
ENDBRANCH   4   6
ENDBRANCH   1   4
BRANCH   1  14
ATOM     14  C8  <0> d           4.221  -5.320   0.577  0.00  0.00     0.079 A 
ATOM     15  C13 <0> d           5.531  -5.151   0.168  0.00  0.00     0.026 A 
ATOM     16  C12 <0> d           6.093  -6.034  -0.736  0.00  0.00     0.011 A 
ATOM     17  C11 <0> d           5.341  -7.080  -1.238  0.00  0.00    -0.028 A 
ATOM     18  C10 <0> d           4.030  -7.246  -0.833  0.00  0.00     0.011 A 
ATOM     19  C9  <0> d           3.470  -6.366   0.074  0.00  0.00     0.026 A 
BRANCH  17  20
ATOM     20  C14 <0> d           5.952  -8.040  -2.226  0.00  0.00     0.212 C 
ATOM     21  C15 <0> d           5.940  -7.413  -3.621  0.00  0.00     0.045 C 
BRANCH  20  22
ATOM     22  N2  <0> d           7.337  -8.332  -1.833  0.00  0.00    -0.071 N 
ATOM     23  H19 <0> d           7.345  -8.746  -0.912  0.00  0.00     0.275 HD
ATOM     24  H20 <0> d           7.746  -8.975  -2.494  0.00  0.00     0.275 HD
ATOM     25  H21 <0> d           7.871  -7.476  -1.821  0.00  0.00     0.275 HD
ENDBRANCH  20  22
ENDBRANCH  17  20
ENDBRANCH   1  14
TORSDOF 6
