REMARK  3 active torsions:
REMARK  status: ('A' for Active; 'I' for Inactive)
REMARK       I    between atoms: N1_2  and  C2_3 
REMARK    1  A    between atoms: C2_3  and  C3_5 
REMARK    2  A    between atoms: N2_7  and  S1_15 
REMARK    3  A    between atoms: S1_15  and  C11_18 
ROOT
ATOM      1  C3  <0> d           2.320   5.210   0.441  0.00  0.00     0.239 C 
ATOM      2  C4  <0> d           1.181   5.950  -0.275  0.00  0.00     0.184 C 
ATOM      3  N2  <0> d          -0.074   5.245   0.040  0.00  0.00    -0.266 N 
ATOM      4  C5  <0> d          -0.055   3.841   0.026  0.00  0.00     0.078 A 
ATOM      5  C6  <0> d          -1.245   3.130   0.031  0.00  0.00     0.033 A 
ATOM      6  C7  <0> d          -1.221   1.748   0.017  0.00  0.00     0.002 A 
ATOM      7  C8  <0> d          -0.013   1.076   0.008  0.00  0.00     0.003 A 
ATOM      8  C9  <0> d           1.177   1.780   0.000  0.00  0.00     0.039 A 
ATOM      9  C10 <0> d           1.163   3.167   0.009  0.00  0.00     0.097 A 
ATOM     10  O2  <0> d           2.337   3.851  -0.002  0.00  0.00    -0.332 OA
ENDROOT
BRANCH   3  11
ATOM     11  S1  <0> d          -1.459   6.079   0.397  0.00  0.00     0.266 S 
ATOM     12  O3  <0> d          -2.273   5.205   1.167  0.00  0.00    -0.200 OA
ATOM     13  O4  <0> d          -1.053   7.356   0.870  0.00  0.00    -0.200 OA
BRANCH  11  14
ATOM     14  C11 <0> d          -2.309   6.352  -1.122  0.00  0.00     0.097 A 
ATOM     15  C15 <0> d          -2.067   7.492  -1.864  0.00  0.00     0.143 A 
ATOM     16  N3  <0> d          -2.695   7.700  -3.005  0.00  0.00    -0.247 NA
ATOM     17  C14 <0> d          -3.581   6.843  -3.476  0.00  0.00     0.125 A 
ATOM     18  C13 <0> d          -3.879   5.682  -2.784  0.00  0.00     0.046 A 
ATOM     19 Cl1  <0> d          -4.382   7.176  -4.980  0.00  0.00    -0.062 Cl
ATOM     20  C12 <0> d          -3.234   5.427  -1.585  0.00  0.00     0.030 A 
ENDBRANCH  11  14
ENDBRANCH   3  11
BRANCH   1  21
ATOM     21  C2  <0> d           3.635   5.867   0.108  0.00  0.00     0.248 C 
ATOM     22  N1  <0> d           3.885   7.124   0.524  0.00  0.00    -0.363 N 
ATOM     23  C1  <0> d           5.163   7.763   0.201  0.00  0.00     0.149 C 
ATOM     24  H5  <0> d           3.218   7.607   1.037  0.00  0.00     0.162 HD
ATOM     25  O1  <0> d           4.469   5.263  -0.533  0.00  0.00    -0.271 OA
ENDBRANCH   1  21
TORSDOF 3
