REMARK  4 active torsions:
REMARK  status: ('A' for Active; 'I' for Inactive)
REMARK    1  A    between atoms: C7_8  and  N3_15 
REMARK    2  A    between atoms: C8_9  and  N2_12 
REMARK    3  A    between atoms: N3_15  and  C10_16 
REMARK    4  A    between atoms: C14_20  and  N4_21 
ROOT
ATOM      1  C1  <0> d           5.878   2.450  -1.288  0.00  0.00     0.021 A 
ATOM      2  C2  <0> d           4.566   2.560  -1.634  0.00  0.00     0.034 A 
ATOM      3  C3  <0> d           3.700   1.470  -1.441  0.00  0.00     0.069 A 
ATOM      4  C4  <0> d           4.213   0.273  -0.887  0.00  0.00     0.023 A 
ATOM      5  C5  <0> d           5.569   0.193  -0.542  0.00  0.00     0.035 A 
ATOM      6  C6  <0> d           6.381   1.270  -0.743  0.00  0.00     0.011 A 
ATOM      7 Br1  <0> d           8.210   1.161  -0.277  0.00  0.00    -0.051 Br
ATOM      8  C7  <0> d           3.338  -0.822  -0.694  0.00  0.00     0.076 A 
ATOM      9  C8  <0> d           2.011  -0.664  -1.061  0.00  0.00     0.147 A 
ATOM     10  C9  <0> d           1.585   0.543  -1.598  0.00  0.00     0.155 A 
ATOM     11  N1  <0> d           2.406   1.552  -1.773  0.00  0.00    -0.258 NA
ENDROOT
BRANCH   8  12
ATOM     12  N3  <0> d           3.793  -2.016  -0.155  0.00  0.00    -0.380 N 
ATOM     13  H7  <0> d           3.303  -2.441   0.566  0.00  0.00     0.160 HD
BRANCH  12  14
ATOM     14  C10 <0> d           5.016  -2.634  -0.674  0.00  0.00     0.112 C 
ATOM     15  C14 <0> d           4.687  -3.998  -1.315  0.00  0.00     0.206 C 
ATOM     16  C13 <0> d           4.970  -5.024  -0.188  0.00  0.00     0.035 C 
ATOM     17  C12 <0> d           6.228  -4.439   0.499  0.00  0.00     0.004 C 
ATOM     18  C11 <0> d           5.996  -2.914   0.479  0.00  0.00     0.027 C 
BRANCH  15  19
ATOM     19  N4  <0> d           3.275  -4.050  -1.717  0.00  0.00    -0.073 N 
ATOM     20  H14 <0> d           3.089  -3.319  -2.388  0.00  0.00     0.274 HD
ATOM     21  H15 <0> d           3.077  -4.947  -2.134  0.00  0.00     0.274 HD
ATOM     22  H16 <0> d           2.689  -3.920  -0.906  0.00  0.00     0.274 HD
ENDBRANCH  15  19
ENDBRANCH  12  14
ENDBRANCH   8  12
BRANCH   9  23
ATOM     23  N2  <0> d           1.052  -1.778  -0.881  0.00  0.00    -0.112 N 
ATOM     24  O1  <0> d          -0.068  -1.689  -1.327  0.00  0.00    -0.532 OA
ATOM     25  O2  <0> d           1.389  -2.776  -0.288  0.00  0.00    -0.532 OA
ENDBRANCH   9  23
TORSDOF 4
