REMARK  4 active torsions:
REMARK  status: ('A' for Active; 'I' for Inactive)
REMARK    1  A    between atoms: C2_2  and  C5_5 
REMARK    2  A    between atoms: C5_5  and  C6_6 
REMARK    3  A    between atoms: C5_5  and  N2_21 
REMARK    4  A    between atoms: C7_8  and  C9_11 
ROOT
ATOM      1  C6  <0> d           2.132   0.024  -1.268  0.00  0.00     0.106 A 
ATOM      2  N1  <0> d           2.632   0.993  -1.989  0.00  0.00    -0.243 NA
ATOM      3  C7  <0> d           3.907   1.342  -1.887  0.00  0.00     0.074 A 
ATOM      4  C8  <0> d           4.663   0.636  -0.990  0.00  0.00     0.084 A 
ATOM      5  S1  <0> d           3.442  -0.496  -0.348  0.00  0.00    -0.082 SA
ENDROOT
BRANCH   3   6
ATOM      6  C9  <0> d           4.483   2.439  -2.702  0.00  0.00    -0.004 A 
ATOM      7  C14 <0> d           5.849   2.709  -2.644  0.00  0.00     0.053 A 
ATOM      8  C13 <0> d           6.386   3.731  -3.409  0.00  0.00     0.103 A 
ATOM      9  C12 <0> d           5.559   4.492  -4.229  0.00  0.00     0.102 A 
ATOM     10  O1  <0> d           7.722   3.984  -3.340  0.00  0.00    -0.346 OA
ATOM     11  C11 <0> d           4.198   4.226  -4.282  0.00  0.00     0.040 A 
ATOM     12  O2  <0> d           6.070   5.500  -4.988  0.00  0.00    -0.346 OA
ATOM     13  C10 <0> d           3.659   3.207  -3.524  0.00  0.00     0.017 A 
ATOM     14  C16 <0> d           7.369   5.983  -4.628  0.00  0.00     0.202 C 
ATOM     15  C15 <0> d           8.283   4.773  -4.394  0.00  0.00     0.202 C 
ENDBRANCH   3   6
BRANCH   1  16
ATOM     16  C5  <0> d           0.718  -0.497  -1.257  0.00  0.00     0.249 C 
BRANCH  16  17
ATOM     17  C2  <0> d           0.002  -0.004   0.002  0.00  0.00    -0.017 C 
ATOM     18  C1  <0> d          -0.019   1.526   0.010  0.00  0.00     0.017 C 
ATOM     19  C3  <0> d           0.742  -0.511   1.242  0.00  0.00     0.017 C 
ATOM     20  C4  <0> d          -1.433  -0.534   0.013  0.00  0.00     0.017 C 
ENDBRANCH  16  17
BRANCH  16  21
ATOM     21  N2  <0> d           0.738  -1.966  -1.265  0.00  0.00    -0.068 N 
ATOM     22  H19 <0> d           1.210  -2.292  -2.095  0.00  0.00     0.275 HD
ATOM     23  H20 <0> d           1.226  -2.301  -0.447  0.00  0.00     0.275 HD
ATOM     24  H21 <0> d          -0.208  -2.316  -1.258  0.00  0.00     0.275 HD
ENDBRANCH  16  21
ENDBRANCH   1  16
TORSDOF 4
