REMARK  3 active torsions:
REMARK  status: ('A' for Active; 'I' for Inactive)
REMARK    1  A    between atoms: O1_2  and  C2_3 
REMARK    2  A    between atoms: C5_6  and  N1_9 
REMARK    3  A    between atoms: C10_13  and  C11_14 
ROOT
ATOM      1  N1  <0> d          -0.037   0.018   0.520  0.00  0.00    -0.229 N 
ATOM      2  C8  <0> d          -1.150  -0.683   0.218  0.00  0.00     0.272 A 
ATOM      3  O2  <0> d          -2.117  -0.135  -0.278  0.00  0.00    -0.266 OA
ATOM      4  C9  <0> d          -1.161  -2.127   0.502  0.00  0.00     0.102 A 
ATOM      5  C10 <0> d          -2.272  -2.915   0.213  0.00  0.00     0.041 C 
ATOM      6  C15 <0> d           0.051  -2.702   1.109  0.00  0.00     0.265 A 
ATOM      7  O3  <0> d           0.114  -3.888   1.375  0.00  0.00    -0.267 OA
ATOM      8  N2  <0> d           1.090  -1.879   1.361  0.00  0.00    -0.274 N 
ATOM      9  C16 <0> d           1.033  -0.572   1.073  0.00  0.00     0.337 A 
ATOM     10  O4  <0> d           2.003   0.116   1.325  0.00  0.00    -0.246 OA
ATOM     11  H11 <0> d           1.896  -2.243   1.760  0.00  0.00     0.173 HD
ENDROOT
BRANCH   1  12
ATOM     12  C5  <0> d          -0.001   1.395   0.256  0.00  0.00     0.047 A 
ATOM     13  C4  <0> d           0.071   2.302   1.305  0.00  0.00     0.033 A 
ATOM     14  C3  <0> d           0.107   3.657   1.044  0.00  0.00     0.039 A 
ATOM     15  C2  <0> d           0.071   4.113  -0.266  0.00  0.00     0.068 A 
ATOM     16  C7  <0> d          -0.001   3.207  -1.314  0.00  0.00     0.039 A 
ATOM     17  C6  <0> d          -0.031   1.851  -1.055  0.00  0.00     0.033 A 
BRANCH  15  18
ATOM     18  O1  <0> d           0.105   5.448  -0.522  0.00  0.00    -0.356 OA
ATOM     19  C1  <0> d           0.065   5.846  -1.894  0.00  0.00     0.210 C 
ENDBRANCH  15  18
ENDBRANCH   1  12
BRANCH   5  20
ATOM     20  C11 <0> d          -2.185  -4.311   0.307  0.00  0.00     0.007 A 
ATOM     21  S1  <0> d          -0.897  -5.399  -0.275  0.00  0.00    -0.083 SA
ATOM     22  C14 <0> d          -1.576  -6.908   0.242  0.00  0.00     0.052 A 
ATOM     23  C13 <0> d          -2.752  -6.538   0.828  0.00  0.00     0.028 A 
ATOM     24 Br1  <0> d          -0.864  -8.648   0.037  0.00  0.00    -0.043 Br
ATOM     25  C12 <0> d          -3.088  -5.214   0.875  0.00  0.00     0.021 A 
ENDBRANCH   5  20
TORSDOF 3
