REMARK  2 active torsions:
REMARK  status: ('A' for Active; 'I' for Inactive)
REMARK    1  A    between atoms: C7_8  and  C11_15 
REMARK    2  A    between atoms: C9_10  and  N1_12 
ROOT
ATOM      1  C1  <0> d          -6.033   1.562   0.922  0.00  0.00     0.022 A 
ATOM      2  C2  <0> d          -4.864   0.890   0.626  0.00  0.00     0.039 A 
ATOM      3  C3  <0> d          -3.706   1.601   0.337  0.00  0.00     0.085 A 
ATOM      4  C4  <0> d          -3.728   2.987   0.347  0.00  0.00    -0.011 A 
ATOM      5  C5  <0> d          -4.902   3.656   0.645  0.00  0.00     0.029 A 
ATOM      6  C6  <0> d          -6.053   2.945   0.933  0.00  0.00     0.011 A 
ATOM      7 Br1  <0> d          -7.655   3.864   1.339  0.00  0.00    -0.051 Br
ATOM      8  C7  <0> d          -2.485   3.776   0.035  0.00  0.00     0.101 C 
ATOM      9  C8  <0> d          -1.272   2.897   0.148  0.00  0.00     0.084 C 
ATOM     10  C9  <0> d          -1.377   1.547   0.143  0.00  0.00     0.159 C 
ATOM     11  O1  <0> d          -2.566   0.927   0.048  0.00  0.00    -0.293 OA
ATOM     12  C10 <0> d           0.023   3.498   0.258  0.00  0.00     0.100 C 
ATOM     13  N2  <0> d           1.050   3.975   0.346  0.00  0.00    -0.191 NA
ENDROOT
BRANCH   8  14
ATOM     14  C11 <0> d          -2.359   4.936   1.025  0.00  0.00     0.213 C 
ATOM     15  C12 <0> d          -2.114   4.404   2.376  0.00  0.00     0.079 C 
ATOM     16  N3  <0> d          -1.925   3.994   3.418  0.00  0.00    -0.196 NA
ATOM     17  C13 <0> d          -1.236   5.801   0.627  0.00  0.00     0.079 C 
ATOM     18  N4  <0> d          -0.369   6.468   0.320  0.00  0.00    -0.196 NA
ENDBRANCH   8  14
BRANCH  10  19
ATOM     19  N1  <0> d          -0.237   0.789   0.244  0.00  0.00    -0.379 N 
ATOM     20  H5  <0> d          -0.297  -0.179   0.245  0.00  0.00     0.158 HD
ATOM     21  H6  <0> d           0.628   1.222   0.309  0.00  0.00     0.158 HD
ENDBRANCH  10  19
TORSDOF 2
