REMARK  5 active torsions:
REMARK  status: ('A' for Active; 'I' for Inactive)
REMARK    1  A    between atoms: C2_2  and  C3_3 
REMARK    2  A    between atoms: C2_2  and  N3_17 
REMARK    3  A    between atoms: C3_3  and  C4_4 
REMARK    4  A    between atoms: C3_3  and  S1_11 
REMARK    5  A    between atoms: S1_11  and  C10_12 
ROOT
ATOM      1  C3  <0> d           0.843  -0.525   1.171  0.00  0.00     0.117 C 
ENDROOT
BRANCH   1   2
ATOM      2  C2  <0> d          -0.030  -0.063   0.002  0.00  0.00     0.198 C 
ATOM      3  C1  <0> d          -0.155   1.461   0.029  0.00  0.00     0.041 C 
BRANCH   2   4
ATOM      4  N3  <0> d           0.585  -0.482  -1.264  0.00  0.00    -0.074 N 
ATOM      5  H11 <0> d           1.502  -0.068  -1.346  0.00  0.00     0.274 HD
ATOM      6  H12 <0> d           0.667  -1.488  -1.282  0.00  0.00     0.274 HD
ATOM      7  H13 <0> d           0.009  -0.178  -2.035  0.00  0.00     0.274 HD
ENDBRANCH   2   4
ENDBRANCH   1   2
BRANCH   1   8
ATOM      8  C4  <0> d           1.010  -2.021   1.113  0.00  0.00    -0.041 A 
ATOM      9  C9  <0> d           2.272  -2.571   0.992  0.00  0.00     0.027 A 
ATOM     10  C8  <0> d           2.426  -3.946   0.944  0.00  0.00     0.011 A 
ATOM     11  C7  <0> d           1.315  -4.768   1.006  0.00  0.00     0.019 A 
ATOM     12 Br1  <0> d           4.153  -4.699   0.788  0.00  0.00    -0.051 Br
ATOM     13  C6  <0> d           0.053  -4.216   1.121  0.00  0.00     0.002 A 
ATOM     14  C5  <0> d          -0.100  -2.844   1.174  0.00  0.00     0.008 A 
ENDBRANCH   1   8
BRANCH   1  15
ATOM     15  S1  <0> d           0.051  -0.065   2.736  0.00  0.00    -0.089 SA
BRANCH  15  16
ATOM     16  C10 <0> d           1.261  -0.454   3.957  0.00  0.00     0.158 A 
ATOM     17  S2  <0> d           1.247  -0.170   5.724  0.00  0.00    -0.052 SA
ATOM     18  C11 <0> d           2.853  -0.892   6.045  0.00  0.00     0.193 A 
ATOM     19  N2  <0> d           3.197  -1.241   4.821  0.00  0.00    -0.154 NA
ATOM     20  N1  <0> d           2.446  -1.036   3.829  0.00  0.00    -0.136 NA
ENDBRANCH  15  16
ENDBRANCH   1  15
TORSDOF 5
