REMARK  6 active torsions:
REMARK  status: ('A' for Active; 'I' for Inactive)
REMARK    1  A    between atoms: C2_2  and  N1_3 
REMARK    2  A    between atoms: C4_5  and  S1_8 
REMARK    3  A    between atoms: S1_8  and  N3_11 
REMARK    4  A    between atoms: N3_11  and  C6_12 
REMARK    5  A    between atoms: C6_12  and  C7_13 
REMARK    6  A    between atoms: C7_13  and  C8_14 
ROOT
ATOM      1  N3  <0> d          -4.203  -4.144  -0.684  0.00  0.00    -0.315 N 
ATOM      2  H8  <0> d          -3.878  -4.885  -1.219  0.00  0.00     0.172 HD
ENDROOT
BRANCH   1   3
ATOM      3  S1  <0> d          -4.340  -2.636  -1.354  0.00  0.00     0.261 S 
ATOM      4  O1  <0> d          -5.638  -2.161  -1.024  0.00  0.00    -0.200 OA
ATOM      5  O2  <0> d          -3.887  -2.746  -2.696  0.00  0.00    -0.200 OA
BRANCH   3   6
ATOM      6  C4  <0> d          -3.194  -1.589  -0.520  0.00  0.00     0.115 A 
ATOM      7  C3  <0> d          -1.907  -1.373  -0.878  0.00  0.00     0.139 A 
ATOM      8  N1  <0> d          -1.372  -0.511   0.012  0.00  0.00    -0.280 N 
ATOM      9  N2  <0> d          -2.361  -0.192   0.952  0.00  0.00    -0.184 NA
ATOM     10  C5  <0> d          -3.455  -0.834   0.628  0.00  0.00     0.165 A 
BRANCH   8  11
ATOM     11  C2  <0> d           0.002  -0.004   0.002  0.00  0.00     0.146 C 
ATOM     12  C1  <0> d          -0.019   1.526   0.010  0.00  0.00     0.028 C 
ENDBRANCH   8  11
ENDBRANCH   3   6
ENDBRANCH   1   3
BRANCH   1  13
ATOM     13  C6  <0> d          -4.572  -4.359   0.718  0.00  0.00     0.137 C 
BRANCH  13  14
ATOM     14  C7  <0> d          -4.715  -5.859   0.983  0.00  0.00     0.061 C 
BRANCH  14  15
ATOM     15  C8  <0> d          -5.094  -6.080   2.425  0.00  0.00    -0.027 A 
ATOM     16  C11 <0> d          -6.446  -6.050   2.985  0.00  0.00     0.018 A 
ATOM     17  C10 <0> d          -6.308  -6.313   4.362  0.00  0.00     0.139 A 
ATOM     18  C12 <0> d          -7.719  -5.833   2.452  0.00  0.00     0.017 A 
ATOM     19  N4  <0> d          -4.965  -6.478   4.605  0.00  0.00    -0.345 N 
ATOM     20  N5  <0> d          -7.383  -6.353   5.138  0.00  0.00    -0.242 NA
ATOM     21  C9  <0> d          -4.257  -6.336   3.442  0.00  0.00     0.100 A 
ATOM     22  C15 <0> d          -4.378  -6.764   5.917  0.00  0.00     0.157 C 
ATOM     23  C14 <0> d          -8.590  -6.144   4.657  0.00  0.00     0.119 A 
ATOM     24  C13 <0> d          -8.800  -5.884   3.312  0.00  0.00     0.020 A 
ENDBRANCH  14  15
ENDBRANCH  13  14
ENDBRANCH   1  13
TORSDOF 6
