REMARK  3 active torsions:
REMARK  status: ('A' for Active; 'I' for Inactive)
REMARK    1  A    between atoms: C4_4  and  S1_8 
REMARK    2  A    between atoms: C6_6  and  N1_7 
REMARK    3  A    between atoms: S1_8  and  N2_11 
ROOT
ATOM      1  C1  <0> d          -0.017   1.384   0.010  0.00  0.00     0.032 A 
ATOM      2  C2  <0> d           1.171   2.090   0.002  0.00  0.00     0.046 A 
ATOM      3  C3  <0> d           2.379   1.414  -0.013  0.00  0.00     0.139 A 
ATOM      4  C4  <0> d           2.400   0.030  -0.021  0.00  0.00     0.120 A 
ATOM      5  C5  <0> d           1.215  -0.680  -0.014  0.00  0.00     0.057 A 
ATOM      6  C6  <0> d           0.002  -0.004   0.002  0.00  0.00     0.027 A 
ATOM      7  F1  <0> d           3.539   2.107  -0.020  0.00  0.00    -0.204 F 
ENDROOT
BRANCH   4   8
ATOM      8  S1  <0> d           3.939  -0.827  -0.041  0.00  0.00     0.264 S 
ATOM      9  O1  <0> d           4.740  -0.248   0.980  0.00  0.00    -0.200 OA
ATOM     10  O2  <0> d           3.632  -2.214  -0.073  0.00  0.00    -0.200 OA
BRANCH   8  11
ATOM     11  N2  <0> d           4.678  -0.473  -1.480  0.00  0.00    -0.302 N 
ATOM     12  C11 <0> d           5.608   0.662  -1.748  0.00  0.00     0.096 C 
ATOM     13  C10 <0> d           4.782   1.627  -2.696  0.00  0.00     0.026 C 
ATOM     14  C12 <0> d           6.593   0.005  -2.783  0.00  0.00     0.032 C 
ATOM     15  C9  <0> d           4.711   0.869  -4.042  0.00  0.00     0.008 C 
ATOM     16  C8  <0> d           5.462  -0.471  -3.764  0.00  0.00     0.006 C 
ATOM     17  C7  <0> d           4.540  -1.216  -2.750  0.00  0.00     0.140 C 
ENDBRANCH   8  11
ENDBRANCH   4   8
BRANCH   6  18
ATOM     18  N1  <0> d          -1.198  -0.721   0.010  0.00  0.00    -0.399 N 
ATOM     19  H6  <0> d          -2.046  -0.248   0.021  0.00  0.00     0.156 HD
ATOM     20  H7  <0> d          -1.185  -1.690   0.005  0.00  0.00     0.156 HD
ENDBRANCH   6  18
TORSDOF 3
