REMARK  5 active torsions:
REMARK  status: ('A' for Active; 'I' for Inactive)
REMARK    1  A    between atoms: C4_5  and  C11_15 
REMARK    2  A    between atoms: C6_7  and  N2_8 
REMARK    3  A    between atoms: C11_15  and  S1_16 
REMARK    4  A    between atoms: S1_16  and  C12_18 
REMARK    5  A    between atoms: C16_23  and  O3_27 
ROOT
ATOM      1  C1  <0> d          -0.018   1.503   0.010  0.00  0.00     0.052 C 
ATOM      2  C2  <0> d           0.002  -0.004   0.002  0.00  0.00    -0.018 A 
ATOM      3  C3  <0> d           0.006  -0.697  -1.191  0.00  0.00     0.097 A 
ATOM      4  N1  <0> d           0.024  -2.016  -1.208  0.00  0.00    -0.366 N 
ATOM      5  C4  <0> d           0.038  -2.728  -0.096  0.00  0.00     0.045 A 
ATOM      6  C5  <0> d           0.036  -2.112   1.139  0.00  0.00     0.084 A 
ATOM      7  C6  <0> d           0.023  -0.717   1.200  0.00  0.00     0.061 A 
ATOM      8 Cl1  <0> d           0.055  -3.057   2.595  0.00  0.00    -0.080 Cl
ATOM      9  H21 <0> d           0.026  -2.477  -2.061  0.00  0.00     0.165 HD
ENDROOT
BRANCH   5  10
ATOM     10  C11 <0> d           0.058  -4.233  -0.176  0.00  0.00     0.176 C 
BRANCH  10  11
ATOM     11  S1  <0> d           1.776  -4.814  -0.216  0.00  0.00     0.091 S 
ATOM     12  O2  <0> d           2.369  -4.452  -1.456  0.00  0.00    -0.249 OA
BRANCH  11  13
ATOM     13  C12 <0> d           1.631  -6.567  -0.309  0.00  0.00     0.198 A 
ATOM     14  N4  <0> d           1.560  -7.285  -1.464  0.00  0.00    -0.331 N 
ATOM     15  C18 <0> d           1.458  -8.616  -1.115  0.00  0.00     0.066 A 
ATOM     16  H22 <0> d           1.581  -6.926  -2.365  0.00  0.00     0.168 HD
ATOM     17  C13 <0> d           1.461  -8.651   0.290  0.00  0.00     0.086 A 
ATOM     18  C17 <0> d           1.358  -9.799  -1.835  0.00  0.00     0.068 A 
ATOM     19  N3  <0> d           1.570  -7.365   0.717  0.00  0.00    -0.221 NA
ATOM     20  C14 <0> d           1.363  -9.879   0.950  0.00  0.00     0.037 A 
ATOM     21  C15 <0> d           1.264 -11.034   0.229  0.00  0.00     0.039 A 
ATOM     22  C16 <0> d           1.261 -11.003  -1.163  0.00  0.00     0.070 A 
BRANCH  22  23
ATOM     23  O3  <0> d           1.162 -12.163  -1.865  0.00  0.00    -0.356 OA
ATOM     24  C19 <0> d           1.066 -13.373  -1.110  0.00  0.00     0.210 C 
ENDBRANCH  22  23
ENDBRANCH  11  13
ENDBRANCH  10  11
ENDBRANCH   5  10
BRANCH   7  25
ATOM     25  N2  <0> d           0.026  -0.056   2.425  0.00  0.00    -0.375 N 
ATOM     26  C10 <0> d          -1.233   0.287   3.104  0.00  0.00     0.149 C 
ATOM     27  C9  <0> d          -1.193   1.766   3.489  0.00  0.00     0.187 C 
ATOM     28  O1  <0> d           0.011   2.034   4.211  0.00  0.00    -0.388 OA
ATOM     29  C8  <0> d           1.207   1.808   3.460  0.00  0.00     0.187 C 
ATOM     30  C7  <0> d           1.289   0.326   3.076  0.00  0.00     0.149 C 
ENDBRANCH   7  25
TORSDOF 5
