REMARK  6 active torsions:
REMARK  status: ('A' for Active; 'I' for Inactive)
REMARK    1  A    between atoms: C2_2  and  C4_4 
REMARK    2  A    between atoms: C4_4  and  C5_5 
REMARK    3  A    between atoms: C5_5  and  C6_6 
REMARK    4  A    between atoms: C5_5  and  N1_9 
REMARK       I    between atoms: N1_9  and  C7_10 
REMARK       I    between atoms: C7_10  and  N2_12 
REMARK    5  A    between atoms: N2_12  and  C8_13 
REMARK    6  A    between atoms: C8_13  and  C9_14 
ROOT
ATOM      1  N1  <0> d           2.854  -0.750  -0.092  0.00  0.00    -0.329 N 
ATOM      2  C7  <0> d           3.949  -0.202   0.471  0.00  0.00     0.316 C 
ATOM      3  O3  <0> d           4.384   0.854   0.053  0.00  0.00    -0.247 OA
ATOM      4  N2  <0> d           4.562  -0.825   1.497  0.00  0.00    -0.343 N 
ATOM      5  H12 <0> d           2.507  -1.592   0.242  0.00  0.00     0.165 HD
ATOM      6  H13 <0> d           4.215  -1.667   1.831  0.00  0.00     0.164 HD
ENDROOT
BRANCH   1   7
ATOM      7  C5  <0> d           2.187  -0.073  -1.207  0.00  0.00     0.187 C 
BRANCH   7   8
ATOM      8  C4  <0> d           0.718  -0.497  -1.257  0.00  0.00     0.040 C 
BRANCH   8   9
ATOM      9  C2  <0> d           0.002  -0.004   0.002  0.00  0.00    -0.020 C 
ATOM     10  C1  <0> d          -0.019   1.526   0.010  0.00  0.00     0.009 C 
ATOM     11  C3  <0> d          -1.433  -0.534   0.013  0.00  0.00     0.009 C 
ENDBRANCH   8   9
ENDBRANCH   7   8
BRANCH   7  12
ATOM     12  C6  <0> d           2.863  -0.451  -2.500  0.00  0.00     0.196 C 
ATOM     13  O1  <0> d           2.584   0.140  -3.529  0.00  0.00    -0.646 OA
ATOM     14  O2  <0> d           3.689  -1.348  -2.517  0.00  0.00    -0.646 OA
ENDBRANCH   7  12
ENDBRANCH   1   7
BRANCH   4  15
ATOM     15  C8  <0> d           5.753  -0.229   2.109  0.00  0.00     0.130 C 
BRANCH  15  16
ATOM     16  C9  <0> d           6.248  -1.130   3.242  0.00  0.00     0.029 C 
ATOM     17  C13 <0> d           7.560  -0.574   3.801  0.00  0.00     0.240 C 
ATOM     18  N3  <0> d           8.036  -1.434   4.891  0.00  0.00    -0.074 N 
ATOM     19  C12 <0> d           7.068  -1.421   5.995  0.00  0.00     0.234 C 
ATOM     20  C14 <0> d           9.332  -0.939   5.372  0.00  0.00     0.269 C 
ATOM     21  H27 <0> d           8.143  -2.377   4.550  0.00  0.00     0.279 HD
ATOM     22  C11 <0> d           5.739  -2.011   5.520  0.00  0.00     0.028 C 
ATOM     23  C10 <0> d           5.200  -1.171   4.358  0.00  0.00     0.009 C 
ENDBRANCH  15  16
ENDBRANCH   4  15
TORSDOF 6
