REMARK  7 active torsions:
REMARK  status: ('A' for Active; 'I' for Inactive)
REMARK    1  A    between atoms: C5_5  and  N2_15 
REMARK    2  A    between atoms: C6_6  and  O1_8 
REMARK    3  A    between atoms: O1_8  and  C8_9 
REMARK    4  A    between atoms: C8_9  and  C9_10 
REMARK       I    between atoms: C9_10  and  N1_12 
REMARK       I    between atoms: N2_15  and  C12_16 
REMARK    5  A    between atoms: C12_16  and  C13_18 
REMARK       I    between atoms: C13_18  and  N3_20 
REMARK    6  A    between atoms: N3_20  and  C14_21 
REMARK    7  A    between atoms: C14_21  and  C15_22 
ROOT
ATOM      1  N2  <0> d           0.057  -4.173  -0.031  0.00  0.00    -0.317 N 
ATOM      2  C12 <0> d           0.554  -4.832  -1.097  0.00  0.00     0.314 C 
ATOM      3  O3  <0> d           1.067  -4.214  -2.007  0.00  0.00    -0.262 OA
ATOM      4  H15 <0> d          -0.281  -4.668   0.731  0.00  0.00     0.169 HD
ENDROOT
BRANCH   1   5
ATOM      5  C5  <0> d           0.029  -2.774  -0.024  0.00  0.00     0.068 A 
ATOM      6  C4  <0> d           0.007  -2.073  -1.222  0.00  0.00     0.033 A 
ATOM      7  C3  <0> d          -0.021  -0.691  -1.212  0.00  0.00     0.009 A 
ATOM      8  C2  <0> d          -0.028  -0.004  -0.012  0.00  0.00    -0.059 A 
ATOM      9  C1  <0> d          -0.060   1.502  -0.009  0.00  0.00     0.048 C 
ATOM     10  C7  <0> d          -0.001  -0.696   1.185  0.00  0.00     0.046 A 
ATOM     11  C6  <0> d           0.022  -2.081   1.185  0.00  0.00     0.096 A 
BRANCH  11  12
ATOM     12  O1  <0> d           0.044  -2.763   2.361  0.00  0.00    -0.340 OA
BRANCH  12  13
ATOM     13  C8  <0> d           0.036  -1.986   3.561  0.00  0.00     0.278 C 
BRANCH  13  14
ATOM     14  C9  <0> d           0.062  -2.906   4.754  0.00  0.00     0.243 C 
ATOM     15  O2  <0> d           0.086  -4.108   4.593  0.00  0.00    -0.271 OA
ATOM     16  N1  <0> d           0.059  -2.393   6.001  0.00  0.00    -0.359 N 
ATOM     17  C10 <0> d           0.085  -3.287   7.161  0.00  0.00     0.152 C 
ATOM     18  C11 <0> d           0.031  -0.941   6.195  0.00  0.00     0.152 C 
ENDBRANCH  13  14
ENDBRANCH  12  13
ENDBRANCH  11  12
ENDBRANCH   1   5
BRANCH   2  19
ATOM     19  C13 <0> d           0.471  -6.321  -1.159  0.00  0.00     0.309 C 
ATOM     20  O4  <0> d          -0.042  -6.939  -0.249  0.00  0.00    -0.262 OA
ATOM     21  N3  <0> d           0.968  -6.980  -2.224  0.00  0.00    -0.349 N 
ATOM     22  H16 <0> d           1.379  -6.487  -2.951  0.00  0.00     0.163 HD
BRANCH  21  23
ATOM     23  C14 <0> d           0.887  -8.442  -2.285  0.00  0.00     0.166 C 
BRANCH  23  24
ATOM     24  C15 <0> d           1.509  -8.927  -3.569  0.00  0.00     0.017 A 
ATOM     25  C17 <0> d           2.803  -9.255  -3.746  0.00  0.00     0.085 A 
ATOM     26  O5  <0> d           2.962  -9.640  -5.021  0.00  0.00    -0.217 OA
ATOM     27  C18 <0> d           3.882  -9.202  -2.695  0.00  0.00     0.079 C 
ATOM     28  N4  <0> d           1.706  -9.537  -5.667  0.00  0.00    -0.133 NA
ATOM     29  C16 <0> d           0.840  -9.109  -4.793  0.00  0.00     0.068 A 
ATOM     30  C19 <0> d          -0.623  -8.855  -5.048  0.00  0.00     0.073 C 
ENDBRANCH  23  24
ENDBRANCH  21  23
ENDBRANCH   2  19
TORSDOF 7
