REMARK  9 active torsions:
REMARK  status: ('A' for Active; 'I' for Inactive)
REMARK    1  A    between atoms: C2_2  and  C4_4 
REMARK    2  A    between atoms: C4_4  and  C5_5 
REMARK    3  A    between atoms: C4_4  and  N4_24 
REMARK    4  A    between atoms: C11_14  and  C12_15 
REMARK    5  A    between atoms: C11_14  and  N5_32 
REMARK    6  A    between atoms: C15_18  and  O2_23 
REMARK    7  A    between atoms: C17_20  and  O1_21 
REMARK       I    between atoms: N4_24  and  C19_25 
REMARK    8  A    between atoms: C19_25  and  C20_27 
REMARK    9  A    between atoms: C20_27  and  O4_28 
ROOT
ATOM      1  C5  <0> d           7.918   6.896   2.434  0.00  0.00     0.153 A 
ATOM      2  N1  <0> d           7.325   7.886   3.048  0.00  0.00    -0.133 NA
ATOM      3  N2  <0> d           6.122   8.014   2.607  0.00  0.00    -0.135 NA
ATOM      4  C6  <0> d           5.898   7.118   1.690  0.00  0.00     0.131 A 
ATOM      5  N3  <0> d           7.024   6.373   1.568  0.00  0.00    -0.317 N 
ATOM      6  C7  <0> d           7.203   5.223   0.682  0.00  0.00     0.159 C 
ATOM      7  C8  <0> d           6.283   5.375  -0.533  0.00  0.00     0.255 C 
ATOM      8  C9  <0> d           4.297   5.421   0.874  0.00  0.00     0.243 C 
ATOM      9  C10 <0> d           4.639   6.915   0.887  0.00  0.00     0.108 C 
ATOM     10  N5  <0> d           4.956   4.768  -0.278  0.00  0.00    -0.065 N 
ATOM     11  H32 <0> d           4.369   4.896  -1.111  0.00  0.00     0.280 HD
ENDROOT
BRANCH  10  12
ATOM     12  C11 <0> d           5.106   3.325  -0.017  0.00  0.00     0.276 C 
BRANCH  12  13
ATOM     13  C12 <0> d           3.738   2.693  -0.012  0.00  0.00     0.001 A 
ATOM     14  C17 <0> d           3.100   2.411  -1.212  0.00  0.00     0.078 A 
ATOM     15  C16 <0> d           1.841   1.830  -1.206  0.00  0.00     0.073 A 
ATOM     16  C15 <0> d           1.223   1.532  -0.001  0.00  0.00     0.068 A 
ATOM     17  C14 <0> d           1.862   1.822   1.196  0.00  0.00     0.037 A 
ATOM     18  C13 <0> d           3.119   2.396   1.188  0.00  0.00     0.014 A 
BRANCH  14  19
ATOM     19  O1  <0> d           3.709   2.703  -2.391  0.00  0.00    -0.355 OA
ATOM     20  C18 <0> d           2.994   2.384  -3.586  0.00  0.00     0.210 C 
ENDBRANCH  14  19
BRANCH  16  21
ATOM     21  O2  <0> d          -0.011   0.963   0.007  0.00  0.00    -0.361 OA
ATOM     22  H25 <0> d           0.002  -0.004   0.002  0.00  0.00     0.217 HD
ENDBRANCH  16  21
ENDBRANCH  12  13
ENDBRANCH  10  12
BRANCH   1  23
ATOM     23  C4  <0> d           9.333   6.425   2.653  0.00  0.00     0.159 C 
BRANCH  23  24
ATOM     24  C2  <0> d          10.304   7.409   1.997  0.00  0.00     0.008 C 
ATOM     25  C1  <0> d          11.741   6.931   2.219  0.00  0.00     0.012 C 
ATOM     26  C3  <0> d          10.018   7.484   0.496  0.00  0.00     0.012 C 
ENDBRANCH  23  24
BRANCH  23  27
ATOM     27  N4  <0> d           9.607   6.353   4.090  0.00  0.00    -0.347 N 
ATOM     28  C19 <0> d          10.560   5.520   4.553  0.00  0.00     0.241 C 
ATOM     29  O3  <0> d          11.191   4.831   3.780  0.00  0.00    -0.271 OA
ATOM     30  H26 <0> d           9.103   6.904   4.708  0.00  0.00     0.163 HD
BRANCH  28  31
ATOM     31  C20 <0> d          10.842   5.446   6.032  0.00  0.00     0.269 C 
BRANCH  31  32
ATOM     32  O4  <0> d          11.886   4.499   6.271  0.00  0.00    -0.387 OA
ATOM     33  C21 <0> d          12.232   4.351   7.649  0.00  0.00     0.202 C 
ENDBRANCH  31  32
ENDBRANCH  28  31
ENDBRANCH  23  27
ENDBRANCH   1  23
TORSDOF 9
