REMARK  4 active torsions:
REMARK  status: ('A' for Active; 'I' for Inactive)
REMARK    1  A    between atoms: O1_2  and  C2_3 
REMARK    2  A    between atoms: C2_3  and  C3_4 
REMARK    3  A    between atoms: C4_7  and  C5_9 
REMARK    4  A    between atoms: C7_11  and  C8_14 
ROOT
ATOM      1  C5  <0> d          -2.070  -5.105   1.246  0.00  0.00     0.207 A 
ATOM      2  C6  <0> d          -1.460  -6.495   1.253  0.00  0.00     0.041 A 
ATOM      3  C7  <0> d          -2.527  -7.317   1.240  0.00  0.00     0.090 A 
ATOM      4  N3  <0> d          -3.680  -6.597   1.226  0.00  0.00    -0.154 NA
ATOM      5  N4  <0> d          -3.518  -5.371   1.230  0.00  0.00    -0.179 NA
ENDROOT
BRANCH   1   6
ATOM      6  C4  <0> d          -1.648  -4.337  -0.008  0.00  0.00     0.285 A 
ATOM      7  O2  <0> d          -0.227  -4.126  -0.013  0.00  0.00    -0.226 OA
ATOM      8  N1  <0> d          -0.033  -2.724  -0.007  0.00  0.00    -0.116 NA
ATOM      9  C3  <0> d          -1.156  -2.103   0.002  0.00  0.00     0.153 A 
ATOM     10  N2  <0> d          -2.216  -2.979   0.007  0.00  0.00    -0.344 N 
ATOM     11  H8  <0> d          -3.158  -2.747   0.017  0.00  0.00     0.163 HD
BRANCH   9  12
ATOM     12  C2  <0> d          -1.295  -0.603   0.011  0.00  0.00     0.247 C 
BRANCH  12  13
ATOM     13  O1  <0> d           0.002  -0.004   0.002  0.00  0.00    -0.388 OA
ATOM     14  C1  <0> d          -0.017   1.425   0.010  0.00  0.00     0.202 C 
ENDBRANCH  12  13
ENDBRANCH   9  12
ENDBRANCH   1   6
BRANCH   3  15
ATOM     15  C8  <0> d          -2.455  -8.799   1.240  0.00  0.00     0.033 A 
ATOM     16  C13 <0> d          -1.216  -9.440   1.255  0.00  0.00     0.129 A 
ATOM     17  C12 <0> d          -1.156 -10.821   1.260  0.00  0.00     0.043 A 
ATOM     18  F1  <0> d          -0.077  -8.713   1.269  0.00  0.00    -0.205 F 
ATOM     19  C11 <0> d          -2.321 -11.566   1.239  0.00  0.00     0.003 A 
ATOM     20  C10 <0> d          -3.552 -10.934   1.219  0.00  0.00     0.001 A 
ATOM     21  C9  <0> d          -3.625  -9.556   1.220  0.00  0.00     0.017 A 
ENDBRANCH   3  15
TORSDOF 4
