REMARK  3 active torsions:
REMARK  status: ('A' for Active; 'I' for Inactive)
REMARK    1  A    between atoms: C2_2  and  N2_18 
REMARK    2  A    between atoms: C5_5  and  S1_8 
REMARK    3  A    between atoms: S1_8  and  N1_11 
ROOT
ATOM      1  C1  <0> d          -0.017   1.378   0.010  0.00  0.00     0.049 A 
ATOM      2  C2  <0> d           1.177   2.087   0.002  0.00  0.00     0.028 A 
ATOM      3  C3  <0> d           2.387   1.405  -0.013  0.00  0.00     0.049 A 
ATOM      4  C4  <0> d           2.400   0.023  -0.021  0.00  0.00     0.037 A 
ATOM      5  C5  <0> d           1.209  -0.681  -0.013  0.00  0.00     0.114 A 
ATOM      6  C6  <0> d           0.002  -0.004   0.002  0.00  0.00     0.037 A 
ATOM      7 Br1  <0> d          -1.623  -0.971   0.013  0.00  0.00    -0.049 Br
ATOM      8 Br2  <0> d           4.046  -0.906  -0.042  0.00  0.00    -0.049 Br
ENDROOT
BRANCH   5   9
ATOM      9  S1  <0> d           1.229  -2.443  -0.023  0.00  0.00     0.263 S 
ATOM     10  O1  <0> d          -0.017  -2.860  -0.564  0.00  0.00    -0.200 OA
ATOM     11  O2  <0> d           2.473  -2.832  -0.588  0.00  0.00    -0.200 OA
BRANCH   9  12
ATOM     12  N1  <0> d           1.249  -2.941   1.556  0.00  0.00    -0.303 N 
ATOM     13  C10 <0> d          -0.003  -3.183   2.291  0.00  0.00     0.161 C 
ATOM     14  C9  <0> d           0.058  -2.429   3.619  0.00  0.00     0.188 C 
ATOM     15  O3  <0> d           1.269  -2.767   4.300  0.00  0.00    -0.388 OA
ATOM     16  C8  <0> d           2.457  -2.391   3.600  0.00  0.00     0.188 C 
ATOM     17  C7  <0> d           2.520  -3.148   2.269  0.00  0.00     0.161 C 
ENDBRANCH   9  12
ENDBRANCH   5   9
BRANCH   2  18
ATOM     18  N2  <0> d           1.162   3.484   0.009  0.00  0.00    -0.399 N 
ATOM     19  H11 <0> d           0.316   3.959   0.019  0.00  0.00     0.156 HD
ATOM     20  H12 <0> d           1.996   3.978   0.004  0.00  0.00     0.156 HD
ENDBRANCH   2  18
TORSDOF 3
