REMARK  5 active torsions:
REMARK  status: ('A' for Active; 'I' for Inactive)
REMARK    1  A    between atoms: C7_7  and  C8_8 
REMARK    2  A    between atoms: C7_7  and  N5_33 
REMARK    3  A    between atoms: C8_8  and  N1_9 
REMARK       I    between atoms: N1_9  and  C9_10 
REMARK    4  A    between atoms: C9_10  and  C10_12 
REMARK       I    between atoms: C10_12  and  N2_14 
REMARK    5  A    between atoms: N2_14  and  C11_15 
ROOT
ATOM      1  C10 <0> d          -0.895   1.897  -3.633  0.00  0.00     0.313 C 
ATOM      2  O2  <0> d          -1.793   2.708  -3.529  0.00  0.00    -0.262 OA
ATOM      3  N2  <0> d          -0.537   1.440  -4.849  0.00  0.00    -0.319 N 
ATOM      4  H18 <0> d           0.229   0.852  -4.940  0.00  0.00     0.169 HD
ENDROOT
BRANCH   3   5
ATOM      5  C11 <0> d          -1.269   1.814  -5.979  0.00  0.00     0.036 A 
ATOM      6  C16 <0> d          -0.625   1.978  -7.194  0.00  0.00     0.049 A 
ATOM      7  C15 <0> d          -1.365   2.350  -8.313  0.00  0.00     0.063 A 
ATOM      8  C14 <0> d          -2.758   2.557  -8.205  0.00  0.00     0.074 A 
ATOM      9  C17 <0> d          -0.741   2.540  -9.632  0.00  0.00     0.261 A 
ATOM     10  C13 <0> d          -3.383   2.385  -6.967  0.00  0.00     0.035 A 
ATOM     11  N4  <0> d          -3.458   2.920  -9.308  0.00  0.00    -0.234 NA
ATOM     12  C12 <0> d          -2.647   2.014  -5.879  0.00  0.00     0.032 A 
ATOM     13  C18 <0> d          -2.887   3.084 -10.463  0.00  0.00     0.109 A 
ATOM     14  N3  <0> d          -1.545   2.899 -10.653  0.00  0.00    -0.301 N 
ATOM     15  C19 <0> d          -3.717   3.498 -11.659  0.00  0.00     0.079 C 
ATOM     16  C23 <0> d          -0.997   3.097 -12.000  0.00  0.00     0.133 C 
ATOM     17  C22 <0> d          -0.940   4.593 -12.304  0.00  0.00     0.020 C 
ATOM     18  C21 <0> d          -2.234   5.070 -12.941  0.00  0.00     0.002 C 
ATOM     19  C20 <0> d          -3.415   4.957 -11.993  0.00  0.00     0.008 C 
ATOM     20  O3  <0> d           0.455   2.379  -9.795  0.00  0.00    -0.267 OA
ENDBRANCH   3   5
BRANCH   1  21
ATOM     21  C9  <0> d          -0.188   1.406  -2.413  0.00  0.00     0.309 C 
ATOM     22  N1  <0> d          -0.546   1.863  -1.196  0.00  0.00    -0.351 N 
ATOM     23  H17 <0> d          -1.263   2.511  -1.113  0.00  0.00     0.162 HD
ATOM     24  O1  <0> d           0.709   0.596  -2.516  0.00  0.00    -0.262 OA
BRANCH  22  25
ATOM     25  C8  <0> d           0.148   1.382   0.001  0.00  0.00     0.151 C 
BRANCH  25  26
ATOM     26  C7  <0> d          -0.448   2.053   1.240  0.00  0.00     0.255 C 
BRANCH  26  27
ATOM     27  N5  <0> d           0.234   1.582   2.463  0.00  0.00    -0.066 N 
ATOM     28  C2  <0> d           0.146   0.109   2.556  0.00  0.00     0.184 C 
ATOM     29  C1  <0> d          -1.326  -0.304   2.501  0.00  0.00     0.040 C 
ATOM     30  C3  <0> d           0.753  -0.342   3.886  0.00  0.00     0.033 C 
ATOM     31  C4  <0> d           2.220   0.092   3.945  0.00  0.00     0.004 C 
ATOM     32  C5  <0> d           2.303   1.611   3.774  0.00  0.00     0.028 C 
ATOM     33  C6  <0> d           1.650   2.006   2.447  0.00  0.00     0.235 C 
ATOM     34  H32 <0> d          -0.227   1.996   3.282  0.00  0.00     0.280 HD
ENDBRANCH  26  27
ENDBRANCH  25  26
ENDBRANCH  22  25
ENDBRANCH   1  21
TORSDOF 5
