REMARK  5 active torsions:
REMARK  status: ('A' for Active; 'I' for Inactive)
REMARK    1  A    between atoms: C2_2  and  C5_7 
REMARK    2  A    between atoms: C5_7  and  S2_8 
REMARK    3  A    between atoms: S2_8  and  C6_9 
REMARK    4  A    between atoms: C8_11  and  N3_16 
REMARK    5  A    between atoms: C10_13  and  N2_15 
ROOT
ATOM      1  C6  <0> d           1.248   5.896   1.563  0.00  0.00     0.119 A 
ATOM      2  C7  <0> d           1.275   6.701   2.715  0.00  0.00     0.106 A 
ATOM      3  C8  <0> d           1.291   8.103   2.564  0.00  0.00     0.053 A 
ATOM      4  C9  <0> d           1.280   8.627   1.276  0.00  0.00     0.080 A 
ATOM      5  C10 <0> d           1.253   7.763   0.190  0.00  0.00     0.124 A 
ATOM      6  N1  <0> d           1.244   6.447   0.359  0.00  0.00    -0.223 NA
ATOM      7  C11 <0> d           1.285   6.108   4.019  0.00  0.00     0.104 C 
ATOM      8  N4  <0> d           1.293   5.638   5.053  0.00  0.00    -0.191 NA
ENDROOT
BRANCH   1   9
ATOM      9  S2  <0> d           1.227   4.141   1.722  0.00  0.00    -0.104 SA
BRANCH   9  10
ATOM     10  C5  <0> d           1.203   3.545   0.009  0.00  0.00     0.120 C 
BRANCH  10  11
ATOM     11  C2  <0> d           1.184   2.038   0.002  0.00  0.00    -0.040 A 
ATOM     12  C1  <0> d          -0.016   1.352   0.009  0.00  0.00     0.035 A 
ATOM     13  C4  <0> d           0.002  -0.004   0.002  0.00  0.00     0.051 A 
ATOM     14  S1  <0> d           1.754  -0.349  -0.017  0.00  0.00    -0.094 SA
ATOM     15 Br1  <0> d          -1.450  -1.215   0.010  0.00  0.00    -0.043 Br
ATOM     16  C3  <0> d           2.343   1.336  -0.013  0.00  0.00     0.058 A 
ENDBRANCH  10  11
ENDBRANCH   9  10
ENDBRANCH   1   9
BRANCH   3  17
ATOM     17  N3  <0> d           1.318   8.938   3.671  0.00  0.00    -0.398 N 
ATOM     18  H8  <0> d           1.325   8.559   4.564  0.00  0.00     0.156 HD
ATOM     19  H9  <0> d           1.329   9.901   3.553  0.00  0.00     0.156 HD
ENDBRANCH   3  17
BRANCH   5  20
ATOM     20  N2  <0> d           1.242   8.284  -1.095  0.00  0.00    -0.384 N 
ATOM     21  H6  <0> d           1.252   9.245  -1.228  0.00  0.00     0.157 HD
ATOM     22  H7  <0> d           1.223   7.688  -1.860  0.00  0.00     0.157 HD
ENDBRANCH   5  20
TORSDOF 5
