REMARK  9 active torsions:
REMARK  status: ('A' for Active; 'I' for Inactive)
REMARK    1  A    between atoms: C2_2  and  O1_3 
REMARK    2  A    between atoms: O1_3  and  C3_4 
REMARK    3  A    between atoms: C7_8  and  C9_11 
REMARK    4  A    between atoms: C8_9  and  O2_10 
REMARK    5  A    between atoms: C9_11  and  N5_32 
REMARK    6  A    between atoms: C13_17  and  C16_21 
REMARK    7  A    between atoms: C16_21  and  C17_22 
REMARK    8  A    between atoms: C16_21  and  N4_25 
REMARK    9  A    between atoms: N4_25  and  S1_26 
ROOT
ATOM      1  C10 <0> d          -2.030   0.957   1.334  0.00  0.00     0.243 C 
ATOM      2  C11 <0> d          -2.496   1.016   2.792  0.00  0.00     0.108 C 
ATOM      3  C12 <0> d          -2.007  -0.215   3.510  0.00  0.00     0.131 A 
ATOM      4  N1  <0> d          -2.682  -0.994   4.304  0.00  0.00    -0.135 NA
ATOM      5  N2  <0> d          -1.913  -1.930   4.743  0.00  0.00    -0.133 NA
ATOM      6  C13 <0> d          -0.715  -1.790   4.239  0.00  0.00     0.154 A 
ATOM      7  N3  <0> d          -0.747  -0.709   3.432  0.00  0.00    -0.317 N 
ATOM      8  C14 <0> d           0.339  -0.170   2.613  0.00  0.00     0.159 C 
ATOM      9  C15 <0> d           0.120   1.332   2.411  0.00  0.00     0.255 C 
ATOM     10  N5  <0> d          -0.702   1.596   1.207  0.00  0.00    -0.065 N 
ATOM     11  H32 <0> d          -0.831   2.610   1.110  0.00  0.00     0.280 HD
ENDROOT
BRANCH  10  12
ATOM     12  C9  <0> d          -0.013   1.086   0.008  0.00  0.00     0.276 C 
BRANCH  12  13
ATOM     13  C7  <0> d          -0.742   1.585  -1.213  0.00  0.00     0.004 A 
ATOM     14  C6  <0> d          -1.600   0.745  -1.897  0.00  0.00     0.012 A 
ATOM     15  C5  <0> d          -2.274   1.201  -3.014  0.00  0.00     0.003 A 
ATOM     16  C4  <0> d          -2.084   2.496  -3.459  0.00  0.00     0.039 A 
ATOM     17  C3  <0> d          -1.221   3.342  -2.781  0.00  0.00     0.102 A 
ATOM     18  C8  <0> d          -0.547   2.884  -1.653  0.00  0.00     0.106 A 
BRANCH  17  19
ATOM     19  O1  <0> d          -1.033   4.617  -3.217  0.00  0.00    -0.349 OA
BRANCH  19  20
ATOM     20  C2  <0> d          -1.758   5.017  -4.381  0.00  0.00     0.171 C 
ATOM     21  C1  <0> d          -1.421   6.471  -4.717  0.00  0.00     0.034 C 
ENDBRANCH  19  20
ENDBRANCH  17  19
BRANCH  18  22
ATOM     22  O2  <0> d           0.301   3.711  -0.984  0.00  0.00    -0.357 OA
ATOM     23  H10 <0> d           1.215   3.677  -1.300  0.00  0.00     0.217 HD
ENDBRANCH  18  22
ENDBRANCH  12  13
ENDBRANCH  10  12
BRANCH   6  24
ATOM     24  C16 <0> d           0.477  -2.671   4.508  0.00  0.00     0.167 C 
BRANCH  24  25
ATOM     25  C17 <0> d           1.031  -2.368   5.902  0.00  0.00     0.008 C 
ATOM     26  C18 <0> d           1.455  -0.900   5.975  0.00  0.00     0.012 C 
ATOM     27  C19 <0> d          -0.050  -2.639   6.950  0.00  0.00     0.012 C 
ENDBRANCH  24  25
BRANCH  24  28
ATOM     28  N4  <0> d           0.072  -4.077   4.439  0.00  0.00    -0.307 N 
ATOM     29  H28 <0> d          -0.809  -4.343   4.745  0.00  0.00     0.173 HD
BRANCH  28  30
ATOM     30  S1  <0> d           1.117  -5.212   3.838  0.00  0.00     0.223 S 
ATOM     31  O3  <0> d           0.397  -6.436   3.897  0.00  0.00    -0.206 OA
ATOM     32  O4  <0> d           1.548  -4.684   2.591  0.00  0.00    -0.206 OA
ATOM     33  C20 <0> d           2.498  -5.243   5.015  0.00  0.00     0.185 C 
ENDBRANCH  28  30
ENDBRANCH  24  28
ENDBRANCH   6  24
TORSDOF 9
