REMARK  1 active torsions:
REMARK  status: ('A' for Active; 'I' for Inactive)
REMARK    1  A    between atoms: C6_9  and  C7_10 
ROOT
ATOM      1  C1  <0> d          -2.292  -0.314   0.211  0.00  0.00     0.038 C 
ATOM      2  C2  <0> d          -2.358   1.180   0.028  0.00  0.00     0.004 C 
ATOM      3  C3  <0> d          -1.239   1.877  -0.192  0.00  0.00     0.099 C 
ATOM      4  C4  <0> d           0.066   1.188  -0.257  0.00  0.00     0.272 C 
ATOM      5  O1  <0> d           0.117  -0.021  -0.372  0.00  0.00    -0.266 OA
ATOM      6  N1  <0> d           1.202   1.914  -0.194  0.00  0.00    -0.317 N 
ATOM      7  H1  <0> d           2.180   1.412  -0.248  0.00  0.00     0.169 HD
ATOM      8  C5  <0> d           1.124   3.304  -0.059  0.00  0.00     0.104 C 
ATOM      9  C6  <0> d           2.221   4.017   0.291  0.00  0.00     0.046 C 
ATOM     10  C13 <0> d          -0.156   3.987  -0.300  0.00  0.00     0.273 C 
ATOM     11  O2  <0> d          -0.188   5.194  -0.447  0.00  0.00    -0.266 OA
ATOM     12  N2  <0> d          -1.295   3.265  -0.358  0.00  0.00    -0.317 N 
ATOM     13  H2  <0> d          -2.262   3.759  -0.534  0.00  0.00     0.169 HD
ENDROOT
BRANCH   9  14
ATOM     14  C7  <0> d           3.453   3.321   0.693  0.00  0.00    -0.034 A 
ATOM     15  C12 <0> d           4.699   3.921   0.484  0.00  0.00     0.013 A 
ATOM     16  C11 <0> d           5.849   3.263   0.863  0.00  0.00     0.024 A 
ATOM     17  C10 <0> d           5.773   2.011   1.451  0.00  0.00     0.034 A 
ATOM     18  C9  <0> d           4.543   1.410   1.661  0.00  0.00     0.024 A 
ATOM     19 Cl1  <0> d           7.227   1.189   1.925  0.00  0.00    -0.084 Cl
ATOM     20  C8  <0> d           3.384   2.058   1.292  0.00  0.00     0.013 A 
ENDBRANCH   9  14
TORSDOF 1
