REMARK  5 active torsions:
REMARK  status: ('A' for Active; 'I' for Inactive)
REMARK    1  A    between atoms: C2_2  and  N1_3 
REMARK    2  A    between atoms: N1_3  and  C3_4 
REMARK       I    between atoms: N1_3  and  C8_11 
REMARK    3  A    between atoms: C3_4  and  C4_5 
REMARK    4  A    between atoms: C8_11  and  C9_13 
REMARK    5  A    between atoms: C14_18  and  N2_19 
ROOT
ATOM      1  N1  <0> d          -1.414  -0.444   0.019  0.00  0.00    -0.344 N 
ATOM      2  C8  <0> d          -1.961  -0.852   1.182  0.00  0.00     0.256 C 
ATOM      3  O1  <0> d          -3.033  -1.426   1.181  0.00  0.00    -0.267 OA
ENDROOT
BRANCH   2   4
ATOM      4  C9  <0> d          -1.260  -0.602   2.454  0.00  0.00     0.058 A 
ATOM      5  C14 <0> d          -1.873   0.159   3.461  0.00  0.00     0.041 A 
ATOM      6  C13 <0> d          -1.204   0.382   4.659  0.00  0.00     0.030 A 
ATOM      7  C12 <0> d           0.061  -0.134   4.849  0.00  0.00     0.002 A 
ATOM      8  C11 <0> d           0.672  -0.881   3.854  0.00  0.00     0.001 A 
ATOM      9  C10 <0> d           0.022  -1.117   2.663  0.00  0.00     0.019 A 
BRANCH   5  10
ATOM     10  N2  <0> d          -3.145   0.682   3.264  0.00  0.00    -0.398 N 
ATOM     11  H14 <0> d          -3.581   0.585   2.403  0.00  0.00     0.156 HD
ATOM     12  H15 <0> d          -3.597   1.143   3.988  0.00  0.00     0.156 HD
ENDBRANCH   5  10
ENDBRANCH   2   4
BRANCH   1  13
ATOM     13  C2  <0> d          -0.079   0.158   0.010  0.00  0.00     0.122 C 
ATOM     14  C1  <0> d          -0.204   1.681   0.086  0.00  0.00     0.026 C 
ENDBRANCH   1  13
BRANCH   1  15
ATOM     15  C3  <0> d          -2.156  -0.601  -1.234  0.00  0.00     0.172 C 
BRANCH  15  16
ATOM     16  C4  <0> d          -1.833  -1.941  -1.844  0.00  0.00     0.002 A 
ATOM     17  S1  <0> d          -0.537  -2.368  -2.995  0.00  0.00    -0.086 SA
ATOM     18  C7  <0> d          -0.904  -4.108  -3.153  0.00  0.00     0.051 A 
ATOM     19  C6  <0> d          -1.978  -4.243  -2.336  0.00  0.00     0.028 A 
ATOM     20 Br1  <0> d          -0.027  -5.421  -4.194  0.00  0.00    -0.043 Br
ATOM     21  C5  <0> d          -2.454  -3.132  -1.665  0.00  0.00     0.018 A 
ENDBRANCH  15  16
ENDBRANCH   1  15
TORSDOF 5
