REMARK  2 active torsions:
REMARK  status: ('A' for Active; 'I' for Inactive)
REMARK    1  A    between atoms: C2_2  and  C7_8 
REMARK       I    between atoms: C7_8  and  N2_10 
REMARK    2  A    between atoms: C10_13  and  C12_15 
ROOT
ATOM      1  C7  <0> d          -1.405  -0.528   0.133  0.00  0.00     0.228 C 
ATOM      2  O1  <0> d          -1.728  -1.161   1.115  0.00  0.00    -0.273 OA
ATOM      3  N2  <0> d          -2.304  -0.295  -0.844  0.00  0.00    -0.351 N 
ATOM      4  C8  <0> d          -2.021   0.355  -2.132  0.00  0.00     0.127 C 
ATOM      5  C9  <0> d          -3.351   0.427  -2.911  0.00  0.00     0.037 C 
ATOM      6  C10 <0> d          -4.417   0.325  -1.789  0.00  0.00     0.106 C 
ATOM      7  C11 <0> d          -3.733  -0.656  -0.801  0.00  0.00     0.141 C 
ENDROOT
BRANCH   1   8
ATOM      8  C2  <0> d           0.001  -0.001   0.004  0.00  0.00     0.040 C 
ATOM      9  C1  <0> d          -0.037   1.514  -0.203  0.00  0.00     0.025 C 
ATOM     10  C6  <0> d           0.788  -0.325   1.277  0.00  0.00     0.046 C 
ATOM     11  C5  <0> d           0.890  -1.843   1.435  0.00  0.00     0.233 C 
ATOM     12  N1  <0> d           1.581  -2.414   0.273  0.00  0.00    -0.075 N 
ATOM     13  C4  <0> d           0.796  -2.170  -0.943  0.00  0.00     0.233 C 
ATOM     14  H9  <0> d           1.694  -3.408   0.405  0.00  0.00     0.277 HD
ATOM     15  H20 <0> d           2.489  -1.984   0.178  0.00  0.00     0.277 HD
ATOM     16  C3  <0> d           0.690  -0.664  -1.193  0.00  0.00     0.046 C 
ENDBRANCH   1   8
BRANCH   6  17
ATOM     17  C12 <0> d          -5.704  -0.254  -2.317  0.00  0.00     0.178 C 
ATOM     18  O2  <0> d          -5.803  -0.545  -3.497  0.00  0.00    -0.648 OA
ATOM     19  O3  <0> d          -6.647  -0.432  -1.565  0.00  0.00    -0.648 OA
ENDBRANCH   6  17
TORSDOF 2
