REMARK  2 active torsions:
REMARK  status: ('A' for Active; 'I' for Inactive)
REMARK    1  A    between atoms: C2_2  and  C4_4 
REMARK    2  A    between atoms: N3_19  and  C16_20 
ROOT
ATOM      1  C4  <0> d          -1.412  -0.526   0.013  0.00  0.00    -0.054 A 
ATOM      2  C5  <0> d          -2.245  -0.196   1.062  0.00  0.00     0.010 A 
ATOM      3  C6  <0> d          -3.555  -0.645   1.127  0.00  0.00     0.031 A 
ATOM      4  C7  <0> d          -4.006  -1.452   0.082  0.00  0.00     0.042 A 
ATOM      5  C8  <0> d          -3.150  -1.781  -0.977  0.00  0.00    -0.008 A 
ATOM      6  C9  <0> d          -1.851  -1.325  -1.038  0.00  0.00     0.018 A 
ATOM      7  C10 <0> d          -3.943  -2.646  -1.902  0.00  0.00     0.111 A 
ATOM      8  C11 <0> d          -3.314  -4.031  -2.039  0.00  0.00     0.132 C 
ATOM      9  C12 <0> d          -2.171  -4.016  -3.015  0.00  0.00     0.225 C 
ATOM     10  O1  <0> d          -1.194  -4.697  -2.786  0.00  0.00    -0.273 OA
ATOM     11  N1  <0> d          -2.197  -3.269  -4.139  0.00  0.00    -0.311 N 
ATOM     12  C13 <0> d          -3.225  -2.341  -4.295  0.00  0.00     0.141 A 
ATOM     13  C14 <0> d          -4.071  -2.021  -3.263  0.00  0.00     0.030 A 
ATOM     14  C15 <0> d          -4.977  -1.080  -3.731  0.00  0.00     0.152 A 
ATOM     15  N2  <0> d          -4.696  -0.825  -4.987  0.00  0.00    -0.177 NA
ATOM     16  N3  <0> d          -3.589  -1.603  -5.363  0.00  0.00    -0.217 N 
ATOM     17  C22 <0> d          -5.303  -2.753  -1.246  0.00  0.00     0.240 A 
ATOM     18  O2  <0> d          -6.259  -3.370  -1.665  0.00  0.00    -0.272 OA
ATOM     19  N4  <0> d          -5.249  -2.032  -0.107  0.00  0.00    -0.325 N 
ATOM     20  H13 <0> d          -1.516  -3.375  -4.822  0.00  0.00     0.170 HD
ATOM     21  H20 <0> d          -5.993  -1.931   0.507  0.00  0.00     0.169 HD
ENDROOT
BRANCH   1  22
ATOM     22  C2  <0> d           0.002  -0.004   0.002  0.00  0.00     0.010 C 
ATOM     23  C1  <0> d          -0.019   1.526   0.010  0.00  0.00     0.015 C 
ATOM     24  C3  <0> d           0.742  -0.511   1.242  0.00  0.00     0.015 C 
ENDBRANCH   1  22
BRANCH  16  25
ATOM     25  C16 <0> d          -2.973  -1.611  -6.622  0.00  0.00     0.060 A 
ATOM     26  C21 <0> d          -3.736  -1.448  -7.771  0.00  0.00     0.031 A 
ATOM     27  C20 <0> d          -3.125  -1.450  -9.010  0.00  0.00     0.002 A 
ATOM     28  C19 <0> d          -1.757  -1.628  -9.107  0.00  0.00     0.000 A 
ATOM     29  C18 <0> d          -0.996  -1.797  -7.966  0.00  0.00     0.002 A 
ATOM     30  C17 <0> d          -1.600  -1.789  -6.724  0.00  0.00     0.031 A 
ENDBRANCH  16  25
TORSDOF 2
