REMARK  3 active torsions:
REMARK  status: ('A' for Active; 'I' for Inactive)
REMARK    1  A    between atoms: C7_7  and  C10_11 
REMARK    2  A    between atoms: C12_13  and  C17_24 
REMARK    3  A    between atoms: C14_19  and  N5_23 
ROOT
ATOM      1  C10 <0> d           0.038  -2.918  -0.013  0.00  0.00     0.107 C 
ATOM      2  C11 <0> d           0.024  -3.809   1.203  0.00  0.00     0.044 A 
ATOM      3  C12 <0> d          -0.167  -3.493   2.493  0.00  0.00     0.145 A 
ATOM      4  N2  <0> d          -0.086  -4.637   3.211  0.00  0.00    -0.271 N 
ATOM      5  H2  <0> d          -0.184  -4.713   4.173  0.00  0.00     0.189 HD
ATOM      6  N3  <0> d           0.165  -5.694   2.322  0.00  0.00    -0.148 NA
ATOM      7  C13 <0> d           0.231  -5.203   1.118  0.00  0.00     0.200 A 
ATOM      8  O1  <0> d           0.451  -5.829  -0.069  0.00  0.00    -0.272 OA
ATOM      9  C14 <0> d           0.201  -5.130  -1.194  0.00  0.00     0.161 C 
ATOM     10  C15 <0> d           0.000  -3.796  -1.239  0.00  0.00     0.086 C 
ATOM     11  C16 <0> d          -0.261  -3.186  -2.508  0.00  0.00     0.100 C 
ATOM     12  N4  <0> d          -0.469  -2.701  -3.514  0.00  0.00    -0.191 NA
ENDROOT
BRANCH   1  13
ATOM     13  C7  <0> d           1.295  -2.087  -0.021  0.00  0.00    -0.030 A 
ATOM     14  C5  <0> d           1.232  -0.681  -0.013  0.00  0.00    -0.000 A 
ATOM     15  C4  <0> d           2.440   0.060  -0.021  0.00  0.00     0.067 A 
ATOM     16  C6  <0> d           0.002  -0.004   0.002  0.00  0.00     0.014 A 
ATOM     17  C3  <0> d           2.379   1.465  -0.013  0.00  0.00     0.032 A 
ATOM     18  N1  <0> d           3.613  -0.580  -0.035  0.00  0.00    -0.260 NA
ATOM     19  C2  <0> d           1.170   2.088   0.002  0.00  0.00     0.002 A 
ATOM     20  C1  <0> d          -0.016   1.357   0.009  0.00  0.00     0.001 A 
ATOM     21  C9  <0> d           3.675  -1.889  -0.043  0.00  0.00     0.118 A 
ATOM     22  C8  <0> d           2.527  -2.677  -0.036  0.00  0.00     0.028 A 
ENDBRANCH   1  13
BRANCH   9  23
ATOM     23  N5  <0> d           0.147  -5.824  -2.378  0.00  0.00    -0.379 N 
ATOM     24  H9  <0> d           0.287  -6.784  -2.384  0.00  0.00     0.158 HD
ATOM     25  H10 <0> d          -0.030  -5.354  -3.208  0.00  0.00     0.158 HD
ENDBRANCH   9  23
BRANCH   3  26
ATOM     26  C17 <0> d          -0.425  -2.114   3.042  0.00  0.00     0.434 C 
ATOM     27  F1  <0> d          -0.572  -2.185   4.431  0.00  0.00    -0.165 F 
ATOM     28  F2  <0> d           0.653  -1.278   2.730  0.00  0.00    -0.165 F 
ATOM     29  F3  <0> d          -1.595  -1.597   2.475  0.00  0.00    -0.165 F 
ENDBRANCH   3  26
TORSDOF 3
