REMARK  4 active torsions:
REMARK  status: ('A' for Active; 'I' for Inactive)
REMARK    1  A    between atoms: C2_2  and  C3_3 
REMARK    2  A    between atoms: C2_2  and  N1_9 
REMARK    3  A    between atoms: N1_9  and  S1_10 
REMARK    4  A    between atoms: S1_10  and  C9_13 
ROOT
ATOM      1  N1  <0> d           0.027   6.712  -1.544  0.00  0.00    -0.307 N 
ATOM      2  H10 <0> d           0.798   7.174  -1.906  0.00  0.00     0.173 HD
ENDROOT
BRANCH   1   3
ATOM      3  C2  <0> d          -1.139   6.455  -2.392  0.00  0.00     0.122 C 
ATOM      4  C1  <0> d          -2.054   7.681  -2.387  0.00  0.00     0.038 C 
BRANCH   3   5
ATOM      5  C3  <0> d          -0.683   6.175  -3.801  0.00  0.00    -0.035 A 
ATOM      6  C8  <0> d          -1.300   5.186  -4.544  0.00  0.00     0.009 A 
ATOM      7  C7  <0> d          -0.881   4.929  -5.836  0.00  0.00     0.001 A 
ATOM      8  C6  <0> d           0.154   5.662  -6.386  0.00  0.00     0.000 A 
ATOM      9  C5  <0> d           0.770   6.652  -5.643  0.00  0.00     0.001 A 
ATOM     10  C4  <0> d           0.349   6.911  -4.353  0.00  0.00     0.009 A 
ENDBRANCH   3   5
ENDBRANCH   1   3
BRANCH   1  11
ATOM     11  S1  <0> d           0.027   6.213   0.036  0.00  0.00     0.260 S 
ATOM     12  O1  <0> d          -1.200   6.652   0.601  0.00  0.00    -0.200 OA
ATOM     13  O2  <0> d           1.289   6.580   0.577  0.00  0.00    -0.200 OA
BRANCH  11  14
ATOM     14  C9  <0> d          -0.024   4.452   0.026  0.00  0.00     0.097 A 
ATOM     15  C13 <0> d           1.146   3.718   0.011  0.00  0.00     0.143 A 
ATOM     16  N2  <0> d           1.116   2.400   0.004  0.00  0.00    -0.247 NA
ATOM     17  C12 <0> d          -0.021   1.732   0.012  0.00  0.00     0.125 A 
ATOM     18  C11 <0> d          -1.234   2.400   0.021  0.00  0.00     0.046 A 
ATOM     19 Cl1  <0> d           0.002  -0.004   0.002  0.00  0.00    -0.062 Cl
ATOM     20  C10 <0> d          -1.241   3.785   0.034  0.00  0.00     0.030 A 
ENDBRANCH  11  14
ENDBRANCH   1  11
TORSDOF 4
