REMARK  3 active torsions:
REMARK  status: ('A' for Active; 'I' for Inactive)
REMARK    1  A    between atoms: C3_3  and  C5_8 
REMARK    2  A    between atoms: C5_8  and  N3_9 
REMARK    3  A    between atoms: C13_17  and  O1_18 
ROOT
ATOM      1  N3  <0> d           1.364  -0.055  -2.998  0.00  0.00    -0.355 N 
ATOM      2  C6  <0> d           1.968   1.169  -2.967  0.00  0.00     0.092 A 
ATOM      3  C7  <0> d           3.224   1.034  -3.446  0.00  0.00     0.029 A 
ATOM      4  C8  <0> d           3.398  -0.316  -3.781  0.00  0.00    -0.006 A 
ATOM      5  C9  <0> d           2.246  -0.963  -3.491  0.00  0.00     0.021 A 
ATOM      6  C10 <0> d           2.032  -2.441  -3.700  0.00  0.00     0.066 C 
ATOM      7  C11 <0> d           3.401  -3.110  -3.871  0.00  0.00    -0.040 C 
ATOM      8  C12 <0> d           4.217  -2.346  -4.918  0.00  0.00     0.045 C 
ATOM      9  C13 <0> d           4.623  -0.979  -4.359  0.00  0.00     0.154 C 
ATOM     10  C14 <0> d           3.209  -4.556  -4.331  0.00  0.00     0.015 C 
ATOM     11  C15 <0> d           4.146  -3.095  -2.534  0.00  0.00     0.015 C 
ENDROOT
BRANCH   1  12
ATOM     12  C5  <0> d          -0.006  -0.343  -2.566  0.00  0.00     0.170 C 
BRANCH  12  13
ATOM     13  C3  <0> d           0.008  -0.818  -1.135  0.00  0.00     0.003 A 
ATOM     14  C2  <0> d           0.002  -0.004   0.002  0.00  0.00     0.060 A 
ATOM     15  C1  <0> d          -0.018   1.503   0.010  0.00  0.00     0.073 C 
ATOM     16  N2  <0> d           0.023  -0.777   1.058  0.00  0.00    -0.180 NA
ATOM     17  N1  <0> d           0.034  -2.109   0.625  0.00  0.00    -0.288 N 
ATOM     18  C4  <0> d           0.028  -2.107  -0.725  0.00  0.00     0.120 A 
ATOM     19  H1  <0> d           0.048  -2.894   1.194  0.00  0.00     0.188 HD
ENDBRANCH  12  13
ENDBRANCH   1  12
BRANCH   9  20
ATOM     20  O1  <0> d           5.167  -0.163  -5.398  0.00  0.00    -0.391 OA
ATOM     21  H15 <0> d           5.434   0.719  -5.106  0.00  0.00     0.210 HD
ENDBRANCH   9  20
TORSDOF 3
