REMARK  4 active torsions:
REMARK  status: ('A' for Active; 'I' for Inactive)
REMARK    1  A    between atoms: C7_7  and  C9_11 
REMARK    2  A    between atoms: C9_11  and  C10_12 
REMARK    3  A    between atoms: N2_15  and  N3_19 
REMARK       I    between atoms: N3_19  and  C13_20 
REMARK    4  A    between atoms: C13_20  and  C14_22 
ROOT
ATOM      1  C10 <0> d          -3.323   3.347  -0.037  0.00  0.00     0.078 A 
ATOM      2  C11 <0> d          -4.055   4.569  -0.131  0.00  0.00     0.285 A 
ATOM      3  O1  <0> d          -3.482   5.643  -0.146  0.00  0.00    -0.265 OA
ATOM      4  N2  <0> d          -5.373   4.500  -0.206  0.00  0.00    -0.198 N 
ATOM      5  C12 <0> d          -6.009   3.307  -0.182  0.00  0.00     0.168 A 
ATOM      6  S1  <0> d          -7.689   2.986  -0.259  0.00  0.00    -0.050 SA
ATOM      7  S2  <0> d          -4.653   2.152  -0.051  0.00  0.00    -0.053 SA
ENDROOT
BRANCH   1   8
ATOM      8  C9  <0> d          -1.979   3.146   0.046  0.00  0.00     0.038 C 
BRANCH   8   9
ATOM      9  C7  <0> d          -1.449   1.789   0.179  0.00  0.00    -0.007 A 
ATOM     10  C5  <0> d          -0.082   1.410   0.582  0.00  0.00     0.002 A 
ATOM     11  C4  <0> d          -0.049   0.007   0.565  0.00  0.00     0.043 A 
ATOM     12  C6  <0> d           1.054   2.131   0.943  0.00  0.00     0.014 A 
ATOM     13  C3  <0> d           1.127  -0.652   0.910  0.00  0.00     0.030 A 
ATOM     14  N1  <0> d          -1.298  -0.433   0.177  0.00  0.00    -0.364 N 
ATOM     15  C2  <0> d           2.243   0.073   1.264  0.00  0.00     0.002 A 
ATOM     16  C1  <0> d           2.209   1.460   1.280  0.00  0.00     0.001 A 
ATOM     17  C8  <0> d          -2.121   0.621  -0.054  0.00  0.00     0.100 A 
ATOM     18  H1  <0> d          -1.551  -1.365   0.081  0.00  0.00     0.165 HD
ENDBRANCH   8   9
ENDBRANCH   1   8
BRANCH   4  19
ATOM     19  N3  <0> d          -6.121   5.679  -0.305  0.00  0.00    -0.255 N 
ATOM     20  C13 <0> d          -6.798   6.140   0.766  0.00  0.00     0.270 C 
ATOM     21  O2  <0> d          -6.758   5.532   1.818  0.00  0.00    -0.266 OA
ATOM     22  H8  <0> d          -6.153   6.165  -1.144  0.00  0.00     0.191 HD
BRANCH  20  23
ATOM     23  C14 <0> d          -7.588   7.385   0.662  0.00  0.00     0.033 A 
ATOM     24  C19 <0> d          -8.289   7.864   1.770  0.00  0.00     0.019 A 
ATOM     25  C18 <0> d          -9.024   9.027   1.666  0.00  0.00     0.025 A 
ATOM     26  C17 <0> d          -9.067   9.718   0.467  0.00  0.00     0.034 A 
ATOM     27  C16 <0> d          -8.372   9.248  -0.635  0.00  0.00     0.025 A 
ATOM     28 Cl1  <0> d          -9.993  11.181   0.345  0.00  0.00    -0.084 Cl
ATOM     29  C15 <0> d          -7.630   8.089  -0.543  0.00  0.00     0.019 A 
ENDBRANCH  20  23
ENDBRANCH   4  19
TORSDOF 4
