REMARK  3 active torsions:
REMARK  status: ('A' for Active; 'I' for Inactive)
REMARK    1  A    between atoms: C2_2  and  C3_3 
REMARK    2  A    between atoms: N1_8  and  C7_9 
REMARK    3  A    between atoms: C10_14  and  N3_20 
ROOT
ATOM      1  C7  <0> d          -1.509   0.924   2.066  0.00  0.00     0.170 A 
ATOM      2  N2  <0> d          -0.344   1.518   1.925  0.00  0.00    -0.228 NA
ATOM      3  C8  <0> d           0.143   2.340   2.853  0.00  0.00     0.053 A 
ATOM      4  C9  <0> d          -0.652   2.510   3.939  0.00  0.00     0.041 A 
ATOM      5  S1  <0> d          -2.048   1.488   3.560  0.00  0.00    -0.053 SA
ATOM      6  C10 <0> d          -0.391   3.361   5.135  0.00  0.00     0.226 C 
ATOM      7  C11 <0> d           0.764   4.318   4.801  0.00  0.00     0.047 C 
ATOM      8  C12 <0> d           1.897   3.517   4.153  0.00  0.00    -0.040 C 
ATOM      9  C13 <0> d           1.482   3.057   2.754  0.00  0.00     0.069 C 
ATOM     10  C14 <0> d           3.145   4.396   4.049  0.00  0.00     0.015 C 
ATOM     11  C15 <0> d           2.212   2.293   5.016  0.00  0.00     0.015 C 
ENDROOT
BRANCH   1  12
ATOM     12  N1  <0> d          -2.142   0.051   1.195  0.00  0.00    -0.351 N 
ATOM     13  C3  <0> d          -1.468  -0.423  -0.024  0.00  0.00     0.110 C 
ATOM     14  C4  <0> d          -1.576  -1.952  -0.073  0.00  0.00     0.193 C 
ATOM     15  O1  <0> d          -2.944  -2.333   0.086  0.00  0.00    -0.383 OA
ATOM     16  C5  <0> d          -3.515  -1.958   1.342  0.00  0.00     0.135 C 
ATOM     17  C6  <0> d          -3.507  -0.429   1.463  0.00  0.00     0.157 C 
ATOM     18  C16 <0> d          -4.954  -2.470   1.423  0.00  0.00     0.041 C 
BRANCH  13  19
ATOM     19  C2  <0> d           0.005  -0.011   0.007  0.00  0.00     0.023 C 
ATOM     20  C1  <0> d           0.698  -0.500  -1.266  0.00  0.00     0.007 C 
ENDBRANCH  13  19
ENDBRANCH   1  12
BRANCH   6  21
ATOM     21  N3  <0> d          -1.596   4.133   5.466  0.00  0.00    -0.070 N 
ATOM     22  H23 <0> d          -2.357   3.501   5.665  0.00  0.00     0.275 HD
ATOM     23  H24 <0> d          -1.415   4.707   6.277  0.00  0.00     0.275 HD
ATOM     24  H28 <0> d          -1.843   4.722   4.685  0.00  0.00     0.275 HD
ENDBRANCH   6  21
TORSDOF 3
