REMARK  6 active torsions:
REMARK  status: ('A' for Active; 'I' for Inactive)
REMARK    1  A    between atoms: C2_2  and  C3_3 
REMARK    2  A    between atoms: C2_2  and  N5_13 
REMARK    3  A    between atoms: C3_3  and  N1_4 
REMARK    4  A    between atoms: N1_4  and  C4_5 
REMARK    5  A    between atoms: C7_9  and  N4_11 
REMARK    6  A    between atoms: N6_16  and  C12_19 
ROOT
ATOM      1  C1  <0> d           0.594  -0.526  -1.173  0.00  0.00     0.042 C 
ATOM      2  C2  <0> d          -0.162  -0.032   0.062  0.00  0.00     0.202 C 
ENDROOT
BRANCH   2   3
ATOM      3  C3  <0> d           0.025   1.480   0.204  0.00  0.00     0.154 C 
BRANCH   3   4
ATOM      4  N1  <0> d          -0.791   1.971   1.316  0.00  0.00    -0.372 N 
ATOM      5  H7  <0> d          -1.278   1.344   1.875  0.00  0.00     0.161 HD
BRANCH   4   6
ATOM      6  C4  <0> d          -0.869   3.330   1.571  0.00  0.00     0.145 A 
ATOM      7  N3  <0> d          -1.607   3.786   2.579  0.00  0.00    -0.046 NA
ATOM      8  C7  <0> d          -1.680   5.085   2.828  0.00  0.00     0.723 A 
ATOM      9  N2  <0> d          -1.036   5.973   2.086  0.00  0.00    -0.051 NA
ATOM     10  C6  <0> d          -0.285   5.589   1.062  0.00  0.00     0.148 A 
ATOM     11  C5  <0> d          -0.178   4.241   0.771  0.00  0.00     0.095 A 
ATOM     12 Cl1  <0> d           0.554   6.764   0.099  0.00  0.00    -0.062 Cl
BRANCH   8  13
ATOM     13  N4  <0> d          -2.453   5.526   3.888  0.00  0.00    -0.231 N 
ATOM     14  H9  <0> d          -2.518   6.474   4.080  0.00  0.00     0.174 HD
ATOM     15  H10 <0> d          -2.930   4.886   4.440  0.00  0.00     0.174 HD
ENDBRANCH   8  13
ENDBRANCH   4   6
ENDBRANCH   3   4
ENDBRANCH   2   3
BRANCH   2  16
ATOM     16  N5  <0> d          -1.592  -0.337  -0.085  0.00  0.00    -0.063 N 
ATOM     17  C11 <0> d          -2.083   0.226  -1.349  0.00  0.00     0.255 C 
ATOM     18  C10 <0> d          -3.596   0.009  -1.450  0.00  0.00     0.150 C 
ATOM     19  N6  <0> d          -3.875  -1.425  -1.275  0.00  0.00    -0.378 N 
ATOM     20  C9  <0> d          -3.282  -2.110  -0.115  0.00  0.00     0.150 C 
ATOM     21  C8  <0> d          -1.784  -1.793  -0.077  0.00  0.00     0.255 C 
ATOM     22  H24 <0> d          -2.102   0.071   0.684  0.00  0.00     0.280 HD
BRANCH  19  23
ATOM     23  C12 <0> d          -4.679  -2.117  -2.183  0.00  0.00     0.030 A 
ATOM     24  C17 <0> d          -5.326  -1.431  -3.203  0.00  0.00     0.029 A 
ATOM     25  C16 <0> d          -6.116  -2.119  -4.103  0.00  0.00     0.002 A 
ATOM     26  C15 <0> d          -6.272  -3.488  -3.983  0.00  0.00     0.000 A 
ATOM     27  C14 <0> d          -5.634  -4.173  -2.965  0.00  0.00     0.002 A 
ATOM     28  C13 <0> d          -4.838  -3.492  -2.065  0.00  0.00     0.029 A 
ENDBRANCH  19  23
ENDBRANCH   2  16
TORSDOF 6
