REMARK  1 active torsions:
REMARK  status: ('A' for Active; 'I' for Inactive)
REMARK       I    between atoms: N2_14  and  C13_15 
REMARK       I    between atoms: C13_15  and  N3_17 
REMARK    1  A    between atoms: N3_17  and  C14_18 
ROOT
ATOM      1  C1  <0> d          -0.020   1.503   0.009  0.00  0.00     0.048 C 
ATOM      2  C2  <0> d           0.002  -0.004   0.001  0.00  0.00    -0.061 A 
ATOM      3  C3  <0> d          -0.001  -0.691  -1.200  0.00  0.00     0.009 A 
ATOM      4  C4  <0> d           0.024  -2.069  -1.211  0.00  0.00     0.031 A 
ATOM      5  C5  <0> d           0.056  -2.783  -0.012  0.00  0.00     0.046 A 
ATOM      6  C6  <0> d           0.048  -2.083   1.188  0.00  0.00    -0.023 A 
ATOM      7  C7  <0> d           0.030  -0.703   1.193  0.00  0.00     0.016 A 
ATOM      8  C8  <0> d           0.056  -3.093   2.304  0.00  0.00     0.070 C 
ATOM      9  C9  <0> d           0.959  -2.735   3.437  0.00  0.00     0.245 C 
ATOM     10  N1  <0> d           2.283  -3.320   3.388  0.00  0.00    -0.074 N 
ATOM     11  C10 <0> d           2.243  -4.753   3.154  0.00  0.00     0.236 C 
ATOM     12  C11 <0> d           1.570  -5.102   1.849  0.00  0.00     0.054 C 
ATOM     13  C12 <0> d           0.244  -4.440   1.645  0.00  0.00     0.106 C 
ATOM     14  N2  <0> d           0.090  -4.165   0.201  0.00  0.00    -0.294 N 
ATOM     15  C13 <0> d          -0.002  -5.103  -0.763  0.00  0.00     0.328 C 
ATOM     16  O1  <0> d          -0.214  -4.773  -1.914  0.00  0.00    -0.246 OA
ATOM     17  N3  <0> d           0.142  -6.407  -0.451  0.00  0.00    -0.306 N 
ATOM     18  C17 <0> d           3.046  -2.681   2.308  0.00  0.00     0.269 C 
ATOM     19  H16 <0> d           0.235  -6.676   0.476  0.00  0.00     0.171 HD
ATOM     20  H22 <0> d           2.751  -3.144   4.265  0.00  0.00     0.279 HD
ENDROOT
BRANCH  17  21
ATOM     21  C14 <0> d           0.156  -7.377  -1.471  0.00  0.00     0.072 A 
ATOM     22  C16 <0> d           0.031  -7.132  -2.846  0.00  0.00     0.169 A 
ATOM     23  N5  <0> d           0.095  -8.277  -3.476  0.00  0.00    -0.185 NA
ATOM     24  N4  <0> d           0.252  -9.295  -2.527  0.00  0.00    -0.287 N 
ATOM     25  C15 <0> d           0.287  -8.717  -1.298  0.00  0.00     0.140 A 
ATOM     26  H3  <0> d           0.323 -10.244  -2.714  0.00  0.00     0.188 HD
ENDBRANCH  17  21
TORSDOF 1
