REMARK  5 active torsions:
REMARK  status: ('A' for Active; 'I' for Inactive)
REMARK    1  A    between atoms: C6_6  and  C11_12 
REMARK    2  A    between atoms: C11_12  and  C12_13 
REMARK       I    between atoms: C12_13  and  N1_15 
REMARK    3  A    between atoms: N1_15  and  C13_16 
REMARK    4  A    between atoms: C16_19  and  C19_22 
REMARK    5  A    between atoms: C19_22  and  N2_23 
REMARK       I    between atoms: N2_23  and  C20_24 
REMARK       I    between atoms: C20_24  and  N3_26 
ROOT
ATOM      1  C12 <0> d           1.488  -5.642  -1.074  0.00  0.00     0.226 C 
ATOM      2  O2  <0> d           2.399  -4.965  -0.645  0.00  0.00    -0.273 OA
ATOM      3  N1  <0> d           1.744  -6.648  -1.933  0.00  0.00    -0.327 N 
ATOM      4  H12 <0> d           1.025  -7.232  -2.224  0.00  0.00     0.169 HD
ENDROOT
BRANCH   3   5
ATOM      5  C13 <0> d           3.045  -6.851  -2.407  0.00  0.00     0.034 A 
ATOM      6  C18 <0> d           4.132  -6.608  -1.579  0.00  0.00     0.030 A 
ATOM      7  C17 <0> d           5.415  -6.815  -2.047  0.00  0.00     0.011 A 
ATOM      8  C16 <0> d           5.617  -7.252  -3.343  0.00  0.00    -0.040 A 
ATOM      9  C15 <0> d           4.536  -7.489  -4.173  0.00  0.00     0.011 A 
ATOM     10  C14 <0> d           3.251  -7.290  -3.708  0.00  0.00     0.030 A 
BRANCH   8  11
ATOM     11  C19 <0> d           7.018  -7.470  -3.853  0.00  0.00     0.162 C 
BRANCH  11  12
ATOM     12  N2  <0> d           7.518  -6.231  -4.454  0.00  0.00    -0.339 N 
ATOM     13  C20 <0> d           8.758  -6.189  -4.979  0.00  0.00     0.314 C 
ATOM     14  O3  <0> d           9.462  -7.180  -4.956  0.00  0.00    -0.248 OA
ATOM     15  N3  <0> d           9.218  -5.049  -5.532  0.00  0.00    -0.352 N 
ATOM     16  H20 <0> d           8.657  -4.258  -5.550  0.00  0.00     0.160 HD
ATOM     17  H21 <0> d          10.111  -5.019  -5.910  0.00  0.00     0.160 HD
ATOM     18  H19 <0> d           6.957  -5.440  -4.472  0.00  0.00     0.164 HD
ENDBRANCH  11  12
ENDBRANCH   8  11
ENDBRANCH   3   5
BRANCH   1  19
ATOM     19  C11 <0> d           0.072  -5.358  -0.645  0.00  0.00     0.144 C 
BRANCH  19  20
ATOM     20  C6  <0> d           0.060  -4.193   0.311  0.00  0.00    -0.014 A 
ATOM     21  C5  <0> d           0.030  -2.768  -0.037  0.00  0.00     0.007 A 
ATOM     22  C4  <0> d           0.006  -2.057  -1.236  0.00  0.00     0.015 A 
ATOM     23  C8  <0> d           0.030  -2.082   1.189  0.00  0.00     0.092 A 
ATOM     24  C3  <0> d          -0.019  -0.690  -1.214  0.00  0.00     0.008 A 
ATOM     25  C2  <0> d          -0.019  -0.007  -0.007  0.00  0.00    -0.053 A 
ATOM     26  C1  <0> d          -0.047   1.500  -0.002  0.00  0.00     0.049 C 
ATOM     27  C9  <0> d           0.011  -0.692   1.189  0.00  0.00    -0.021 A 
ATOM     28  C10 <0> d           0.016   0.063   2.493  0.00  0.00     0.052 C 
ATOM     29  O1  <0> d           0.058  -3.009   2.167  0.00  0.00    -0.321 OA
ATOM     30  C7  <0> d           0.075  -4.250   1.650  0.00  0.00     0.151 A 
ENDBRANCH  19  20
ENDBRANCH   1  19
TORSDOF 5
