REMARK  8 active torsions:
REMARK  status: ('A' for Active; 'I' for Inactive)
REMARK    1  A    between atoms: C4_4  and  S1_7 
REMARK    2  A    between atoms: S1_7  and  C7_10 
REMARK    3  A    between atoms: C7_10  and  C8_11 
REMARK    4  A    between atoms: C7_10  and  C16_24 
REMARK    5  A    between atoms: C8_11  and  N1_12 
REMARK       I    between atoms: N1_12  and  C9_13 
REMARK    6  A    between atoms: C9_13  and  C10_15 
REMARK       I    between atoms: C10_15  and  N2_17 
REMARK    7  A    between atoms: N2_17  and  C11_18 
REMARK    8  A    between atoms: C11_18  and  C12_19 
ROOT
ATOM      1  C7  <0> d           3.054   4.314  -1.758  0.00  0.00     0.171 C 
ENDROOT
BRANCH   1   2
ATOM      2  S1  <0> d           2.670   4.067  -0.003  0.00  0.00     0.185 S 
ATOM      3  O1  <0> d           2.356   5.310   0.610  0.00  0.00    -0.222 OA
ATOM      4  O2  <0> d           3.619   3.189   0.587  0.00  0.00    -0.222 OA
BRANCH   2   5
ATOM      5  C4  <0> d           1.156   3.165   0.008  0.00  0.00     0.060 A 
ATOM      6  C3  <0> d           1.175   1.783   0.000  0.00  0.00     0.023 A 
ATOM      7  C2  <0> d          -0.013   1.076   0.008  0.00  0.00     0.002 A 
ATOM      8  C1  <0> d          -1.219   1.751   0.017  0.00  0.00     0.000 A 
ATOM      9  C6  <0> d          -1.238   3.133   0.030  0.00  0.00     0.002 A 
ATOM     10  C5  <0> d          -0.050   3.840   0.022  0.00  0.00     0.023 A 
ENDBRANCH   2   5
ENDBRANCH   1   2
BRANCH   1  11
ATOM     11  C8  <0> d           4.422   4.985  -1.892  0.00  0.00     0.148 C 
BRANCH  11  12
ATOM     12  N1  <0> d           4.400   6.281  -1.209  0.00  0.00    -0.351 N 
ATOM     13  C9  <0> d           5.503   7.055  -1.196  0.00  0.00     0.309 C 
ATOM     14  O3  <0> d           6.516   6.677  -1.749  0.00  0.00    -0.262 OA
ATOM     15  H9  <0> d           3.591   6.583  -0.767  0.00  0.00     0.162 HD
BRANCH  13  16
ATOM     16  C10 <0> d           5.481   8.377  -0.500  0.00  0.00     0.309 C 
ATOM     17  O4  <0> d           4.468   8.754   0.053  0.00  0.00    -0.262 OA
ATOM     18  N2  <0> d           6.584   9.150  -0.486  0.00  0.00    -0.347 N 
ATOM     19  H10 <0> d           7.393   8.849  -0.928  0.00  0.00     0.163 HD
BRANCH  18  20
ATOM     20  C11 <0> d           6.562  10.447   0.196  0.00  0.00     0.188 C 
BRANCH  20  21
ATOM     21  C12 <0> d           7.910  11.107   0.065  0.00  0.00     0.070 A 
ATOM     22  O5  <0> d           8.936  10.976   0.922  0.00  0.00    -0.325 OA
ATOM     23  C15 <0> d           9.979  11.702   0.487  0.00  0.00     0.142 A 
ATOM     24  C14 <0> d           9.622  12.316  -0.656  0.00  0.00     0.027 A 
ATOM     25  C13 <0> d           8.288  11.932  -0.928  0.00  0.00     0.036 A 
ENDBRANCH  20  21
ENDBRANCH  18  20
ENDBRANCH  13  16
ENDBRANCH  11  12
ENDBRANCH   1  11
BRANCH   1  26
ATOM     26  C16 <0> d           3.076   2.981  -2.460  0.00  0.00     0.003 A 
ATOM     27  S2  <0> d           4.113   1.562  -2.145  0.00  0.00    -0.105 SA
ATOM     28  C19 <0> d           3.462   0.488  -3.413  0.00  0.00     0.050 A 
ATOM     29  C18 <0> d           2.512   1.270  -3.983  0.00  0.00     0.008 A 
ATOM     30  C17 <0> d           2.311   2.546  -3.491  0.00  0.00     0.016 A 
ENDBRANCH   1  26
TORSDOF 8
