REMARK  5 active torsions:
REMARK  status: ('A' for Active; 'I' for Inactive)
REMARK    1  A    between atoms: C3_3  and  N1_9 
REMARK       I    between atoms: N1_9  and  C8_10 
REMARK    2  A    between atoms: C8_10  and  C9_12 
REMARK    3  A    between atoms: C9_12  and  O2_13 
REMARK    4  A    between atoms: O2_13  and  C10_14 
REMARK    5  A    between atoms: C10_14  and  C11_16 
ROOT
ATOM      1  O2  <0> d           0.294  -0.809  -5.965  0.00  0.00    -0.311 OA
ENDROOT
BRANCH   1   2
ATOM      2  C9  <0> d           0.192   0.111  -4.876  0.00  0.00     0.281 C 
BRANCH   2   3
ATOM      3  C8  <0> d           0.095  -0.653  -3.581  0.00  0.00     0.246 C 
ATOM      4  N1  <0> d          -0.010   0.011  -2.413  0.00  0.00    -0.325 N 
ATOM      5  H8  <0> d          -0.104   0.977  -2.411  0.00  0.00     0.169 HD
ATOM      6  O1  <0> d           0.112  -1.866  -3.590  0.00  0.00    -0.271 OA
BRANCH   4   7
ATOM      7  C3  <0> d           0.017  -0.692  -1.204  0.00  0.00     0.042 A 
ATOM      8  C2  <0> d          -0.583  -0.153  -0.073  0.00  0.00    -0.013 A 
ATOM      9  C1  <0> d          -1.263   1.190  -0.146  0.00  0.00     0.052 C 
ATOM     10  C7  <0> d          -0.550  -0.848   1.122  0.00  0.00     0.042 A 
ATOM     11  C6  <0> d           0.069  -2.084   1.188  0.00  0.00     0.024 A 
ATOM     12 Cl1  <0> d          -1.293  -0.173   2.538  0.00  0.00    -0.084 Cl
ATOM     13  C5  <0> d           0.667  -2.621   0.064  0.00  0.00     0.004 A 
ATOM     14  C4  <0> d           0.642  -1.929  -1.132  0.00  0.00     0.030 A 
ENDBRANCH   4   7
ENDBRANCH   2   3
ENDBRANCH   1   2
BRANCH   1  15
ATOM     15  C10 <0> d           0.389  -0.286  -7.198  0.00  0.00     0.277 C 
ATOM     16  O3  <0> d           0.385   0.913  -7.347  0.00  0.00    -0.264 OA
BRANCH  15  17
ATOM     17  C11 <0> d           0.500  -1.194  -8.395  0.00  0.00     0.183 A 
ATOM     18  S1  <0> d          -1.128  -1.387  -9.229  0.00  0.00    -0.090 SA
ATOM     19  C14 <0> d          -0.689  -0.691 -10.803  0.00  0.00     0.112 A 
ATOM     20  C13 <0> d           0.733  -0.312 -10.662  0.00  0.00     0.073 A 
ATOM     21  N2  <0> d          -1.327  -0.479 -11.929  0.00  0.00    -0.226 NA
ATOM     22  C12 <0> d           1.329  -0.554  -9.485  0.00  0.00    -0.042 A 
ATOM     23  C16 <0> d           1.324   0.306 -11.892  0.00  0.00     0.281 A 
ATOM     24  C18 <0> d           2.776  -0.199  -9.257  0.00  0.00     0.046 C 
ATOM     25  N3  <0> d           0.532   0.452 -12.960  0.00  0.00    -0.194 NA
ATOM     26  O4  <0> d           2.488   0.667 -11.918  0.00  0.00    -0.265 OA
ATOM     27  C15 <0> d          -0.725   0.076 -12.968  0.00  0.00     0.127 A 
ATOM     28  C17 <0> d          -1.524   0.287 -14.228  0.00  0.00     0.093 C 
ENDBRANCH  15  17
ENDBRANCH   1  15
TORSDOF 5
