REMARK  7 active torsions:
REMARK  status: ('A' for Active; 'I' for Inactive)
REMARK    1  A    between atoms: N1_2  and  S1_3 
REMARK    2  A    between atoms: S1_3  and  C2_6 
REMARK    3  A    between atoms: C7_11  and  N2_12 
REMARK    4  A    between atoms: N2_12  and  C8_13 
REMARK    5  A    between atoms: C8_13  and  C9_14 
REMARK    6  A    between atoms: C12_17  and  C15_20 
REMARK    7  A    between atoms: C15_20  and  N3_21 
ROOT
ATOM      1  N2  <0> d           2.144   1.790  -1.576  0.00  0.00    -0.384 N 
ATOM      2  H9  <0> d           1.183   1.673  -1.513  0.00  0.00     0.160 HD
ENDROOT
BRANCH   1   3
ATOM      3  C7  <0> d           2.994   0.696  -1.398  0.00  0.00     0.051 A 
ATOM      4  C2  <0> d           2.464  -0.577  -1.227  0.00  0.00     0.105 A 
ATOM      5  C3  <0> d           3.307  -1.657  -1.057  0.00  0.00     0.027 A 
ATOM      6  C4  <0> d           4.678  -1.472  -1.050  0.00  0.00     0.002 A 
ATOM      7  C5  <0> d           5.209  -0.206  -1.214  0.00  0.00     0.002 A 
ATOM      8  C6  <0> d           4.371   0.878  -1.385  0.00  0.00     0.031 A 
BRANCH   4   9
ATOM      9  S1  <0> d           0.718  -0.813  -1.234  0.00  0.00     0.260 S 
ATOM     10  O1  <0> d           0.175   0.141  -0.332  0.00  0.00    -0.200 OA
ATOM     11  O2  <0> d           0.497  -2.209  -1.091  0.00  0.00    -0.200 OA
BRANCH   9  12
ATOM     12  N1  <0> d           0.174  -0.400  -2.743  0.00  0.00    -0.320 N 
ATOM     13  C1  <0> d           0.610  -1.166  -3.914  0.00  0.00     0.159 C 
ATOM     14  H4  <0> d          -0.432   0.349  -2.852  0.00  0.00     0.171 HD
ENDBRANCH   9  12
ENDBRANCH   4   9
ENDBRANCH   1   3
BRANCH   1  15
ATOM     15  C8  <0> d           2.704   3.114  -1.857  0.00  0.00     0.158 C 
BRANCH  15  16
ATOM     16  C9  <0> d           1.585   4.112  -2.006  0.00  0.00    -0.041 A 
ATOM     17  C14 <0> d           1.120   4.798  -0.900  0.00  0.00     0.009 A 
ATOM     18  C13 <0> d           0.096   5.717  -1.036  0.00  0.00     0.009 A 
ATOM     19  C12 <0> d          -0.470   5.942  -2.277  0.00  0.00    -0.033 A 
ATOM     20  C11 <0> d          -0.009   5.251  -3.383  0.00  0.00     0.009 A 
ATOM     21  C10 <0> d           1.018   4.336  -3.247  0.00  0.00     0.009 A 
BRANCH  19  22
ATOM     22  C15 <0> d          -1.589   6.940  -2.426  0.00  0.00     0.268 C 
BRANCH  22  23
ATOM     23  N3  <0> d          -2.878   6.263  -2.235  0.00  0.00    -0.075 N 
ATOM     24  H18 <0> d          -2.982   5.536  -2.927  0.00  0.00     0.274 HD
ATOM     25  H19 <0> d          -2.911   5.856  -1.312  0.00  0.00     0.274 HD
ATOM     26  H20 <0> d          -3.627   6.931  -2.334  0.00  0.00     0.274 HD
ENDBRANCH  22  23
ENDBRANCH  19  22
ENDBRANCH  15  16
ENDBRANCH   1  15
TORSDOF 7
