REMARK  4 active torsions:
REMARK  status: ('A' for Active; 'I' for Inactive)
REMARK    1  A    between atoms: C6_6  and  C7_7 
REMARK    2  A    between atoms: N1_12  and  C10_13 
REMARK    3  A    between atoms: C10_13  and  C11_14 
REMARK    4  A    between atoms: C11_14  and  N2_15 
ROOT
ATOM      1  C7  <0> d           6.030   1.326  -1.456  0.00  0.00     0.054 A 
ATOM      2  C8  <0> d           7.244   0.803  -1.728  0.00  0.00     0.085 A 
ATOM      3  S1  <0> d           7.997   0.764  -0.111  0.00  0.00    -0.038 SA
ATOM      4  C9  <0> d           6.680   1.436   0.796  0.00  0.00     0.290 A 
ATOM      5  O1  <0> d           6.614   1.659   1.991  0.00  0.00    -0.259 OA
ATOM      6  N1  <0> d           5.745   1.647  -0.156  0.00  0.00    -0.306 N 
ENDROOT
BRANCH   1   7
ATOM      7  C6  <0> d           5.037   1.546  -2.530  0.00  0.00    -0.008 A 
ATOM      8  C1  <0> d           5.365   2.322  -3.642  0.00  0.00     0.016 A 
ATOM      9  C2  <0> d           4.439   2.524  -4.639  0.00  0.00     0.030 A 
ATOM     10  C3  <0> d           3.165   1.956  -4.549  0.00  0.00     0.034 A 
ATOM     11  N3  <0> d           2.096   2.042  -5.444  0.00  0.00    -0.389 N 
ATOM     12  C4  <0> d           2.843   1.185  -3.441  0.00  0.00    -0.029 A 
ATOM     13  C17 <0> d           0.950   1.284  -4.934  0.00  0.00     0.124 A 
ATOM     14  H21 <0> d           2.022   2.569  -6.407  0.00  0.00     0.159 HD
ATOM     15  C16 <0> d           1.419   0.697  -3.593  0.00  0.00     0.060 A 
ATOM     16  C5  <0> d           3.767   0.973  -2.441  0.00  0.00     0.023 A 
ENDBRANCH   1   7
BRANCH   6  17
ATOM     17  C10 <0> d           4.443   2.219   0.198  0.00  0.00     0.161 C 
BRANCH  17  18
ATOM     18  C11 <0> d           4.473   3.732  -0.025  0.00  0.00     0.255 C 
BRANCH  18  19
ATOM     19  N2  <0> d           3.185   4.312   0.380  0.00  0.00    -0.070 N 
ATOM     20  C15 <0> d           3.210   5.782   0.271  0.00  0.00     0.235 C 
ATOM     21  C14 <0> d           2.855   6.350   1.661  0.00  0.00     0.029 C 
ATOM     22  C13 <0> d           2.095   5.177   2.334  0.00  0.00     0.029 C 
ATOM     23  C12 <0> d           2.856   3.949   1.775  0.00  0.00     0.235 C 
ATOM     24  H22 <0> d           2.424   3.904  -0.302  0.00  0.00     0.279 HD
ENDBRANCH  18  19
ENDBRANCH  17  18
ENDBRANCH   6  17
TORSDOF 4
