REMARK  3 active torsions:
REMARK  status: ('A' for Active; 'I' for Inactive)
REMARK    1  A    between atoms: C9_9  and  N2_12 
REMARK    2  A    between atoms: N2_12  and  S1_13 
REMARK    3  A    between atoms: S1_13  and  N3_16 
ROOT
ATOM      1  C1  <0> d          -0.018   1.503   0.010  0.00  0.00     0.068 C 
ATOM      2  C2  <0> d           0.002  -0.004   0.002  0.00  0.00     0.005 A 
ATOM      3  C3  <0> d           0.005  -0.676  -1.219  0.00  0.00     0.025 A 
ATOM      4  C4  <0> d           0.024  -2.041  -1.245  0.00  0.00     0.015 A 
ATOM      5  C5  <0> d           0.040  -2.729  -0.016  0.00  0.00    -0.007 A 
ATOM      6  C6  <0> d           0.060  -4.133   0.034  0.00  0.00     0.014 A 
ATOM      7  C7  <0> d           0.076  -4.769   1.237  0.00  0.00     0.003 A 
ATOM      8  C8  <0> d           0.071  -4.049   2.429  0.00  0.00     0.035 A 
ATOM      9  C9  <0> d           0.051  -2.672   2.421  0.00  0.00     0.099 A 
ATOM     10  C10 <0> d           0.035  -1.983   1.187  0.00  0.00     0.072 A 
ATOM     11  N1  <0> d           0.022  -0.648   1.143  0.00  0.00    -0.357 N 
ATOM     12  H19 <0> d           0.022  -0.146   1.973  0.00  0.00     0.166 HD
ENDROOT
BRANCH   9  13
ATOM     13  N2  <0> d           0.045  -1.962   3.621  0.00  0.00    -0.144 NA
BRANCH  13  14
ATOM     14  S1  <0> d           0.063  -2.776   5.064  0.00  0.00     0.342 S 
ATOM     15  O1  <0> d          -1.172  -3.473   5.152  0.00  0.00    -0.180 OA
ATOM     16  O2  <0> d           1.319  -3.437   5.142  0.00  0.00    -0.180 OA
BRANCH  14  17
ATOM     17  N3  <0> d           0.051  -1.639   6.267  0.00  0.00    -0.289 N 
ATOM     18  C14 <0> d          -1.216  -1.137   6.822  0.00  0.00     0.164 C 
ATOM     19  C13 <0> d          -1.184   0.390   6.815  0.00  0.00     0.253 C 
ATOM     20  N4  <0> d           0.015   0.859   7.521  0.00  0.00    -0.072 N 
ATOM     21  C12 <0> d           1.220   0.434   6.797  0.00  0.00     0.253 C 
ATOM     22  H13 <0> d           0.029   0.471   8.452  0.00  0.00     0.277 HD
ATOM     23  H18 <0> d          -0.003   1.866   7.579  0.00  0.00     0.277 HD
ATOM     24  C11 <0> d           1.307  -1.096   6.808  0.00  0.00     0.164 C 
ENDBRANCH  14  17
ENDBRANCH  13  14
ENDBRANCH   9  13
TORSDOF 3
