REMARK  0 active torsions:
REMARK  status: ('A' for Active; 'I' for Inactive)
ROOT
ATOM      1  C1  <0> d          -0.017   1.378   0.010  0.00  0.00     0.021 A 
ATOM      2  C2  <0> d           0.002  -0.004   0.002  0.00  0.00     0.032 A 
ATOM      3  C3  <0> d           1.214  -0.672  -0.013  0.00  0.00     0.053 A 
ATOM      4  C4  <0> d           2.414   0.065  -0.015  0.00  0.00     0.068 A 
ATOM      5  C5  <0> d           2.385   1.454  -0.010  0.00  0.00     0.039 A 
ATOM      6  C6  <0> d           1.165   2.103   0.002  0.00  0.00     0.012 A 
ATOM      7 Br1  <0> d           1.107   3.993   0.009  0.00  0.00    -0.051 Br
ATOM      8  C7  <0> d           3.675  -0.704  -0.018  0.00  0.00     0.304 C 
ATOM      9  O1  <0> d           4.717  -0.231  -0.427  0.00  0.00    -0.259 OA
ATOM     10  O2  <0> d           3.602  -1.973   0.466  0.00  0.00    -0.223 OA
ATOM     11  C8  <0> d           2.484  -2.666   0.175  0.00  0.00     0.373 C 
ATOM     12  O3  <0> d           2.546  -3.877   0.096  0.00  0.00    -0.238 OA
ATOM     13  N1  <0> d           1.299  -2.058  -0.031  0.00  0.00    -0.301 N 
ATOM     14  H1  <0> d           0.504  -2.590  -0.191  0.00  0.00     0.171 HD
ENDROOT
TORSDOF 0
