REMARK  3 active torsions:
REMARK  status: ('A' for Active; 'I' for Inactive)
REMARK    1  A    between atoms: C2_2  and  C3_3 
REMARK    2  A    between atoms: C3_3  and  C4_4 
REMARK    3  A    between atoms: C4_4  and  N1_5 
ROOT
ATOM      1  N1  <0> d           1.471  -2.526   2.420  0.00  0.00    -0.288 N 
ATOM      2  C5  <0> d           2.791  -2.744   2.436  0.00  0.00     0.233 A 
ATOM      3  O1  <0> d           3.541  -2.571   1.499  0.00  0.00    -0.272 OA
ATOM      4  C6  <0> d           3.203  -3.240   3.804  0.00  0.00     0.127 A 
ATOM      5  C7  <0> d           3.644  -4.715   3.695  0.00  0.00     0.232 C 
ATOM      6  N2  <0> d           2.969  -5.400   4.829  0.00  0.00     0.113 N 
ATOM      7  C8  <0> d           1.638  -4.769   4.891  0.00  0.00     0.279 A 
ATOM      8  C9  <0> d           1.863  -3.266   4.593  0.00  0.00     0.147 A 
ATOM      9  C10 <0> d           0.852  -2.782   3.578  0.00  0.00     0.234 A 
ATOM     10  O2  <0> d          -0.336  -2.649   3.782  0.00  0.00    -0.272 OA
ATOM     11  C11 <0> d           0.997  -4.969   6.236  0.00  0.00     0.018 A 
ATOM     12  C12 <0> d           1.361  -4.627   7.519  0.00  0.00     0.013 A 
ATOM     13  C13 <0> d           0.540  -4.958   8.583  0.00  0.00     0.008 A 
ATOM     14  C14 <0> d          -0.645  -5.631   8.353  0.00  0.00    -0.054 A 
ATOM     15  C15 <0> d          -1.015  -5.974   7.069  0.00  0.00    -0.029 A 
ATOM     16  C16 <0> d          -0.194  -5.645   5.993  0.00  0.00     0.050 A 
ATOM     17  N3  <0> d          -0.347  -5.878   4.624  0.00  0.00    -0.324 N 
ATOM     18  C17 <0> d           0.687  -5.395   3.908  0.00  0.00     0.267 A 
ATOM     19  O3  <0> d           0.824  -5.453   2.705  0.00  0.00    -0.270 OA
ATOM     20  C18 <0> d          -2.310  -6.707   6.830  0.00  0.00     0.051 C 
ATOM     21  C19 <0> d          -1.539  -5.993   9.512  0.00  0.00     0.049 C 
ATOM     22  C20 <0> d           5.164  -4.827   3.831  0.00  0.00     0.043 C 
ATOM     23  H13 <0> d           2.892  -6.391   4.658  0.00  0.00     0.318 HD
ATOM     24  H16 <0> d          -1.109  -6.336   4.234  0.00  0.00     0.169 HD
ENDROOT
BRANCH   1  25
ATOM     25  C4  <0> d           0.763  -2.041   1.233  0.00  0.00     0.135 C 
BRANCH  25  26
ATOM     26  C3  <0> d           0.742  -0.511   1.242  0.00  0.00     0.020 C 
BRANCH  26  27
ATOM     27  C2  <0> d           0.002  -0.004   0.002  0.00  0.00    -0.003 C 
ATOM     28  C1  <0> d          -0.019   1.526   0.010  0.00  0.00     0.005 C 
ENDBRANCH  26  27
ENDBRANCH  25  26
ENDBRANCH   1  25
TORSDOF 3
