REMARK  4 active torsions:
REMARK  status: ('A' for Active; 'I' for Inactive)
REMARK    1  A    between atoms: C9_11  and  S2_13 
REMARK    2  A    between atoms: S2_13  and  C10_14 
REMARK    3  A    between atoms: C10_14  and  C11_15 
REMARK       I    between atoms: C11_15  and  N3_17 
REMARK       I    between atoms: N3_17  and  C12_18 
REMARK       I    between atoms: C12_18  and  N4_20 
REMARK    4  A    between atoms: N4_20  and  C13_21 
ROOT
ATOM      1  C10 <0> d          -1.213   3.508   0.027  0.00  0.00     0.184 C 
ENDROOT
BRANCH   1   2
ATOM      2  S2  <0> d          -2.927   4.088   0.038  0.00  0.00    -0.100 SA
BRANCH   2   3
ATOM      3  C9  <0> d          -2.661   5.830   0.046  0.00  0.00     0.108 A 
ATOM      4  C3  <0> d          -3.763   6.729   0.057  0.00  0.00     0.043 A 
ATOM      5  C2  <0> d          -3.433   8.096   0.063  0.00  0.00     0.113 A 
ATOM      6  C4  <0> d          -5.201   6.415   0.060  0.00  0.00    -0.029 A 
ATOM      7  N1  <0> d          -2.177   8.502   0.059  0.00  0.00    -0.234 NA
ATOM      8  S1  <0> d          -5.012   8.899   0.075  0.00  0.00    -0.073 SA
ATOM      9  C1  <0> d          -1.194   7.622   0.049  0.00  0.00     0.235 A 
ATOM     10  N2  <0> d          -1.431   6.323   0.049  0.00  0.00    -0.234 NA
ATOM     11  C5  <0> d          -6.050   7.455   0.072  0.00  0.00    -0.008 A 
ATOM     12  C6  <0> d          -7.489   7.014   0.079  0.00  0.00     0.047 C 
ATOM     13  C7  <0> d          -7.438   5.531   0.507  0.00  0.00     0.010 C 
ATOM     14  C8  <0> d          -6.024   5.123   0.051  0.00  0.00     0.041 C 
ENDBRANCH   2   3
ENDBRANCH   1   2
BRANCH   1  15
ATOM     15  C11 <0> d          -1.192   2.002   0.019  0.00  0.00     0.235 C 
ATOM     16  O1  <0> d          -2.234   1.381   0.020  0.00  0.00    -0.272 OA
ATOM     17  N3  <0> d          -0.016   1.344   0.009  0.00  0.00    -0.279 N 
ATOM     18  C12 <0> d           0.002  -0.004   0.002  0.00  0.00     0.323 C 
ATOM     19  H10 <0> d           0.817   1.840   0.004  0.00  0.00     0.173 HD
ATOM     20  O2  <0> d          -1.042  -0.626   0.009  0.00  0.00    -0.247 OA
ATOM     21  N4  <0> d           1.178  -0.662  -0.013  0.00  0.00    -0.338 N 
ATOM     22  H11 <0> d           2.012  -0.166  -0.018  0.00  0.00     0.164 HD
BRANCH  21  23
ATOM     23  C13 <0> d           1.198  -2.127  -0.021  0.00  0.00     0.086 C 
ATOM     24  C18 <0> d           2.506  -2.616  -0.646  0.00  0.00     0.025 C 
ATOM     25  C17 <0> d           2.527  -4.146  -0.654  0.00  0.00     0.002 C 
ATOM     26  C16 <0> d           2.422  -4.665   0.781  0.00  0.00     0.000 C 
ATOM     27  C15 <0> d           1.114  -4.176   1.406  0.00  0.00     0.002 C 
ATOM     28  C14 <0> d           1.093  -2.646   1.415  0.00  0.00     0.025 C 
ENDBRANCH  21  23
ENDBRANCH   1  15
TORSDOF 4
