REMARK  4 active torsions:
REMARK  status: ('A' for Active; 'I' for Inactive)
REMARK    1  A    between atoms: C3_4  and  C5_7 
REMARK    2  A    between atoms: C8_10  and  N2_13 
REMARK    3  A    between atoms: N2_13  and  S2_14 
REMARK    4  A    between atoms: S2_14  and  C11_17 
ROOT
ATOM      1  N2  <0> d          -4.494   5.428   1.571  0.00  0.00    -0.281 N 
ATOM      2  H9  <0> d          -4.912   4.415   1.665  0.00  0.00     0.179 HD
ENDROOT
BRANCH   1   3
ATOM      3  C8  <0> d          -3.529   5.873   2.477  0.00  0.00     0.042 A 
ATOM      4  C7  <0> d          -3.873   6.792   3.461  0.00  0.00     0.031 A 
ATOM      5  C6  <0> d          -2.922   7.233   4.357  0.00  0.00     0.016 A 
ATOM      6  C5  <0> d          -1.615   6.756   4.275  0.00  0.00    -0.007 A 
ATOM      7  C10 <0> d          -1.272   5.834   3.287  0.00  0.00     0.016 A 
ATOM      8  C9  <0> d          -2.228   5.392   2.397  0.00  0.00     0.031 A 
BRANCH   6   9
ATOM      9  C3  <0> d          -0.589   7.229   5.237  0.00  0.00     0.074 A 
ATOM     10  N1  <0> d          -0.892   8.108   6.180  0.00  0.00    -0.245 NA
ATOM     11  C2  <0> d           0.006   8.528   7.038  0.00  0.00     0.071 A 
ATOM     12  C1  <0> d          -0.155   9.511   8.168  0.00  0.00     0.078 C 
ATOM     13  S1  <0> d           1.431   7.670   6.538  0.00  0.00    -0.085 SA
ATOM     14  C4  <0> d           0.700   6.775   5.175  0.00  0.00     0.084 A 
ENDBRANCH   6   9
ENDBRANCH   1   3
BRANCH   1  15
ATOM     15  S2  <0> d          -5.010   6.426   0.354  0.00  0.00     0.263 S 
ATOM     16  O1  <0> d          -5.359   7.662   0.963  0.00  0.00    -0.200 OA
ATOM     17  O2  <0> d          -5.931   5.674  -0.425  0.00  0.00    -0.200 OA
BRANCH  15  18
ATOM     18  C11 <0> d          -3.621   6.748  -0.680  0.00  0.00     0.082 A 
ATOM     19  C16 <0> d          -2.862   7.885  -0.478  0.00  0.00     0.065 A 
ATOM     20  C15 <0> d          -1.772   8.142  -1.294  0.00  0.00     0.111 A 
ATOM     21  C14 <0> d          -1.440   7.245  -2.309  0.00  0.00     0.097 A 
ATOM     22  O3  <0> d          -0.874   9.156  -1.344  0.00  0.00    -0.257 OA
ATOM     23  C13 <0> d          -2.200   6.102  -2.500  0.00  0.00     0.036 A 
ATOM     24  N3  <0> d          -0.314   7.763  -2.947  0.00  0.00    -0.185 NA
ATOM     25  C12 <0> d          -3.288   5.856  -1.685  0.00  0.00     0.028 A 
ATOM     26  C17 <0> d          -0.001   8.924  -2.337  0.00  0.00     0.392 A 
ATOM     27  O4  <0> d           0.927   9.649  -2.641  0.00  0.00    -0.236 OA
ENDBRANCH  15  18
ENDBRANCH   1  15
TORSDOF 4
