REMARK  9 active torsions:
REMARK  status: ('A' for Active; 'I' for Inactive)
REMARK    1  A    between atoms: C5_5  and  S1_8 
REMARK    2  A    between atoms: S1_8  and  C8_11 
REMARK    3  A    between atoms: C8_11  and  N1_12 
REMARK       I    between atoms: N1_12  and  C9_13 
REMARK    4  A    between atoms: C9_13  and  C10_15 
REMARK    5  A    between atoms: C10_15  and  C11_16 
REMARK    6  A    between atoms: C10_15  and  N2_26 
REMARK    7  A    between atoms: C14_19  and  C17_22 
REMARK       I    between atoms: N2_26  and  C19_28 
REMARK    8  A    between atoms: C19_28  and  C20_30 
REMARK    9  A    between atoms: C23_33  and  O5_36 
ROOT
ATOM      1  C10 <0> d           3.214  -4.926   3.554  0.00  0.00     0.212 C 
ENDROOT
BRANCH   1   2
ATOM      2  C9  <0> d           2.674  -5.489   2.265  0.00  0.00     0.246 C 
ATOM      3  N1  <0> d           2.624  -4.717   1.161  0.00  0.00    -0.345 N 
ATOM      4  H11 <0> d           2.937  -3.800   1.196  0.00  0.00     0.163 HD
ATOM      5  O3  <0> d           2.283  -6.636   2.221  0.00  0.00    -0.271 OA
BRANCH   3   6
ATOM      6  C8  <0> d           2.099  -5.265  -0.092  0.00  0.00     0.268 C 
BRANCH   6   7
ATOM      7  S1  <0> d           0.341  -4.844  -0.246  0.00  0.00     0.192 S 
ATOM      8  O1  <0> d          -0.338  -5.127   0.969  0.00  0.00    -0.221 OA
ATOM      9  O2  <0> d          -0.168  -5.314  -1.487  0.00  0.00    -0.221 OA
BRANCH   7  10
ATOM     10  C5  <0> d           0.307  -3.087  -0.382  0.00  0.00     0.060 A 
ATOM     11  C4  <0> d           0.376  -2.489  -1.627  0.00  0.00     0.024 A 
ATOM     12  C3  <0> d           0.348  -1.111  -1.734  0.00  0.00     0.008 A 
ATOM     13  C2  <0> d           0.250  -0.331  -0.596  0.00  0.00    -0.062 A 
ATOM     14  C1  <0> d           0.220   1.171  -0.713  0.00  0.00     0.048 C 
ATOM     15  C7  <0> d           0.187  -0.929   0.648  0.00  0.00     0.008 A 
ATOM     16  C6  <0> d           0.210  -2.308   0.755  0.00  0.00     0.024 A 
ENDBRANCH   7  10
ENDBRANCH   6   7
ENDBRANCH   3   6
ENDBRANCH   1   2
BRANCH   1  17
ATOM     17  C11 <0> d           2.381  -3.742   3.974  0.00  0.00    -0.026 A 
ATOM     18  C16 <0> d           1.017  -3.884   4.146  0.00  0.00     0.010 A 
ATOM     19  C15 <0> d           0.253  -2.799   4.535  0.00  0.00     0.017 A 
ATOM     20  C14 <0> d           0.852  -1.571   4.743  0.00  0.00     0.047 A 
ATOM     21  C13 <0> d           2.216  -1.428   4.565  0.00  0.00     0.017 A 
ATOM     22  C12 <0> d           2.980  -2.514   4.181  0.00  0.00     0.010 A 
BRANCH  20  23
ATOM     23  C17 <0> d           0.019  -0.387   5.163  0.00  0.00     0.417 C 
ATOM     24  F1  <0> d          -0.436   0.290   4.027  0.00  0.00    -0.166 F 
ATOM     25  F2  <0> d          -1.076  -0.831   5.912  0.00  0.00    -0.166 F 
ATOM     26  F3  <0> d           0.796   0.477   5.941  0.00  0.00    -0.166 F 
ENDBRANCH  20  23
ENDBRANCH   1  17
BRANCH   1  27
ATOM     27  N2  <0> d           3.162  -5.954   4.596  0.00  0.00    -0.335 N 
ATOM     28  C18 <0> d           2.306  -5.764   5.770  0.00  0.00     0.154 C 
ATOM     29  C19 <0> d           3.900  -7.074   4.475  0.00  0.00     0.254 C 
ATOM     30  O4  <0> d           4.554  -7.266   3.468  0.00  0.00    -0.267 OA
BRANCH  29  31
ATOM     31  C20 <0> d           3.916  -8.070   5.565  0.00  0.00     0.032 A 
ATOM     32  C25 <0> d           5.102  -8.734   5.891  0.00  0.00     0.020 A 
ATOM     33  C24 <0> d           5.113  -9.657   6.912  0.00  0.00     0.037 A 
ATOM     34  C23 <0> d           3.945  -9.938   7.611  0.00  0.00     0.065 A 
ATOM     35  C22 <0> d           2.763  -9.284   7.286  0.00  0.00     0.037 A 
ATOM     36  C21 <0> d           2.744  -8.354   6.270  0.00  0.00     0.020 A 
BRANCH  34  37
ATOM     37  O5  <0> d           3.960 -10.853   8.613  0.00  0.00    -0.361 OA
ATOM     38  H23 <0> d           3.770 -11.756   8.325  0.00  0.00     0.217 HD
ENDBRANCH  34  37
ENDBRANCH  29  31
ENDBRANCH   1  27
TORSDOF 9
