REMARK  4 active torsions:
REMARK  status: ('A' for Active; 'I' for Inactive)
REMARK    1  A    between atoms: C2_2  and  C18_23 
REMARK    2  A    between atoms: C5_5  and  C6_6 
REMARK    3  A    between atoms: N1_13  and  C12_16 
REMARK    4  A    between atoms: C18_23  and  O4_25 
ROOT
ATOM      1  C1  <0> d          -3.488   7.280   1.149  0.00  0.00     0.058 C 
ATOM      2  C2  <0> d          -2.607   6.485   0.184  0.00  0.00     0.222 C 
ATOM      3  C3  <0> d          -3.445   5.930  -0.955  0.00  0.00     0.140 C 
ATOM      4  C4  <0> d          -2.577   4.655  -1.290  0.00  0.00     0.130 C 
ATOM      5  C5  <0> d          -2.355   4.080   0.047  0.00  0.00     0.241 C 
ATOM      6  C10 <0> d          -3.075   4.294  -2.591  0.00  0.00     0.238 C 
ATOM      7  O1  <0> d          -3.192   3.179  -3.050  0.00  0.00    -0.272 OA
ATOM      8  N1  <0> d          -3.392   5.484  -3.198  0.00  0.00    -0.248 N 
ATOM      9  C11 <0> d          -3.408   6.535  -2.323  0.00  0.00     0.239 C 
ATOM     10  O2  <0> d          -3.394   7.715  -2.599  0.00  0.00    -0.272 OA
ATOM     11  N2  <0> d          -2.036   5.292   0.865  0.00  0.00    -0.047 N 
ATOM     12  H17 <0> d          -2.448   5.197   1.800  0.00  0.00     0.279 HD
ATOM     13  H18 <0> d          -1.018   5.396   0.948  0.00  0.00     0.279 HD
ENDROOT
BRANCH   8  14
ATOM     14  C12 <0> d          -3.668   5.609  -4.567  0.00  0.00     0.084 A 
ATOM     15  C17 <0> d          -4.972   5.472  -5.030  0.00  0.00     0.143 A 
ATOM     16  C16 <0> d          -5.241   5.595  -6.381  0.00  0.00     0.044 A 
ATOM     17  F1  <0> d          -5.975   5.218  -4.161  0.00  0.00    -0.204 F 
ATOM     18  C15 <0> d          -4.214   5.856  -7.270  0.00  0.00     0.003 A 
ATOM     19  C14 <0> d          -2.917   5.992  -6.812  0.00  0.00     0.002 A 
ATOM     20  C13 <0> d          -2.642   5.875  -5.463  0.00  0.00     0.033 A 
ENDBRANCH   8  14
BRANCH   5  21
ATOM     21  C6  <0> d          -1.196   3.116   0.030  0.00  0.00     0.014 A 
ATOM     22  S1  <0> d           0.555   3.464   0.015  0.00  0.00    -0.104 SA
ATOM     23  C9  <0> d           1.146   1.780   0.001  0.00  0.00     0.050 A 
ATOM     24  C8  <0> d          -0.013   1.076   0.008  0.00  0.00     0.008 A 
ATOM     25  C7  <0> d          -1.213   1.761   0.017  0.00  0.00     0.017 A 
ENDBRANCH   5  21
BRANCH   2  26
ATOM     26  C18 <0> d          -1.505   7.359  -0.356  0.00  0.00     0.295 C 
ATOM     27  O3  <0> d          -1.648   7.929  -1.411  0.00  0.00    -0.262 OA
BRANCH  26  28
ATOM     28  O4  <0> d          -0.364   7.504   0.336  0.00  0.00    -0.325 OA
ATOM     29  C19 <0> d           0.655   8.361  -0.244  0.00  0.00     0.213 C 
ENDBRANCH  26  28
ENDBRANCH   2  26
TORSDOF 4
