REMARK  6 active torsions:
REMARK  status: ('A' for Active; 'I' for Inactive)
REMARK    1  A    between atoms: C4_5  and  C5_7 
REMARK    2  A    between atoms: C5_7  and  N3_8 
REMARK    3  A    between atoms: N5_19  and  C13_20 
REMARK    4  A    between atoms: C13_20  and  C14_21 
REMARK    5  A    between atoms: C14_21  and  C15_22 
REMARK    6  A    between atoms: C18_25  and  O3_28 
ROOT
ATOM      1  N3  <0> d          -0.648  -4.772   1.379  0.00  0.00     0.095 N 
ATOM      2  C6  <0> d           0.248  -4.929   0.226  0.00  0.00     0.276 C 
ATOM      3  C7  <0> d          -0.275  -6.049  -0.678  0.00  0.00     0.071 C 
ATOM      4  C8  <0> d          -0.364  -7.344   0.123  0.00  0.00     0.121 A 
ATOM      5  C9  <0> d          -1.240  -7.149   1.356  0.00  0.00     0.071 C 
ATOM      6  C10 <0> d          -0.686  -5.993   2.194  0.00  0.00     0.276 C 
ATOM      7  C11 <0> d          -0.904  -8.462  -0.738  0.00  0.00     0.256 A 
ATOM      8  O1  <0> d          -1.987  -8.514  -1.280  0.00  0.00    -0.270 OA
ATOM      9  N4  <0> d           0.074  -9.391  -0.776  0.00  0.00    -0.272 N 
ATOM     10  C12 <0> d           1.142  -9.011  -0.064  0.00  0.00     0.328 A 
ATOM     11  O2  <0> d           2.150  -9.681   0.051  0.00  0.00    -0.247 OA
ATOM     12  N5  <0> d           0.975  -7.804   0.509  0.00  0.00    -0.315 N 
ATOM     13  C22 <0> d          -0.022 -10.658  -1.506  0.00  0.00     0.164 C 
ENDROOT
BRANCH  12  14
ATOM     14  C13 <0> d           1.939  -7.092   1.352  0.00  0.00     0.133 C 
BRANCH  14  15
ATOM     15  C14 <0> d           2.135  -7.859   2.662  0.00  0.00     0.058 C 
BRANCH  15  16
ATOM     16  C15 <0> d           3.198  -7.179   3.486  0.00  0.00    -0.057 A 
ATOM     17  C20 <0> d           2.846  -6.191   4.387  0.00  0.00     0.010 A 
ATOM     18  C19 <0> d           3.817  -5.570   5.148  0.00  0.00     0.037 A 
ATOM     19  C18 <0> d           5.148  -5.933   5.001  0.00  0.00     0.068 A 
ATOM     20  C17 <0> d           5.500  -6.921   4.093  0.00  0.00     0.037 A 
ATOM     21  C16 <0> d           4.524  -7.542   3.338  0.00  0.00     0.010 A 
BRANCH  19  22
ATOM     22  O3  <0> d           6.106  -5.321   5.746  0.00  0.00    -0.356 OA
ATOM     23  C21 <0> d           5.672  -4.312   6.660  0.00  0.00     0.210 C 
ENDBRANCH  19  22
ENDBRANCH  15  16
ENDBRANCH  14  15
ENDBRANCH  12  14
BRANCH   1  24
ATOM     24  C5  <0> d          -0.264  -3.610   2.190  0.00  0.00     0.348 C 
BRANCH  24  25
ATOM     25  C4  <0> d          -1.434  -3.178   3.036  0.00  0.00     0.110 A 
ATOM     26  N1  <0> d          -2.693  -3.354   2.739  0.00  0.00    -0.352 N 
ATOM     27  C3  <0> d          -3.454  -2.846   3.719  0.00  0.00     0.114 A 
ATOM     28  H30 <0> d          -3.025  -3.785   1.936  0.00  0.00     0.166 HD
ATOM     29  C2  <0> d          -2.636  -2.335   4.659  0.00  0.00     0.022 A 
ATOM     30  C1  <0> d          -3.051  -1.661   5.942  0.00  0.00     0.069 C 
ATOM     31  N2  <0> d          -1.354  -2.540   4.223  0.00  0.00    -0.347 N 
ATOM     32  H29 <0> d          -0.541  -2.278   4.683  0.00  0.00     0.167 HD
ENDBRANCH  24  25
ENDBRANCH   1  24
TORSDOF 6
