REMARK  6 active torsions:
REMARK  status: ('A' for Active; 'I' for Inactive)
REMARK    1  A    between atoms: C2_2  and  N1_3 
REMARK    2  A    between atoms: C4_5  and  C7_9 
REMARK    3  A    between atoms: C7_9  and  N3_10 
REMARK       I    between atoms: N3_10  and  C8_11 
REMARK    4  A    between atoms: C8_11  and  C9_13 
REMARK    5  A    between atoms: C10_14  and  C17_22 
REMARK    6  A    between atoms: C17_22  and  O2_23 
ROOT
ATOM      1  N3  <0> d           1.041  -0.371  -5.540  0.00  0.00    -0.352 N 
ATOM      2  C8  <0> d           0.911  -0.489  -6.877  0.00  0.00     0.259 C 
ATOM      3  O1  <0> d           0.667  -1.574  -7.370  0.00  0.00    -0.267 OA
ATOM      4  H11 <0> d           1.236   0.493  -5.147  0.00  0.00     0.163 HD
ENDROOT
BRANCH   2   5
ATOM      5  C9  <0> d           1.064   0.693  -7.737  0.00  0.00     0.082 A 
ATOM      6  S1  <0> d           1.418   2.376  -7.262  0.00  0.00    -0.083 SA
ATOM      7  C16 <0> d           1.426   3.103  -8.882  0.00  0.00     0.016 A 
ATOM      8  C11 <0> d           1.145   2.010  -9.735  0.00  0.00    -0.009 A 
ATOM      9  C15 <0> d           1.629   4.379  -9.364  0.00  0.00     0.020 A 
ATOM     10  C10 <0> d           0.964   0.773  -9.091  0.00  0.00    -0.000 A 
ATOM     11  C12 <0> d           1.081   2.295 -11.124  0.00  0.00     0.013 A 
ATOM     12  C13 <0> d           1.284   3.556 -11.584  0.00  0.00     0.001 A 
ATOM     13  C14 <0> d           1.559   4.612 -10.722  0.00  0.00     0.001 A 
BRANCH  10  14
ATOM     14  C17 <0> d           0.660  -0.461  -9.900  0.00  0.00     0.208 C 
BRANCH  14  15
ATOM     15  O2  <0> d          -0.755  -0.600 -10.044  0.00  0.00    -0.391 OA
ATOM     16  C18 <0> d          -1.153  -1.746 -10.799  0.00  0.00     0.201 C 
ENDBRANCH  14  15
ENDBRANCH  10  14
ENDBRANCH   2   5
BRANCH   1  17
ATOM     17  C7  <0> d           0.889  -1.549  -4.683  0.00  0.00     0.165 C 
BRANCH  17  18
ATOM     18  C4  <0> d           1.081  -1.150  -3.242  0.00  0.00     0.009 A 
ATOM     19  C3  <0> d           0.110  -0.737  -2.395  0.00  0.00     0.036 A 
ATOM     20  N1  <0> d           0.688  -0.476  -1.203  0.00  0.00    -0.274 N 
ATOM     21  C19 <0> d          -1.354  -0.595  -2.722  0.00  0.00     0.070 C 
ATOM     22  N2  <0> d           2.060  -0.732  -1.324  0.00  0.00    -0.177 NA
ATOM     23  C5  <0> d           2.293  -1.141  -2.545  0.00  0.00     0.061 A 
ATOM     24  C6  <0> d           3.638  -1.529  -3.105  0.00  0.00     0.073 C 
BRANCH  20  25
ATOM     25  C2  <0> d           0.002  -0.004   0.002  0.00  0.00     0.146 C 
ATOM     26  C1  <0> d          -0.019   1.526   0.010  0.00  0.00     0.028 C 
ENDBRANCH  20  25
ENDBRANCH  17  18
ENDBRANCH   1  17
TORSDOF 6
