REMARK  7 active torsions:
REMARK  status: ('A' for Active; 'I' for Inactive)
REMARK    1  A    between atoms: C2_2  and  C5_5 
REMARK       I    between atoms: C5_5  and  N1_7 
REMARK    2  A    between atoms: N1_7  and  C6_8 
REMARK    3  A    between atoms: C10_12  and  N2_14 
REMARK       I    between atoms: N2_14  and  C12_15 
REMARK    4  A    between atoms: C12_15  and  C13_17 
REMARK       I    between atoms: C13_17  and  N3_19 
REMARK    5  A    between atoms: N3_19  and  C14_20 
REMARK    6  A    between atoms: C14_20  and  C15_21 
REMARK    7  A    between atoms: C15_21  and  N4_22 
ROOT
ATOM      1  N2  <0> d           2.644  -5.305  -4.263  0.00  0.00    -0.319 N 
ATOM      2  C12 <0> d           3.799  -5.745  -4.802  0.00  0.00     0.313 C 
ATOM      3  O2  <0> d           4.662  -4.952  -5.119  0.00  0.00    -0.262 OA
ATOM      4  H15 <0> d           1.929  -5.931  -4.072  0.00  0.00     0.169 HD
ENDROOT
BRANCH   1   5
ATOM      5  C10 <0> d           2.478  -3.947  -3.981  0.00  0.00     0.037 A 
ATOM      6  C9  <0> d           3.044  -2.989  -4.814  0.00  0.00     0.029 A 
ATOM      7  C8  <0> d           2.879  -1.645  -4.536  0.00  0.00     0.004 A 
ATOM      8  C7  <0> d           2.152  -1.250  -3.430  0.00  0.00     0.029 A 
ATOM      9  C6  <0> d           1.584  -2.203  -2.593  0.00  0.00     0.036 A 
ATOM     10  C11 <0> d           1.752  -3.552  -2.866  0.00  0.00     0.059 A 
BRANCH   9  11
ATOM     11  N1  <0> d           0.847  -1.801  -1.473  0.00  0.00    -0.326 N 
ATOM     12  C5  <0> d           0.895  -2.527  -0.339  0.00  0.00     0.229 C 
ATOM     13  O1  <0> d           1.510  -3.573  -0.314  0.00  0.00    -0.272 OA
ATOM     14  H10 <0> d           0.302  -1.000  -1.514  0.00  0.00     0.169 HD
BRANCH  12  15
ATOM     15  C2  <0> d           0.186  -2.040   0.898  0.00  0.00     0.030 C 
ATOM     16  C1  <0> d           0.398  -3.042   2.035  0.00  0.00     0.025 C 
ATOM     17  C3  <0> d          -1.310  -1.906   0.609  0.00  0.00     0.025 C 
ATOM     18  C4  <0> d           0.751  -0.678   1.307  0.00  0.00     0.025 C 
ENDBRANCH  12  15
ENDBRANCH   9  11
ENDBRANCH   1   5
BRANCH   2  19
ATOM     19  C13 <0> d           4.017  -7.208  -5.008  0.00  0.00     0.309 C 
ATOM     20  O3  <0> d           3.154  -8.001  -4.691  0.00  0.00    -0.262 OA
ATOM     21  N3  <0> d           5.171  -7.648  -5.546  0.00  0.00    -0.351 N 
ATOM     22  H16 <0> d           5.861  -7.015  -5.799  0.00  0.00     0.162 HD
BRANCH  21  23
ATOM     23  C14 <0> d           5.385  -9.084  -5.748  0.00  0.00     0.143 C 
BRANCH  23  24
ATOM     24  C15 <0> d           6.765  -9.311  -6.369  0.00  0.00     0.149 C 
BRANCH  24  25
ATOM     25  N4  <0> d           6.979 -10.746  -6.571  0.00  0.00    -0.350 N 
ATOM     26  C18 <0> d           6.661 -11.456  -7.675  0.00  0.00     0.182 A 
ATOM     27  N5  <0> d           7.003 -12.701  -7.485  0.00  0.00    -0.361 N 
ATOM     28  C17 <0> d           7.538 -12.831  -6.262  0.00  0.00     0.106 A 
ATOM     29  H24 <0> d           6.886 -13.420  -8.126  0.00  0.00     0.166 HD
ATOM     30  C16 <0> d           7.532 -11.620  -5.674  0.00  0.00     0.108 A 
ENDBRANCH  24  25
ENDBRANCH  23  24
ENDBRANCH  21  23
ENDBRANCH   2  19
TORSDOF 7
