REMARK  3 active torsions:
REMARK  status: ('A' for Active; 'I' for Inactive)
REMARK    1  A    between atoms: N1_6  and  C7_8 
REMARK    2  A    between atoms: C7_8  and  C9_10 
REMARK    3  A    between atoms: C12_16  and  C15_21 
ROOT
ATOM      1  C9  <0> d           1.465  -3.965   2.449  0.00  0.00     0.139 A 
ATOM      2  N2  <0> d           2.113  -4.624   3.443  0.00  0.00    -0.309 N 
ATOM      3  H1  <0> d           2.614  -4.118   4.101  0.00  0.00     0.170 HD
ATOM      4  C10 <0> d           2.071  -5.966   3.535  0.00  0.00     0.260 A 
ATOM      5  O1  <0> d           2.658  -6.544   4.434  0.00  0.00    -0.267 OA
ATOM      6  C11 <0> d           1.329  -6.706   2.560  0.00  0.00     0.081 A 
ATOM      7  C12 <0> d           1.136  -8.147   2.446  0.00  0.00     0.023 A 
ATOM      8  C13 <0> d           0.380  -8.624   1.424  0.00  0.00     0.067 A 
ATOM      9  S1  <0> d          -0.115  -7.149   0.554  0.00  0.00    -0.080 SA
ATOM     10  C14 <0> d           0.694  -5.939   1.569  0.00  0.00     0.116 A 
ATOM     11  N3  <0> d           0.776  -4.611   1.548  0.00  0.00    -0.225 NA
ENDROOT
BRANCH   1  12
ATOM     12  C7  <0> d           1.539  -2.461   2.387  0.00  0.00     0.253 C 
ATOM     13  C8  <0> d           3.005  -2.022   2.393  0.00  0.00     0.049 C 
BRANCH  12  14
ATOM     14  N1  <0> d           0.892  -1.989   1.155  0.00  0.00    -0.060 N 
ATOM     15  C5  <0> d           0.829  -0.523   1.168  0.00  0.00     0.236 C 
ATOM     16  C4  <0> d           0.084  -0.030  -0.074  0.00  0.00     0.028 C 
ATOM     17  C3  <0> d           0.827  -0.499  -1.329  0.00  0.00     0.007 C 
ATOM     18  C2  <0> d           0.952  -2.025  -1.294  0.00  0.00     0.007 C 
ATOM     19  C1  <0> d           1.762  -2.498  -2.504  0.00  0.00     0.011 C 
ATOM     20  C6  <0> d           1.665  -2.444  -0.007  0.00  0.00     0.240 C 
ATOM     21  H22 <0> d          -0.043  -2.365   1.103  0.00  0.00     0.280 HD
ENDBRANCH  12  14
ENDBRANCH   1  12
BRANCH   7  22
ATOM     22  C15 <0> d           1.750  -9.069   3.422  0.00  0.00     0.086 A 
ATOM     23  O2  <0> d           3.041  -9.071   3.804  0.00  0.00    -0.322 OA
ATOM     24  C18 <0> d           3.238 -10.046   4.709  0.00  0.00     0.142 A 
ATOM     25  C17 <0> d           2.072 -10.689   4.911  0.00  0.00     0.027 A 
ATOM     26  C16 <0> d           1.110 -10.068   4.088  0.00  0.00     0.040 A 
ENDBRANCH   7  22
TORSDOF 3
