REMARK  5 active torsions:
REMARK  status: ('A' for Active; 'I' for Inactive)
REMARK    1  A    between atoms: C2_2  and  N1_4 
REMARK    2  A    between atoms: C4_5  and  S1_9 
REMARK    3  A    between atoms: S1_9  and  C5_10 
REMARK    4  A    between atoms: C5_10  and  C6_11 
REMARK       I    between atoms: C6_11  and  N5_13 
REMARK       I    between atoms: N5_13  and  C7_14 
REMARK       I    between atoms: C7_14  and  N6_16 
REMARK    5  A    between atoms: N6_16  and  C8_17 
ROOT
ATOM      1  C6  <0> d           5.421   3.107  -0.034  0.00  0.00     0.235 C 
ATOM      2  O1  <0> d           6.273   2.245  -0.047  0.00  0.00    -0.272 OA
ATOM      3  N5  <0> d           5.778   4.407  -0.030  0.00  0.00    -0.279 N 
ATOM      4  C7  <0> d           7.082   4.748  -0.041  0.00  0.00     0.323 C 
ATOM      5  O2  <0> d           7.936   3.883  -0.054  0.00  0.00    -0.247 OA
ATOM      6  N6  <0> d           7.439   6.047  -0.037  0.00  0.00    -0.337 N 
ATOM      7  H11 <0> d           5.097   5.097  -0.019  0.00  0.00     0.173 HD
ATOM      8  H12 <0> d           6.758   6.738  -0.027  0.00  0.00     0.164 HD
ENDROOT
BRANCH   1   9
ATOM      9  C5  <0> d           3.963   2.727  -0.021  0.00  0.00     0.185 C 
BRANCH   9  10
ATOM     10  S1  <0> d           3.811   0.923  -0.030  0.00  0.00    -0.079 SA
BRANCH  10  11
ATOM     11  C4  <0> d           2.056   0.764  -0.013  0.00  0.00     0.210 A 
ATOM     12  N1  <0> d           1.353  -0.393  -0.013  0.00  0.00    -0.221 N 
ATOM     13  N4  <0> d           0.002  -0.004   0.002  0.00  0.00    -0.043 NA
ATOM     14  N3  <0> d          -0.015   1.285   0.009  0.00  0.00    -0.022 NA
ATOM     15  N2  <0> d           1.183   1.748   0.000  0.00  0.00    -0.102 NA
BRANCH  12  16
ATOM     16  C2  <0> d           1.886  -1.757  -0.025  0.00  0.00     0.106 C 
ATOM     17  C1  <0> d           1.411  -2.502   1.224  0.00  0.00     0.034 C 
ATOM     18  C3  <0> d           1.388  -2.488  -1.274  0.00  0.00     0.034 C 
ENDBRANCH  12  16
ENDBRANCH  10  11
ENDBRANCH   9  10
ENDBRANCH   1   9
BRANCH   6  19
ATOM     19  C8  <0> d           8.857   6.418  -0.049  0.00  0.00     0.101 C 
ATOM     20  C11 <0> d           9.024   7.837  -0.663  0.00  0.00     0.165 C 
ATOM     21  S2  <0> d          10.689   8.290  -0.017  0.00  0.00     0.146 S 
ATOM     22  C10 <0> d          10.781   7.143   1.418  0.00  0.00     0.142 C 
ATOM     23  O3  <0> d          11.672   7.916  -0.971  0.00  0.00    -0.228 OA
ATOM     24  O4  <0> d          10.651   9.628   0.461  0.00  0.00    -0.228 OA
ATOM     25  C9  <0> d           9.397   6.452   1.390  0.00  0.00     0.041 C 
ENDBRANCH   6  19
TORSDOF 5
