REMARK  7 active torsions:
REMARK  status: ('A' for Active; 'I' for Inactive)
REMARK    1  A    between atoms: C2_2  and  N1_3 
REMARK    2  A    between atoms: N1_3  and  C3_4 
REMARK    3  A    between atoms: N1_3  and  C5_6 
REMARK    4  A    between atoms: C5_6  and  C7_8 
REMARK    5  A    between atoms: C7_8  and  N2_9 
REMARK       I    between atoms: N2_9  and  C8_10 
REMARK       I    between atoms: C8_10  and  N3_12 
REMARK    6  A    between atoms: N3_12  and  C9_13 
REMARK    7  A    between atoms: C14_18  and  O2_19 
ROOT
ATOM      1  N2  <0> d           1.277  -1.935   0.584  0.00  0.00    -0.341 N 
ATOM      2  C8  <0> d           2.144  -2.393   1.509  0.00  0.00     0.320 C 
ATOM      3  O1  <0> d           2.267  -3.589   1.686  0.00  0.00    -0.247 OA
ATOM      4  N3  <0> d           2.873  -1.525   2.238  0.00  0.00    -0.306 N 
ATOM      5  H17 <0> d           1.179  -0.980   0.442  0.00  0.00     0.164 HD
ATOM      6  H18 <0> d           2.712  -0.571   2.160  0.00  0.00     0.171 HD
ENDROOT
BRANCH   1   7
ATOM      7  C7  <0> d           0.485  -2.878  -0.208  0.00  0.00     0.157 C 
BRANCH   7   8
ATOM      8  C5  <0> d          -0.568  -2.111  -1.011  0.00  0.00     0.202 C 
ATOM      9  C6  <0> d          -1.026  -2.964  -2.197  0.00  0.00     0.042 C 
BRANCH   8  10
ATOM     10  N1  <0> d          -1.720  -1.813  -0.149  0.00  0.00    -0.066 N 
ATOM     11  H27 <0> d          -2.469  -1.434  -0.709  0.00  0.00     0.280 HD
BRANCH  10  12
ATOM     12  C2  <0> d          -2.173  -3.046   0.506  0.00  0.00     0.231 C 
ATOM     13  C1  <0> d          -3.459  -2.766   1.286  0.00  0.00     0.034 C 
ENDBRANCH  10  12
BRANCH  10  14
ATOM     14  C3  <0> d          -1.326  -0.832   0.871  0.00  0.00     0.231 C 
ATOM     15  C4  <0> d          -0.870   0.459   0.188  0.00  0.00     0.034 C 
ENDBRANCH  10  14
ENDBRANCH   8  10
ENDBRANCH   7   8
ENDBRANCH   1   7
BRANCH   4  16
ATOM     16  C9  <0> d           3.864  -2.000   3.108  0.00  0.00     0.075 A 
ATOM     17  C14 <0> d           3.567  -3.009   4.020  0.00  0.00     0.096 A 
ATOM     18  C13 <0> d           4.552  -3.480   4.873  0.00  0.00     0.058 A 
ATOM     19  C12 <0> d           5.824  -2.938   4.827  0.00  0.00     0.014 A 
ATOM     20  C11 <0> d           6.118  -1.931   3.925  0.00  0.00     0.028 A 
ATOM     21 Br1  <0> d           7.164  -3.576   5.999  0.00  0.00    -0.051 Br
ATOM     22  C10 <0> d           5.142  -1.461   3.067  0.00  0.00    -0.031 A 
ATOM     23  C16 <0> d           5.466  -0.364   2.085  0.00  0.00     0.050 C 
BRANCH  17  24
ATOM     24  O2  <0> d           2.314  -3.537   4.069  0.00  0.00    -0.354 OA
ATOM     25  C15 <0> d           2.082  -4.569   5.029  0.00  0.00     0.210 C 
ENDBRANCH  17  24
ENDBRANCH   4  16
TORSDOF 7
