REMARK  4 active torsions:
REMARK  status: ('A' for Active; 'I' for Inactive)
REMARK    1  A    between atoms: C4_4  and  C7_8 
REMARK    2  A    between atoms: C7_8  and  N1_10 
REMARK    3  A    between atoms: N1_10  and  C9_11 
REMARK    4  A    between atoms: C9_11  and  C11_13 
ROOT
ATOM      1  N1  <0> d          -3.155  -3.123   0.888  0.00  0.00    -0.059 N 
ATOM      2  H14 <0> d          -3.039  -2.796   1.836  0.00  0.00     0.278 HD
ATOM      3  H24 <0> d          -3.223  -2.331   0.266  0.00  0.00     0.278 HD
ENDROOT
BRANCH   1   4
ATOM      4  C7  <0> d          -2.000  -3.947   0.509  0.00  0.00     0.216 C 
ATOM      5  C8  <0> d          -2.115  -4.339  -0.965  0.00  0.00     0.045 C 
BRANCH   4   6
ATOM      6  C4  <0> d          -0.731  -3.162   0.723  0.00  0.00    -0.014 A 
ATOM      7  C3  <0> d          -0.765  -1.783   0.805  0.00  0.00     0.024 A 
ATOM      8  C2  <0> d           0.394  -1.107   0.998  0.00  0.00    -0.020 A 
ATOM      9  C1  <0> d           0.618   0.378   1.119  0.00  0.00     0.056 C 
ATOM     10  S1  <0> d           1.588  -2.433   1.064  0.00  0.00    -0.100 SA
ATOM     11  C5  <0> d           0.460  -3.799   0.839  0.00  0.00    -0.013 A 
ATOM     12  C6  <0> d           0.756  -5.275   0.786  0.00  0.00     0.057 C 
ENDBRANCH   4   6
ENDBRANCH   1   4
BRANCH   1  13
ATOM     13  C9  <0> d          -4.382  -3.926   0.794  0.00  0.00     0.223 C 
ATOM     14  C10 <0> d          -4.333  -5.054   1.826  0.00  0.00     0.045 C 
BRANCH  13  15
ATOM     15  C11 <0> d          -5.578  -3.049   1.063  0.00  0.00     0.064 A 
ATOM     16  C14 <0> d          -5.678  -2.316   2.263  0.00  0.00     0.257 A 
ATOM     17  N3  <0> d          -6.765  -1.540   2.457  0.00  0.00    -0.311 N 
ATOM     18  O1  <0> d          -4.798  -2.377   3.106  0.00  0.00    -0.267 OA
ATOM     19  C13 <0> d          -7.731  -1.488   1.519  0.00  0.00     0.103 A 
ATOM     20  H3  <0> d          -6.854  -1.023   3.273  0.00  0.00     0.170 HD
ATOM     21  N2  <0> d          -7.641  -2.172   0.409  0.00  0.00    -0.240 NA
ATOM     22  C15 <0> d          -8.941  -0.622   1.754  0.00  0.00     0.091 C 
ATOM     23  C12 <0> d          -6.588  -2.953   0.154  0.00  0.00     0.046 A 
ATOM     24  C16 <0> d          -6.518  -3.727  -1.137  0.00  0.00     0.071 C 
ENDBRANCH  13  15
ENDBRANCH   1  13
TORSDOF 4
