REMARK  4 active torsions:
REMARK  status: ('A' for Active; 'I' for Inactive)
REMARK    1  A    between atoms: N1_4  and  C5_6 
REMARK    2  A    between atoms: C5_6  and  C6_7 
REMARK    3  A    between atoms: N2_10  and  C11_13 
REMARK    4  A    between atoms: C15_18  and  O2_19 
ROOT
ATOM      1  C6  <0> d           0.922  -2.745  -0.051  0.00  0.00     0.015 C 
ATOM      2  C7  <0> d          -0.575  -2.439  -0.153  0.00  0.00     0.034 C 
ATOM      3  C8  <0> d          -1.276  -3.586  -0.883  0.00  0.00     0.236 C 
ATOM      4  N2  <0> d          -1.081  -4.836  -0.140  0.00  0.00    -0.062 N 
ATOM      5  C9  <0> d           0.347  -5.174  -0.100  0.00  0.00     0.236 C 
ATOM      6  C10 <0> d           1.111  -4.088   0.660  0.00  0.00     0.034 C 
ATOM      7  H30 <0> d          -1.425  -4.724   0.802  0.00  0.00     0.280 HD
ENDROOT
BRANCH   4   8
ATOM      8  C11 <0> d          -1.820  -5.919  -0.802  0.00  0.00     0.240 C 
ATOM      9  C15 <0> d          -1.620  -7.225  -0.026  0.00  0.00     0.153 C 
ATOM     10  C14 <0> d          -2.459  -8.328  -0.680  0.00  0.00     0.060 C 
ATOM     11  C13 <0> d          -3.926  -7.890  -0.716  0.00  0.00     0.170 C 
ATOM     12  O1  <0> d          -4.036  -6.655  -1.427  0.00  0.00    -0.389 OA
ATOM     13  C12 <0> d          -3.312  -5.575  -0.834  0.00  0.00     0.203 C 
BRANCH   9  14
ATOM     14  O2  <0> d          -2.041  -7.045   1.328  0.00  0.00    -0.393 OA
ATOM     15  H28 <0> d          -1.942  -7.834   1.878  0.00  0.00     0.210 HD
ENDBRANCH   9  14
ENDBRANCH   4   8
BRANCH   1  16
ATOM     16  C5  <0> d           1.618  -1.641   0.747  0.00  0.00     0.239 C 
BRANCH  16  17
ATOM     17  N1  <0> d           3.069  -1.870   0.738  0.00  0.00    -0.071 N 
ATOM     18  C3  <0> d           3.748  -0.884   1.618  0.00  0.00     0.235 C 
ATOM     19  C2  <0> d           5.202  -0.874   1.082  0.00  0.00     0.029 C 
ATOM     20  C1  <0> d           5.008  -1.014  -0.445  0.00  0.00     0.029 C 
ATOM     21  C4  <0> d           3.613  -1.642  -0.618  0.00  0.00     0.235 C 
ATOM     22  H29 <0> d           3.276  -2.809   1.043  0.00  0.00     0.279 HD
ENDBRANCH  16  17
ENDBRANCH   1  16
TORSDOF 4
