REMARK  5 active torsions:
REMARK  status: ('A' for Active; 'I' for Inactive)
REMARK    1  A    between atoms: C2_2  and  C3_3 
REMARK    2  A    between atoms: C2_2  and  S1_9 
REMARK       I    between atoms: C3_3  and  N1_5 
REMARK    3  A    between atoms: N1_5  and  C4_6 
REMARK    4  A    between atoms: S1_9  and  C7_11 
REMARK    5  A    between atoms: C10_15  and  N3_20 
ROOT
ATOM      1  C7  <0> d           2.445   0.199   1.392  0.00  0.00     0.241 A 
ATOM      2  N2  <0> d           2.716   1.351   1.929  0.00  0.00    -0.214 NA
ATOM      3  C8  <0> d           4.016   1.661   1.668  0.00  0.00     0.096 A 
ATOM      4  C9  <0> d           4.831   2.747   1.989  0.00  0.00     0.063 A 
ATOM      5  C10 <0> d           6.147   2.765   1.564  0.00  0.00     0.028 A 
ATOM      6  C11 <0> d           6.658   1.705   0.818  0.00  0.00     0.032 A 
ATOM      7  C12 <0> d           5.859   0.629   0.497  0.00  0.00     0.042 A 
ATOM      8  C13 <0> d           4.537   0.597   0.917  0.00  0.00     0.107 A 
ATOM      9  O3  <0> d           3.530  -0.293   0.773  0.00  0.00    -0.282 OA
ENDROOT
BRANCH   1  10
ATOM     10  S1  <0> d           0.879  -0.605   1.472  0.00  0.00     0.106 S 
ATOM     11  O2  <0> d           0.275  -0.065   2.638  0.00  0.00    -0.248 OA
BRANCH  10  12
ATOM     12  C2  <0> d           0.002  -0.004   0.002  0.00  0.00     0.176 C 
ATOM     13  C1  <0> d          -0.019   1.526   0.010  0.00  0.00     0.034 C 
BRANCH  12  14
ATOM     14  C3  <0> d          -1.412  -0.526   0.013  0.00  0.00     0.234 C 
ATOM     15  O1  <0> d          -1.939  -0.827   1.062  0.00  0.00    -0.272 OA
ATOM     16  N1  <0> d          -2.090  -0.657  -1.144  0.00  0.00    -0.356 N 
ATOM     17  H5  <0> d          -1.669  -0.416  -1.984  0.00  0.00     0.162 HD
BRANCH  16  18
ATOM     18  C4  <0> d          -3.465  -1.164  -1.134  0.00  0.00     0.076 C 
ATOM     19  C5  <0> d          -4.205  -0.657  -2.373  0.00  0.00     0.032 C 
ATOM     20  C6  <0> d          -3.444  -2.694  -1.142  0.00  0.00     0.032 C 
ENDBRANCH  16  18
ENDBRANCH  12  14
ENDBRANCH  10  12
ENDBRANCH   1  10
BRANCH   5  21
ATOM     21  N3  <0> d           6.968   3.852   1.883  0.00  0.00    -0.399 N 
ATOM     22  H16 <0> d           6.614   4.591   2.402  0.00  0.00     0.156 HD
ATOM     23  H17 <0> d           7.891   3.866   1.586  0.00  0.00     0.156 HD
ENDBRANCH   5  21
TORSDOF 5
