REMARK  4 active torsions:
REMARK  status: ('A' for Active; 'I' for Inactive)
REMARK    1  A    between atoms: C9_10  and  N2_12 
REMARK       I    between atoms: N2_12  and  C11_13 
REMARK       I    between atoms: C11_13  and  N3_15 
REMARK    2  A    between atoms: N3_15  and  C12_16 
REMARK    3  A    between atoms: C12_16  and  C13_17 
REMARK    4  A    between atoms: C16_21  and  N5_23 
ROOT
ATOM      1  N2  <0> d           4.954  -2.520  -0.432  0.00  0.00    -0.309 N 
ATOM      2  C11 <0> d           6.056  -1.791  -0.700  0.00  0.00     0.320 C 
ATOM      3  O1  <0> d           5.983  -0.579  -0.757  0.00  0.00    -0.247 OA
ATOM      4  N3  <0> d           7.238  -2.405  -0.904  0.00  0.00    -0.339 N 
ATOM      5  H13 <0> d           5.024  -3.481  -0.321  0.00  0.00     0.170 HD
ATOM      6  H14 <0> d           7.296  -3.373  -0.858  0.00  0.00     0.164 HD
ENDROOT
BRANCH   1   7
ATOM      7  C9  <0> d           3.707  -1.890  -0.315  0.00  0.00     0.036 A 
ATOM      8  C8  <0> d           3.619  -0.627   0.255  0.00  0.00     0.032 A 
ATOM      9  C7  <0> d           2.390  -0.011   0.370  0.00  0.00     0.032 A 
ATOM     10  C6  <0> d           1.242  -0.651  -0.083  0.00  0.00     0.036 A 
ATOM     11  N1  <0> d           0.004  -0.006   0.048  0.00  0.00    -0.385 N 
ATOM     12  C5  <0> d           1.326  -1.915  -0.651  0.00  0.00    -0.029 A 
ATOM     13  C1  <0> d          -0.131   1.178   0.900  0.00  0.00     0.149 C 
ATOM     14  C2  <0> d          -1.153  -0.533  -0.688  0.00  0.00     0.123 C 
ATOM     15  C3  <0> d          -1.160  -2.058  -0.519  0.00  0.00     0.024 C 
ATOM     16  C4  <0> d           0.103  -2.632  -1.161  0.00  0.00     0.042 C 
ATOM     17  C10 <0> d           2.559  -2.535  -0.760  0.00  0.00     0.039 A 
ENDBRANCH   1   7
BRANCH   4  18
ATOM     18  C12 <0> d           8.435  -1.613  -1.194  0.00  0.00     0.163 C 
BRANCH  18  19
ATOM     19  C13 <0> d           9.614  -2.533  -1.380  0.00  0.00    -0.035 A 
ATOM     20  C17 <0> d           9.931  -3.034  -2.629  0.00  0.00     0.057 A 
ATOM     21  C16 <0> d          11.030  -3.876  -2.761  0.00  0.00     0.102 A 
ATOM     22  N4  <0> d          11.758  -4.205  -1.706  0.00  0.00    -0.352 N 
ATOM     23  C15 <0> d          11.476  -3.746  -0.501  0.00  0.00     0.090 A 
ATOM     24  H26 <0> d          12.518  -4.797  -1.821  0.00  0.00     0.166 HD
ATOM     25  C14 <0> d          10.404  -2.901  -0.298  0.00  0.00     0.026 A 
BRANCH  21  26
ATOM     26  N5  <0> d          11.363  -4.383  -4.013  0.00  0.00    -0.376 N 
ATOM     27  C18 <0> d          12.515  -5.275  -4.158  0.00  0.00     0.150 C 
ATOM     28  C19 <0> d          10.562  -4.023  -5.185  0.00  0.00     0.150 C 
ENDBRANCH  21  26
ENDBRANCH  18  19
ENDBRANCH   4  18
TORSDOF 4
