REMARK  7 active torsions:
REMARK  status: ('A' for Active; 'I' for Inactive)
REMARK    1  A    between atoms: C4_5  and  C5_7 
REMARK    2  A    between atoms: C5_7  and  N3_8 
REMARK    3  A    between atoms: N3_8  and  C7_10 
REMARK    4  A    between atoms: C7_10  and  C8_11 
REMARK    5  A    between atoms: C8_11  and  O2_22 
REMARK    6  A    between atoms: N4_15  and  C13_18 
REMARK    7  A    between atoms: C13_18  and  C14_19 
ROOT
ATOM      1  C8  <0> d          -0.490   1.728  -0.972  0.00  0.00     0.164 C 
ATOM      2  C9  <0> d           0.412   1.394  -2.163  0.00  0.00     0.051 C 
ATOM      3  C10 <0> d          -0.280   1.873  -3.444  0.00  0.00     0.023 C 
ATOM      4  C11 <0> d          -1.529   1.020  -3.674  0.00  0.00     0.126 C 
ATOM      5  N4  <0> d          -2.345   0.975  -2.467  0.00  0.00    -0.349 N 
ATOM      6  C12 <0> d          -1.892   1.267  -1.247  0.00  0.00     0.256 C 
ATOM      7  O1  <0> d          -2.654   1.154  -0.310  0.00  0.00    -0.270 OA
ENDROOT
BRANCH   1   8
ATOM      8  C7  <0> d           0.040   1.025   0.280  0.00  0.00     0.320 C 
BRANCH   8   9
ATOM      9  N3  <0> d           0.158  -0.415   0.019  0.00  0.00     0.094 N 
ATOM     10  C6  <0> d          -1.164  -1.054  -0.017  0.00  0.00     0.310 C 
BRANCH   9  11
ATOM     11  C5  <0> d           1.028  -1.060   1.012  0.00  0.00     0.348 C 
BRANCH  11  12
ATOM     12  C4  <0> d           1.324  -2.473   0.578  0.00  0.00     0.110 A 
ATOM     13  N1  <0> d           2.413  -2.872  -0.113  0.00  0.00    -0.352 N 
ATOM     14  C3  <0> d           2.304  -4.225  -0.295  0.00  0.00     0.114 A 
ATOM     15  H26 <0> d           3.285  -2.332  -0.511  0.00  0.00     0.166 HD
ATOM     16  C2  <0> d           1.145  -4.602   0.278  0.00  0.00     0.022 A 
ATOM     17  C1  <0> d           0.596  -6.005   0.324  0.00  0.00     0.069 C 
ATOM     18  N2  <0> d           0.570  -3.513   0.808  0.00  0.00    -0.347 N 
ATOM     19  H27 <0> d          -0.392  -3.600   1.335  0.00  0.00     0.167 HD
ENDBRANCH  11  12
ENDBRANCH   9  11
ENDBRANCH   8   9
ENDBRANCH   1   8
BRANCH   1  20
ATOM     20  O2  <0> d          -0.488   3.142  -0.759  0.00  0.00    -0.378 OA
ATOM     21  H25 <0> d          -0.837   3.818  -1.553  0.00  0.00     0.211 HD
ENDBRANCH   1  20
BRANCH   5  22
ATOM     22  C13 <0> d          -3.750   0.583  -2.603  0.00  0.00     0.130 C 
BRANCH  22  23
ATOM     23  C14 <0> d          -4.605   1.828  -2.845  0.00  0.00     0.004 A 
ATOM     24  C16 <0> d          -6.094   1.618  -3.128  0.00  0.00     0.007 A 
ATOM     25  C15 <0> d          -5.644   2.189  -1.781  0.00  0.00     0.007 A 
ENDBRANCH  22  23
ENDBRANCH   5  22
TORSDOF 7
