REMARK  4 active torsions:
REMARK  status: ('A' for Active; 'I' for Inactive)
REMARK    1  A    between atoms: C2_2  and  C4_4 
REMARK    2  A    between atoms: C4_4  and  N1_5 
REMARK       I    between atoms: N1_5  and  C5_6 
REMARK    3  A    between atoms: C5_6  and  C6_8 
REMARK       I    between atoms: N3_15  and  C13_18 
REMARK    4  A    between atoms: C13_18  and  C14_20 
ROOT
ATOM      1  C6  <0> d          -1.832  -6.438   0.654  0.00  0.00     0.288 C 
ATOM      2  C7  <0> d          -1.552  -7.124   2.024  0.00  0.00     0.119 C 
ATOM      3  S1  <0> d          -2.847  -8.443   1.938  0.00  0.00    -0.128 SA
ATOM      4  C8  <0> d          -4.064  -7.502   0.931  0.00  0.00     0.177 C 
ATOM      5  N2  <0> d          -3.272  -6.391   0.381  0.00  0.00    -0.043 N 
ATOM      6  C9  <0> d          -4.606  -8.394  -0.177  0.00  0.00     0.070 C 
ATOM      7  C10 <0> d          -5.606  -7.602  -1.027  0.00  0.00     0.129 C 
ATOM      8  N3  <0> d          -6.622  -7.019  -0.140  0.00  0.00    -0.352 N 
ATOM      9  C11 <0> d          -6.183  -6.187   0.990  0.00  0.00     0.129 C 
ATOM     10  C12 <0> d          -5.180  -6.988   1.829  0.00  0.00     0.070 C 
ATOM     11  C13 <0> d          -7.933  -7.243  -0.357  0.00  0.00     0.223 C 
ATOM     12  O2  <0> d          -8.758  -6.821   0.425  0.00  0.00    -0.273 OA
ATOM     13  H14 <0> d          -3.636  -5.528   0.755  0.00  0.00     0.280 HD
ATOM     14  H30 <0> d          -3.403  -6.378  -0.620  0.00  0.00     0.280 HD
ENDROOT
BRANCH   1  15
ATOM     15  C5  <0> d          -1.287  -5.033   0.683  0.00  0.00     0.249 C 
ATOM     16  N1  <0> d           0.028  -4.824   0.892  0.00  0.00    -0.359 N 
ATOM     17  H11 <0> d           0.624  -5.579   1.024  0.00  0.00     0.162 HD
ATOM     18  O1  <0> d          -2.032  -4.090   0.518  0.00  0.00    -0.271 OA
BRANCH  16  19
ATOM     19  C4  <0> d           0.558  -3.459   0.920  0.00  0.00     0.126 C 
BRANCH  19  20
ATOM     20  C2  <0> d           2.067  -3.502   1.172  0.00  0.00    -0.005 C 
ATOM     21  C1  <0> d           2.640  -2.087   1.078  0.00  0.00     0.011 C 
ATOM     22  C3  <0> d           2.334  -4.069   2.568  0.00  0.00     0.011 C 
ENDBRANCH  19  20
ENDBRANCH  16  19
ENDBRANCH   1  15
BRANCH  11  23
ATOM     23  C14 <0> d          -8.373  -8.018  -1.572  0.00  0.00     0.070 C 
ATOM     24  C15 <0> d          -9.787  -8.558  -1.348  0.00  0.00     0.019 C 
ATOM     25  C16 <0> d          -8.367  -7.097  -2.794  0.00  0.00     0.019 C 
ENDBRANCH  11  23
TORSDOF 4
