REMARK  4 active torsions:
REMARK  status: ('A' for Active; 'I' for Inactive)
REMARK    1  A    between atoms: C3_3  and  C15_19 
REMARK    2  A    between atoms: N1_4  and  C5_6 
REMARK       I    between atoms: N2_9  and  C10_12 
REMARK       I    between atoms: C10_12  and  N3_14 
REMARK    3  A    between atoms: N3_14  and  C11_15 
REMARK    4  A    between atoms: C11_15  and  C12_16 
ROOT
ATOM      1  C5  <0> d           1.619  -1.641   0.742  0.00  0.00     0.192 C 
ATOM      2  C6  <0> d           3.105  -2.003   0.760  0.00  0.00     0.053 C 
ATOM      3  C7  <0> d           3.310  -3.258   1.616  0.00  0.00     0.129 C 
ATOM      4  N2  <0> d           2.435  -4.324   1.109  0.00  0.00    -0.334 N 
ATOM      5  C8  <0> d           0.999  -4.050   0.966  0.00  0.00     0.129 C 
ATOM      6  C9  <0> d           0.820  -2.787   0.118  0.00  0.00     0.053 C 
ATOM      7  C10 <0> d           2.941  -5.529   0.782  0.00  0.00     0.318 C 
ATOM      8  O1  <0> d           2.195  -6.431   0.451  0.00  0.00    -0.247 OA
ATOM      9  N3  <0> d           4.272  -5.735   0.821  0.00  0.00    -0.343 N 
ATOM     10  H17 <0> d           4.861  -5.040   1.154  0.00  0.00     0.164 HD
ENDROOT
BRANCH   1  11
ATOM     11  N1  <0> d           1.422  -0.419  -0.050  0.00  0.00    -0.053 N 
ATOM     12  C3  <0> d           2.192   0.705   0.543  0.00  0.00     0.288 C 
ATOM     13  C2  <0> d           1.470   1.959  -0.010  0.00  0.00     0.046 C 
ATOM     14  C1  <0> d          -0.017   1.536   0.002  0.00  0.00     0.030 C 
ATOM     15  C4  <0> d           0.003  -0.004  -0.005  0.00  0.00     0.236 C 
ATOM     16  H25 <0> d           1.710  -0.572  -1.005  0.00  0.00     0.281 HD
BRANCH  12  17
ATOM     17  C15 <0> d           3.627   0.672   0.084  0.00  0.00     0.205 C 
ATOM     18  O2  <0> d           4.433   1.462   0.546  0.00  0.00    -0.646 OA
ATOM     19  O3  <0> d           3.982  -0.144  -0.749  0.00  0.00    -0.646 OA
ENDBRANCH  12  17
ENDBRANCH   1  11
BRANCH   9  20
ATOM     20  C11 <0> d           4.830  -7.009   0.359  0.00  0.00     0.129 C 
BRANCH  20  21
ATOM     21  C12 <0> d           6.353  -6.982   0.509  0.00  0.00     0.003 A 
ATOM     22  C14 <0> d           7.116  -8.269   0.189  0.00  0.00     0.007 A 
ATOM     23  C13 <0> d           7.190  -7.077  -0.768  0.00  0.00     0.007 A 
ENDBRANCH  20  21
ENDBRANCH   9  20
TORSDOF 4
