REMARK  2 active torsions:
REMARK  status: ('A' for Active; 'I' for Inactive)
REMARK    1  A    between atoms: C6_6  and  O1_7 
REMARK    2  A    between atoms: C8_10  and  C10_13 
ROOT
ATOM      1  C1  <0> d          -7.868   5.358  -0.974  0.00  0.00     0.039 A 
ATOM      2  C2  <0> d          -6.599   5.593  -0.491  0.00  0.00     0.041 A 
ATOM      3  C3  <0> d          -5.624   4.606  -0.581  0.00  0.00     0.089 A 
ATOM      4  C4  <0> d          -5.949   3.373  -1.167  0.00  0.00     0.051 A 
ATOM      5  C5  <0> d          -7.235   3.141  -1.654  0.00  0.00     0.054 A 
ATOM      6  C6  <0> d          -8.191   4.136  -1.556  0.00  0.00     0.066 A 
ATOM      7  C7  <0> d          -4.902   2.336  -1.260  0.00  0.00     0.197 A 
ATOM      8  O2  <0> d          -5.122   1.249  -1.761  0.00  0.00    -0.286 OA
ATOM      9  C8  <0> d          -3.574   2.683  -0.710  0.00  0.00     0.038 A 
ATOM     10  C9  <0> d          -3.399   3.939  -0.161  0.00  0.00     0.158 A 
ATOM     11  O3  <0> d          -4.381   4.834  -0.109  0.00  0.00    -0.321 OA
ENDROOT
BRANCH   9  12
ATOM     12  C10 <0> d          -2.506   1.751  -0.750  0.00  0.00     0.038 C 
ATOM     13  C11 <0> d          -1.617   1.675   0.302  0.00  0.00     0.081 C 
ATOM     14  C16 <0> d          -0.394   0.839   0.235  0.00  0.00     0.283 C 
ATOM     15  C12 <0> d          -1.831   2.425   1.574  0.00  0.00     0.144 C 
ATOM     16  N3  <0> d           0.657   1.191   1.000  0.00  0.00    -0.184 NA
ATOM     17  O4  <0> d          -0.340  -0.137  -0.496  0.00  0.00    -0.265 OA
ATOM     18  C15 <0> d           0.524   2.162   1.873  0.00  0.00     0.182 A 
ATOM     19  N2  <0> d          -0.630   2.849   2.184  0.00  0.00    -0.284 N 
ATOM     20  S1  <0> d           1.708   2.897   2.886  0.00  0.00    -0.062 SA
ATOM     21  C13 <0> d          -0.524   3.872   3.081  0.00  0.00     0.108 A 
ATOM     22  C14 <0> d           0.660   4.128   3.645  0.00  0.00     0.071 A 
ATOM     23  N1  <0> d          -3.014   2.671   2.072  0.00  0.00    -0.283 NA
ATOM     24  H7  <0> d          -3.804   2.293   1.655  0.00  0.00     0.188 HD
ENDBRANCH   9  12
BRANCH   6  25
ATOM     25  O1  <0> d          -9.447   3.918  -2.028  0.00  0.00    -0.361 OA
ATOM     26  H4  <0> d         -10.054   3.544  -1.374  0.00  0.00     0.217 HD
ENDBRANCH   6  25
TORSDOF 2
