REMARK  7 active torsions:
REMARK  status: ('A' for Active; 'I' for Inactive)
REMARK    1  A    between atoms: C8_10  and  C9_12 
REMARK       I    between atoms: C9_12  and  N3_14 
REMARK    2  A    between atoms: N3_14  and  C10_15 
REMARK    3  A    between atoms: C10_15  and  C11_16 
REMARK    4  A    between atoms: C11_16  and  C12_17 
REMARK    5  A    between atoms: C12_17  and  N4_18 
REMARK       I    between atoms: N4_18  and  C13_19 
REMARK    6  A    between atoms: C13_19  and  C14_21 
REMARK    7  A    between atoms: C19_26  and  N5_27 
ROOT
ATOM      1  C10 <0> d           3.921   6.456  -2.297  0.00  0.00     0.124 C 
ENDROOT
BRANCH   1   2
ATOM      2  N3  <0> d           2.724   5.802  -2.833  0.00  0.00    -0.354 N 
ATOM      3  C9  <0> d           2.769   4.505  -3.193  0.00  0.00     0.289 C 
ATOM      4  O2  <0> d           3.803   3.877  -3.074  0.00  0.00    -0.264 OA
ATOM      5  H5  <0> d           1.788   6.371  -2.941  0.00  0.00     0.162 HD
BRANCH   3   6
ATOM      6  C8  <0> d           1.558   3.842  -3.735  0.00  0.00     0.222 A 
ATOM      7  N1  <0> d           1.640   2.523  -4.091  0.00  0.00    -0.184 NA
ATOM      8  C7  <0> d           0.558   1.880  -4.590  0.00  0.00     0.281 A 
ATOM      9  C5  <0> d          -0.684   2.655  -4.734  0.00  0.00     0.063 A 
ATOM     10  O1  <0> d           0.613   0.707  -4.912  0.00  0.00    -0.265 OA
ATOM     11  C4  <0> d          -0.673   4.012  -4.334  0.00  0.00     0.075 A 
ATOM     12  C6  <0> d          -1.853   2.084  -5.230  0.00  0.00     0.019 A 
ATOM     13  C3  <0> d          -1.842   4.770  -4.455  0.00  0.00     0.032 A 
ATOM     14  N2  <0> d           0.466   4.545  -3.850  0.00  0.00    -0.224 NA
ATOM     15  C2  <0> d          -2.985   4.187  -4.954  0.00  0.00     0.002 A 
ATOM     16  C1  <0> d          -2.992   2.853  -5.340  0.00  0.00     0.001 A 
ENDBRANCH   3   6
ENDBRANCH   1   2
BRANCH   1  17
ATOM     17  C11 <0> d           3.601   7.916  -1.970  0.00  0.00     0.039 C 
BRANCH  17  18
ATOM     18  C12 <0> d           4.851   8.599  -1.411  0.00  0.00     0.124 C 
BRANCH  18  19
ATOM     19  N4  <0> d           4.544   9.997  -1.097  0.00  0.00    -0.357 N 
ATOM     20  C13 <0> d           5.501  10.799  -0.589  0.00  0.00     0.254 C 
ATOM     21  O3  <0> d           6.618  10.362  -0.391  0.00  0.00    -0.268 OA
ATOM     22  H12 <0> d           3.534  10.392  -1.277  0.00  0.00     0.162 HD
BRANCH  20  23
ATOM     23  C14 <0> d           5.192  12.210  -0.273  0.00  0.00     0.065 A 
ATOM     24  C19 <0> d           6.211  13.080   0.115  0.00  0.00     0.118 A 
ATOM     25  C18 <0> d           5.916  14.396   0.409  0.00  0.00     0.037 A 
ATOM     26  C17 <0> d           4.613  14.852   0.320  0.00  0.00     0.002 A 
ATOM     27  C16 <0> d           3.598  13.994  -0.065  0.00  0.00     0.001 A 
ATOM     28  C15 <0> d           3.880  12.678  -0.367  0.00  0.00     0.020 A 
BRANCH  24  29
ATOM     29  N5  <0> d           7.606  12.594   0.211  0.00  0.00    -0.115 N 
ATOM     30  O4  <0> d           8.252  12.794   1.224  0.00  0.00    -0.532 OA
ATOM     31  O5  <0> d           8.107  11.993  -0.722  0.00  0.00    -0.532 OA
ENDBRANCH  24  29
ENDBRANCH  20  23
ENDBRANCH  18  19
ENDBRANCH  17  18
ENDBRANCH   1  17
TORSDOF 7
