REMARK  7 active torsions:
REMARK  status: ('A' for Active; 'I' for Inactive)
REMARK    1  A    between atoms: N1_2  and  C3_4 
REMARK    2  A    between atoms: C4_5  and  C8_10 
REMARK    3  A    between atoms: C8_10  and  N3_11 
REMARK       I    between atoms: N3_11  and  C9_12 
REMARK       I    between atoms: C9_12  and  N4_14 
REMARK    4  A    between atoms: N4_14  and  N5_15 
REMARK       I    between atoms: N5_15  and  C10_16 
REMARK    5  A    between atoms: C10_16  and  C11_18 
REMARK    6  A    between atoms: C11_18  and  C12_19 
REMARK    7  A    between atoms: C17_24  and  O3_25 
ROOT
ATOM      1  N3  <0> d          -1.587  -2.894   0.520  0.00  0.00    -0.337 N 
ATOM      2  C9  <0> d          -1.915  -3.530   1.663  0.00  0.00     0.335 C 
ATOM      3  O1  <0> d          -1.051  -4.060   2.333  0.00  0.00    -0.246 OA
ATOM      4  N4  <0> d          -3.202  -3.578   2.061  0.00  0.00    -0.249 N 
ATOM      5  H12 <0> d          -2.277  -2.471  -0.015  0.00  0.00     0.164 HD
ATOM      6  H13 <0> d          -3.438  -4.035   2.884  0.00  0.00     0.192 HD
ENDROOT
BRANCH   1   7
ATOM      7  C8  <0> d          -0.189  -2.842   0.087  0.00  0.00     0.166 C 
BRANCH   7   8
ATOM      8  C4  <0> d          -0.093  -2.080  -1.210  0.00  0.00     0.004 A 
ATOM      9  C3  <0> d          -0.124  -0.689  -1.214  0.00  0.00     0.110 A 
ATOM     10  N2  <0> d          -0.045  -0.016  -2.352  0.00  0.00    -0.352 N 
ATOM     11  C7  <0> d           0.076  -0.632  -3.513  0.00  0.00     0.089 A 
ATOM     12  H24 <0> d          -0.073   0.953  -2.331  0.00  0.00     0.166 HD
ATOM     13  C6  <0> d           0.113  -2.010  -3.582  0.00  0.00     0.018 A 
ATOM     14  C5  <0> d           0.027  -2.753  -2.412  0.00  0.00     0.014 A 
BRANCH   9  15
ATOM     15  N1  <0> d          -0.244   0.001  -0.013  0.00  0.00    -0.376 N 
ATOM     16  C1  <0> d          -1.566   0.419   0.462  0.00  0.00     0.150 C 
ATOM     17  C2  <0> d           0.950   0.310   0.777  0.00  0.00     0.150 C 
ENDBRANCH   9  15
ENDBRANCH   7   8
ENDBRANCH   1   7
BRANCH   4  18
ATOM     18  N5  <0> d          -4.198  -2.967   1.289  0.00  0.00    -0.266 N 
ATOM     19  C10 <0> d          -5.485  -3.015   1.688  0.00  0.00     0.240 C 
ATOM     20  O2  <0> d          -5.780  -3.587   2.716  0.00  0.00    -0.272 OA
ATOM     21  H14 <0> d          -3.962  -2.510   0.467  0.00  0.00     0.190 HD
BRANCH  19  22
ATOM     22  C11 <0> d          -6.556  -2.358   0.856  0.00  0.00     0.146 C 
BRANCH  22  23
ATOM     23  C12 <0> d          -7.896  -2.556   1.517  0.00  0.00    -0.016 A 
ATOM     24  C17 <0> d          -8.316  -1.681   2.509  0.00  0.00     0.074 A 
ATOM     25  C16 <0> d          -9.553  -1.862   3.112  0.00  0.00     0.037 A 
ATOM     26  C15 <0> d         -10.358  -2.918   2.731  0.00  0.00     0.003 A 
ATOM     27  C14 <0> d          -9.934  -3.792   1.746  0.00  0.00     0.001 A 
ATOM     28  C13 <0> d          -8.705  -3.610   1.140  0.00  0.00     0.010 A 
BRANCH  24  29
ATOM     29  O3  <0> d          -7.520  -0.647   2.886  0.00  0.00    -0.355 OA
ATOM     30  C18 <0> d          -8.017   0.213   3.914  0.00  0.00     0.210 C 
ENDBRANCH  24  29
ENDBRANCH  22  23
ENDBRANCH  19  22
ENDBRANCH   4  18
TORSDOF 7
