REMARK  8 active torsions:
REMARK  status: ('A' for Active; 'I' for Inactive)
REMARK    1  A    between atoms: C2_2  and  C4_4 
REMARK    2  A    between atoms: C2_2  and  N7_34 
REMARK    3  A    between atoms: C5_6  and  C6_7 
REMARK    4  A    between atoms: C5_6  and  N4_24 
REMARK    5  A    between atoms: C5_6  and  N7_34 
REMARK    6  A    between atoms: C9_10  and  C12_13 
REMARK    7  A    between atoms: C12_13  and  N1_15 
REMARK    8  A    between atoms: C12_13  and  N8_37 
ROOT
ATOM      1  C6  <0> d           0.717   6.713  -3.664  0.00  0.00    -0.007 A 
ATOM      2  C7  <0> d          -0.477   6.170  -3.228  0.00  0.00     0.012 A 
ATOM      3  C8  <0> d          -0.496   5.340  -2.122  0.00  0.00     0.012 A 
ATOM      4  C9  <0> d           0.678   5.053  -1.453  0.00  0.00    -0.007 A 
ATOM      5  C10 <0> d           1.872   5.601  -1.886  0.00  0.00     0.012 A 
ATOM      6  C11 <0> d           1.892   6.426  -2.995  0.00  0.00     0.012 A 
ENDROOT
BRANCH   1   7
ATOM      7  C5  <0> d           0.738   7.618  -4.869  0.00  0.00     0.345 C 
BRANCH   7   8
ATOM      8  N4  <0> d           0.914   9.006  -4.434  0.00  0.00    -0.213 N 
ATOM      9  N6  <0> d           2.114   9.615  -4.039  0.00  0.00    -0.063 NA
ATOM     10  N5  <0> d           1.887  10.842  -3.725  0.00  0.00    -0.130 NA
ATOM     11  C25 <0> d           0.580  11.131  -3.880  0.00  0.00     0.109 A 
ATOM     12  C20 <0> d          -0.063   9.968  -4.340  0.00  0.00     0.087 A 
ATOM     13  C24 <0> d          -0.175  12.295  -3.680  0.00  0.00     0.036 A 
ATOM     14  C21 <0> d          -1.430   9.986  -4.592  0.00  0.00     0.034 A 
ATOM     15  C22 <0> d          -2.143  11.135  -4.394  0.00  0.00     0.002 A 
ATOM     16  C23 <0> d          -1.514  12.288  -3.942  0.00  0.00     0.003 A 
ENDBRANCH   7   8
BRANCH   7  17
ATOM     17  N7  <0> d           1.859   7.231  -5.746  0.00  0.00    -0.030 N 
ATOM     18  H24 <0> d           2.667   7.832  -5.546  0.00  0.00     0.281 HD
ATOM     19  H25 <0> d           2.108   6.252  -5.565  0.00  0.00     0.281 HD
BRANCH  17  20
ATOM     20  C2  <0> d           1.477   7.383  -7.162  0.00  0.00     0.208 C 
ATOM     21  C1  <0> d           0.360   6.394  -7.503  0.00  0.00     0.058 C 
ATOM     22  C3  <0> d           0.987   8.811  -7.413  0.00  0.00     0.058 C 
BRANCH  20  23
ATOM     23  C4  <0> d           2.677   7.104  -8.030  0.00  0.00     0.210 C 
ATOM     24  O1  <0> d           2.536   6.560  -9.100  0.00  0.00    -0.646 OA
ATOM     25  O2  <0> d           3.903   7.460  -7.615  0.00  0.00    -0.646 OA
ENDBRANCH  20  23
ENDBRANCH  17  20
ENDBRANCH   7  17
ENDBRANCH   1   7
BRANCH   4  26
ATOM     26  C12 <0> d           0.658   4.149  -0.247  0.00  0.00     0.343 C 
BRANCH  26  27
ATOM     27  N1  <0> d           1.207   2.840  -0.609  0.00  0.00    -0.213 N 
ATOM     28  N3  <0> d           2.560   2.523  -0.805  0.00  0.00    -0.063 NA
ATOM     29  N2  <0> d           2.667   1.278  -1.113  0.00  0.00    -0.130 NA
ATOM     30  C19 <0> d           1.450   0.698  -1.144  0.00  0.00     0.109 A 
ATOM     31  C14 <0> d           0.499   1.682  -0.824  0.00  0.00     0.087 A 
ATOM     32  C18 <0> d           1.018  -0.607  -1.418  0.00  0.00     0.036 A 
ATOM     33  C15 <0> d          -0.851   1.353  -0.783  0.00  0.00     0.034 A 
ATOM     34  C16 <0> d          -1.248   0.073  -1.054  0.00  0.00     0.002 A 
ATOM     35  C17 <0> d          -0.313  -0.904  -1.371  0.00  0.00     0.003 A 
ENDBRANCH  26  27
BRANCH  26  36
ATOM     36  N8  <0> d           1.477   4.749   0.822  0.00  0.00    -0.052 N 
ATOM     37  C13 <0> d           1.067   4.224   2.138  0.00  0.00     0.269 C 
ATOM     38  H26 <0> d           1.355   5.769   0.811  0.00  0.00     0.279 HD
ATOM     39  H27 <0> d           2.465   4.521   0.660  0.00  0.00     0.279 HD
ENDBRANCH  26  36
ENDBRANCH   4  26
TORSDOF 8
