REMARK  15 active torsions:
REMARK  status: ('A' for Active; 'I' for Inactive)
REMARK    1  A    between atoms: C2_2  and  C3_3 
REMARK    2  A    between atoms: C3_3  and  C4_4 
REMARK    3  A    between atoms: C4_4  and  C5_5 
REMARK    4  A    between atoms: C5_5  and  C6_6 
REMARK    5  A    between atoms: C6_6  and  C7_7 
REMARK    6  A    between atoms: C6_6  and  O4_24 
REMARK    7  A    between atoms: C8_8  and  C9_9 
REMARK    8  A    between atoms: C10_10  and  O3_23 
REMARK    9  A    between atoms: C12_12  and  O2_22 
REMARK   10  A    between atoms: C13_13  and  C14_14 
REMARK   11  A    between atoms: C14_14  and  C15_15 
REMARK   12  A    between atoms: C16_16  and  C17_17 
REMARK   13  A    between atoms: C17_17  and  C18_18 
REMARK   14  A    between atoms: C18_18  and  C19_19 
REMARK   15  A    between atoms: C19_19  and  C20_20 
ROOT
ATOM      1  C9  <0> d          -0.013   1.086   0.008  0.00  0.00     0.043 C 
ATOM      2  C10 <0> d           1.426   1.633  -0.003  0.00  0.00     0.128 C 
ATOM      3  C11 <0> d           1.593   2.458   1.290  0.00  0.00     0.064 C 
ATOM      4  C12 <0> d           0.526   1.879   2.251  0.00  0.00     0.125 C 
ATOM      5  C13 <0> d          -0.669   1.598   1.307  0.00  0.00     0.028 C 
ENDROOT
BRANCH   1   6
ATOM      6  C8  <0> d          -0.769   1.598  -1.191  0.00  0.00    -0.021 C 
ATOM      7  C7  <0> d          -1.300   0.754  -2.040  0.00  0.00     0.001 C 
BRANCH   7   8
ATOM      8  C6  <0> d          -2.056   1.266  -3.239  0.00  0.00     0.140 C 
BRANCH   8   9
ATOM      9  C5  <0> d          -1.460   0.665  -4.513  0.00  0.00     0.036 C 
BRANCH   9  10
ATOM     10  C4  <0> d          -2.303   1.085  -5.718  0.00  0.00     0.003 C 
BRANCH  10  11
ATOM     11  C3  <0> d          -1.706   0.484  -6.993  0.00  0.00    -0.000 C 
BRANCH  11  12
ATOM     12  C2  <0> d          -2.550   0.904  -8.198  0.00  0.00    -0.005 C 
ATOM     13  C1  <0> d          -1.953   0.302  -9.472  0.00  0.00     0.005 C 
ENDBRANCH  11  12
ENDBRANCH  10  11
ENDBRANCH   9  10
ENDBRANCH   8   9
BRANCH   8  14
ATOM     14  O4  <0> d          -1.956   2.691  -3.292  0.00  0.00    -0.392 OA
ATOM     15  H33 <0> d          -1.049   3.018  -3.365  0.00  0.00     0.210 HD
ENDBRANCH   8  14
ENDBRANCH   7   8
ENDBRANCH   1   6
BRANCH   5  16
ATOM     16  C14 <0> d          -1.583   0.526   1.903  0.00  0.00     0.034 C 
BRANCH  16  17
ATOM     17  C15 <0> d          -2.306   1.091   3.099  0.00  0.00    -0.030 C 
ATOM     18  C16 <0> d          -3.614   1.050   3.154  0.00  0.00    -0.031 C 
BRANCH  18  19
ATOM     19  C17 <0> d          -4.336   1.615   4.350  0.00  0.00     0.027 C 
BRANCH  19  20
ATOM     20  C18 <0> d          -5.361   2.651   3.884  0.00  0.00     0.014 C 
BRANCH  20  21
ATOM     21  C19 <0> d          -6.094   3.225   5.098  0.00  0.00     0.113 C 
BRANCH  21  22
ATOM     22  C20 <0> d          -7.104   4.246   4.639  0.00  0.00     0.172 C 
ATOM     23  O1  <0> d          -7.224   4.489   3.462  0.00  0.00    -0.648 OA
ATOM     24  O5  <0> d          -7.869   4.884   5.539  0.00  0.00    -0.648 OA
ENDBRANCH  21  22
ENDBRANCH  20  21
ENDBRANCH  19  20
ENDBRANCH  18  19
ENDBRANCH  16  17
ENDBRANCH   5  16
BRANCH   2  25
ATOM     25  O3  <0> d           1.624   2.466  -1.146  0.00  0.00    -0.395 OA
ATOM     26  H32 <0> d           2.513   2.842  -1.210  0.00  0.00     0.210 HD
ENDBRANCH   2  25
BRANCH   4  27
ATOM     27  O2  <0> d           0.992   0.671   2.857  0.00  0.00    -0.395 OA
ATOM     28  H31 <0> d           1.787   0.783   3.395  0.00  0.00     0.210 HD
ENDBRANCH   4  27
TORSDOF 15
