REMARK  6 active torsions:
REMARK  status: ('A' for Active; 'I' for Inactive)
REMARK    1  A    between atoms: C7_7  and  O1_12 
REMARK    2  A    between atoms: O1_12  and  C11_13 
REMARK    3  A    between atoms: C11_13  and  C12_14 
REMARK       I    between atoms: C12_14  and  N1_16 
REMARK    4  A    between atoms: N1_16  and  C13_17 
REMARK    5  A    between atoms: C13_17  and  C14_18 
REMARK    6  A    between atoms: C13_17  and  C15_21 
REMARK       I    between atoms: C14_18  and  N2_20 
REMARK       I    between atoms: C15_21  and  N3_23 
ROOT
ATOM      1  C12 <0> d          -1.930  -4.728   1.021  0.00  0.00     0.242 C 
ATOM      2  O2  <0> d          -3.023  -4.283   0.739  0.00  0.00    -0.271 OA
ATOM      3  N1  <0> d          -1.603  -5.986   0.665  0.00  0.00    -0.338 N 
ATOM      4  H9  <0> d          -0.729  -6.342   0.890  0.00  0.00     0.163 HD
ENDROOT
BRANCH   1   5
ATOM      5  C11 <0> d          -0.939  -3.875   1.769  0.00  0.00     0.278 C 
BRANCH   5   6
ATOM      6  O1  <0> d          -1.515  -2.593   2.030  0.00  0.00    -0.341 OA
BRANCH   6   7
ATOM      7  C7  <0> d          -0.747  -1.697   2.702  0.00  0.00     0.080 A 
ATOM      8  C5  <0> d          -1.248  -0.413   2.995  0.00  0.00     0.009 A 
ATOM      9  C4  <0> d          -0.430   0.507   3.697  0.00  0.00    -0.001 A 
ATOM     10  C6  <0> d          -2.541  -0.028   2.606  0.00  0.00     0.015 A 
ATOM     11  C3  <0> d          -0.929   1.788   3.991  0.00  0.00     0.014 A 
ATOM     12  C10 <0> d           0.865   0.122   4.088  0.00  0.00     0.045 A 
ATOM     13  C2  <0> d          -2.188   2.126   3.598  0.00  0.00     0.001 A 
ATOM     14  C1  <0> d          -2.991   1.221   2.907  0.00  0.00     0.001 A 
ATOM     15  C9  <0> d           1.317  -1.128   3.787  0.00  0.00     0.027 A 
ATOM     16 Cl1  <0> d           1.883   1.234   4.948  0.00  0.00    -0.083 Cl
ATOM     17  C8  <0> d           0.517  -2.034   3.097  0.00  0.00     0.039 A 
ENDBRANCH   6   7
ENDBRANCH   5   6
ENDBRANCH   1   5
BRANCH   3  18
ATOM     18  C13 <0> d          -2.566  -6.816  -0.062  0.00  0.00     0.269 C 
BRANCH  18  19
ATOM     19  C14 <0> d          -2.466  -6.527  -1.538  0.00  0.00     0.247 C 
ATOM     20  O3  <0> d          -1.428  -6.107  -2.005  0.00  0.00    -0.271 OA
ATOM     21  N2  <0> d          -3.530  -6.734  -2.339  0.00  0.00    -0.368 N 
ATOM     22  H11 <0> d          -4.380  -7.000  -1.957  0.00  0.00     0.159 HD
ATOM     23  H12 <0> d          -3.445  -6.617  -3.299  0.00  0.00     0.159 HD
ENDBRANCH  18  19
BRANCH  18  24
ATOM     24  C15 <0> d          -2.264  -8.271   0.185  0.00  0.00     0.247 C 
ATOM     25  O4  <0> d          -1.145  -8.612   0.506  0.00  0.00    -0.271 OA
ATOM     26  N3  <0> d          -3.237  -9.194   0.051  0.00  0.00    -0.368 N 
ATOM     27  H13 <0> d          -4.147  -8.916  -0.137  0.00  0.00     0.159 HD
ATOM     28  H14 <0> d          -3.027 -10.137   0.141  0.00  0.00     0.159 HD
ENDBRANCH  18  24
ENDBRANCH   3  18
TORSDOF 6
