REMARK  5 active torsions:
REMARK  status: ('A' for Active; 'I' for Inactive)
REMARK    1  A    between atoms: C4_4  and  S1_7 
REMARK    2  A    between atoms: S1_7  and  N1_10 
REMARK    3  A    between atoms: N1_10  and  C7_11 
REMARK    4  A    between atoms: C7_11  and  C8_12 
REMARK    5  A    between atoms: C8_12  and  C9_13 
ROOT
ATOM      1  N1  <0> d           4.378  -1.079   1.536  0.00  0.00    -0.315 N 
ATOM      2  H6  <0> d           5.174  -0.651   1.888  0.00  0.00     0.172 HD
ENDROOT
BRANCH   1   3
ATOM      3  S1  <0> d           3.934  -0.832  -0.041  0.00  0.00     0.258 S 
ATOM      4  O1  <0> d           3.674  -2.114  -0.595  0.00  0.00    -0.201 OA
ATOM      5  O2  <0> d           4.890   0.060  -0.597  0.00  0.00    -0.201 OA
BRANCH   3   6
ATOM      6  C4  <0> d           2.396   0.029  -0.020  0.00  0.00     0.079 A 
ATOM      7  C3  <0> d           2.377   1.411  -0.013  0.00  0.00     0.025 A 
ATOM      8  C2  <0> d           1.171   2.086   0.002  0.00  0.00     0.002 A 
ATOM      9  C1  <0> d          -0.017   1.378   0.010  0.00  0.00     0.000 A 
ATOM     10  C6  <0> d           0.002  -0.004   0.002  0.00  0.00     0.002 A 
ATOM     11  C5  <0> d           1.208  -0.679  -0.012  0.00  0.00     0.025 A 
ENDBRANCH   3   6
ENDBRANCH   1   3
BRANCH   1  12
ATOM     12  C7  <0> d           3.567  -1.942   2.398  0.00  0.00     0.139 C 
BRANCH  12  13
ATOM     13  C8  <0> d           4.365  -2.303   3.652  0.00  0.00     0.089 C 
BRANCH  13  14
ATOM     14  C9  <0> d           3.532  -3.192   4.540  0.00  0.00     0.101 A 
ATOM     15  S2  <0> d           3.952  -3.912   6.119  0.00  0.00    -0.031 SA
ATOM     16  C11 <0> d           2.422  -4.765   6.405  0.00  0.00     0.217 A 
ATOM     17  N3  <0> d           1.699  -4.453   5.280  0.00  0.00    -0.199 N 
ATOM     18  N5  <0> d           1.702  -5.530   7.168  0.00  0.00    -0.121 NA
ATOM     19  N2  <0> d           2.325  -3.635   4.349  0.00  0.00    -0.162 NA
ATOM     20  C10 <0> d           0.500  -5.109   5.469  0.00  0.00     0.261 A 
ATOM     21  N4  <0> d           0.558  -5.734   6.611  0.00  0.00    -0.141 NA
ENDBRANCH  13  14
ENDBRANCH  12  13
ENDBRANCH   1  12
TORSDOF 5
