REMARK  5 active torsions:
REMARK  status: ('A' for Active; 'I' for Inactive)
REMARK    1  A    between atoms: C2_2  and  C13_20 
REMARK    2  A    between atoms: N1_5  and  C5_9 
REMARK    3  A    between atoms: C5_9  and  C6_10 
REMARK    4  A    between atoms: C6_10  and  C7_11 
REMARK    5  A    between atoms: C6_10  and  O3_19 
ROOT
ATOM      1  C1  <0> d          -0.019   1.526   0.010  0.00  0.00     0.049 C 
ATOM      2  C2  <0> d           0.002  -0.004   0.002  0.00  0.00     0.116 A 
ATOM      3  C3  <0> d          -1.403  -0.557   0.139  0.00  0.00     0.256 A 
ATOM      4  O1  <0> d          -2.332  -0.392  -0.621  0.00  0.00    -0.270 OA
ATOM      5  N1  <0> d          -1.403  -1.272   1.282  0.00  0.00    -0.265 N 
ATOM      6  C4  <0> d          -0.206  -1.247   1.879  0.00  0.00     0.326 A 
ATOM      7  O2  <0> d           0.040  -1.819   2.924  0.00  0.00    -0.247 OA
ATOM      8  N2  <0> d           0.695  -0.520   1.195  0.00  0.00    -0.324 N 
ATOM      9  H5  <0> d           1.621  -0.365   1.440  0.00  0.00     0.165 HD
ENDROOT
BRANCH   5  10
ATOM     10  C5  <0> d          -2.569  -1.986   1.805  0.00  0.00     0.173 C 
BRANCH  10  11
ATOM     11  C6  <0> d          -2.585  -3.413   1.252  0.00  0.00     0.171 C 
BRANCH  11  12
ATOM     12  C7  <0> d          -3.847  -4.108   1.690  0.00  0.00    -0.005 A 
ATOM     13  C12 <0> d          -5.012  -3.954   0.960  0.00  0.00     0.043 A 
ATOM     14  C11 <0> d          -6.170  -4.598   1.360  0.00  0.00     0.026 A 
ATOM     15 Cl1  <0> d          -5.019  -2.958  -0.462  0.00  0.00    -0.084 Cl
ATOM     16  C10 <0> d          -6.166  -5.385   2.495  0.00  0.00     0.025 A 
ATOM     17  C9  <0> d          -5.002  -5.535   3.229  0.00  0.00     0.034 A 
ATOM     18  C8  <0> d          -3.843  -4.896   2.826  0.00  0.00     0.035 A 
ATOM     19 Cl2  <0> d          -4.997  -6.526   4.655  0.00  0.00    -0.084 Cl
ENDBRANCH  11  12
BRANCH  11  20
ATOM     20  O3  <0> d          -1.450  -4.128   1.745  0.00  0.00    -0.389 OA
ATOM     21  H11 <0> d          -1.418  -4.196   2.709  0.00  0.00     0.210 HD
ENDBRANCH  11  20
ENDBRANCH  10  11
ENDBRANCH   5  10
BRANCH   2  22
ATOM     22  C13 <0> d           0.667  -0.525  -1.274  0.00  0.00     0.023 A 
ATOM     23  C15 <0> d           2.113  -0.103  -1.540  0.00  0.00     0.008 A 
ATOM     24  C14 <0> d           1.801  -1.539  -1.116  0.00  0.00     0.008 A 
ENDBRANCH   2  22
TORSDOF 5
