REMARK  4 active torsions:
REMARK  status: ('A' for Active; 'I' for Inactive)
REMARK    1  A    between atoms: C5_5  and  O3_19 
REMARK    2  A    between atoms: C6_6  and  C8_8 
REMARK    3  A    between atoms: C8_8  and  N1_10 
REMARK    4  A    between atoms: N1_10  and  C10_11 
ROOT
ATOM      1  C8  <0> d           0.114  -2.837   2.404  0.00  0.00     0.217 C 
ATOM      2  C9  <0> d          -1.293  -3.332   2.745  0.00  0.00     0.045 C 
ENDROOT
BRANCH   1   3
ATOM      3  C6  <0> d           0.077  -2.079   1.102  0.00  0.00     0.005 A 
ATOM      4  C5  <0> d           0.065  -2.767  -0.102  0.00  0.00     0.074 A 
ATOM      5  C4  <0> d           0.031  -2.066  -1.299  0.00  0.00     0.037 A 
ATOM      6  C3  <0> d           0.010  -0.685  -1.289  0.00  0.00     0.009 A 
ATOM      7  C2  <0> d           0.021  -0.001  -0.087  0.00  0.00    -0.061 A 
ATOM      8  C1  <0> d          -0.003   1.506  -0.079  0.00  0.00     0.048 C 
ATOM      9  C7  <0> d           0.061  -0.697   1.106  0.00  0.00     0.018 A 
BRANCH   4  10
ATOM     10  O3  <0> d           0.086  -4.126  -0.110  0.00  0.00    -0.360 OA
ATOM     11  H21 <0> d           0.975  -4.505  -0.129  0.00  0.00     0.217 HD
ENDBRANCH   4  10
ENDBRANCH   1   3
BRANCH   1  12
ATOM     12  N1  <0> d           0.594  -1.951   3.473  0.00  0.00    -0.063 N 
ATOM     13  H11 <0> d           1.480  -1.549   3.204  0.00  0.00     0.278 HD
ATOM     14  H22 <0> d          -0.077  -1.213   3.625  0.00  0.00     0.278 HD
BRANCH  12  15
ATOM     15  C10 <0> d           0.762  -2.724   4.711  0.00  0.00     0.188 C 
ATOM     16  C14 <0> d           1.892  -3.732   4.524  0.00  0.00     0.048 C 
ATOM     17  C13 <0> d           1.907  -4.722   5.692  0.00  0.00     0.142 C 
ATOM     18  S1  <0> d           2.256  -3.815   7.227  0.00  0.00     0.144 S 
ATOM     19  C12 <0> d           0.987  -2.514   7.195  0.00  0.00     0.142 C 
ATOM     20  O1  <0> d           3.533  -3.203   7.111  0.00  0.00    -0.228 OA
ATOM     21  O2  <0> d           1.996  -4.672   8.330  0.00  0.00    -0.228 OA
ATOM     22  C11 <0> d           1.074  -1.770   5.860  0.00  0.00     0.048 C 
ENDBRANCH  12  15
ENDBRANCH   1  12
TORSDOF 4
