REMARK  5 active torsions:
REMARK  status: ('A' for Active; 'I' for Inactive)
REMARK    1  A    between atoms: C5_5  and  N1_8 
REMARK    2  A    between atoms: C12_18  and  S1_19 
REMARK    3  A    between atoms: S1_19  and  C13_20 
REMARK    4  A    between atoms: C13_20  and  C14_21 
REMARK       I    between atoms: C14_21  and  N5_23 
REMARK    5  A    between atoms: N5_23  and  C15_24 
ROOT
ATOM      1  N1  <0> d          -0.204   5.036  -0.020  0.00  0.00    -0.273 N 
ATOM      2  C8  <0> d           0.066   3.689  -0.039  0.00  0.00     0.172 A 
ATOM      3  C9  <0> d          -1.171   3.041  -0.026  0.00  0.00     0.173 A 
ATOM      4  C10 <0> d          -1.191   1.625  -0.047  0.00  0.00     0.279 A 
ATOM      5  O1  <0> d          -2.246   1.013  -0.042  0.00  0.00    -0.265 OA
ATOM      6  N2  <0> d          -0.009   0.969  -0.067  0.00  0.00    -0.316 N 
ATOM      7  H1  <0> d           0.004  -0.001  -0.078  0.00  0.00     0.170 HD
ATOM      8  C11 <0> d           1.159   1.661  -0.078  0.00  0.00     0.212 A 
ATOM      9  N3  <0> d           1.193   2.964  -0.065  0.00  0.00    -0.223 NA
ATOM     10  N4  <0> d          -2.132   3.997   0.000  0.00  0.00    -0.214 NA
ATOM     11  C12 <0> d          -1.567   5.180   0.004  0.00  0.00     0.176 A 
ENDROOT
BRANCH  11  12
ATOM     12  S1  <0> d          -2.426   6.717   0.034  0.00  0.00    -0.082 SA
BRANCH  12  13
ATOM     13  C13 <0> d          -4.136   6.122   0.056  0.00  0.00     0.185 C 
BRANCH  13  14
ATOM     14  C14 <0> d          -5.077   7.298   0.084  0.00  0.00     0.232 C 
ATOM     15  O2  <0> d          -4.636   8.428   0.089  0.00  0.00    -0.272 OA
ATOM     16  N5  <0> d          -6.409   7.095   0.104  0.00  0.00    -0.324 N 
ATOM     17  H12 <0> d          -6.763   6.194   0.035  0.00  0.00     0.169 HD
BRANCH  16  18
ATOM     18  C15 <0> d          -7.283   8.184   0.224  0.00  0.00     0.073 A 
ATOM     19  C20 <0> d          -8.474   8.047   0.928  0.00  0.00     0.145 A 
ATOM     20  C19 <0> d          -9.332   9.125   1.048  0.00  0.00     0.086 A 
ATOM     21  F1  <0> d          -8.791   6.863   1.497  0.00  0.00    -0.204 F 
ATOM     22  C18 <0> d          -9.009  10.336   0.460  0.00  0.00     0.119 A 
ATOM     23  C17 <0> d          -7.825  10.472  -0.245  0.00  0.00     0.044 A 
ATOM     24  F2  <0> d          -9.851  11.387   0.575  0.00  0.00    -0.206 F 
ATOM     25  C16 <0> d          -6.963   9.400  -0.364  0.00  0.00     0.036 A 
ENDBRANCH  16  18
ENDBRANCH  13  14
ENDBRANCH  12  13
ENDBRANCH  11  12
BRANCH   1  26
ATOM     26  C5  <0> d           0.740   6.072  -0.024  0.00  0.00     0.043 A 
ATOM     27  C4  <0> d           0.815   6.941  -1.104  0.00  0.00     0.030 A 
ATOM     28  C3  <0> d           1.746   7.961  -1.105  0.00  0.00     0.009 A 
ATOM     29  C2  <0> d           2.603   8.117  -0.030  0.00  0.00    -0.062 A 
ATOM     30  C1  <0> d           3.618   9.232  -0.034  0.00  0.00     0.048 C 
ATOM     31  C7  <0> d           2.530   7.254   1.047  0.00  0.00     0.009 A 
ATOM     32  C6  <0> d           1.597   6.236   1.056  0.00  0.00     0.030 A 
ENDBRANCH   1  26
TORSDOF 5
