REMARK  4 active torsions:
REMARK  status: ('A' for Active; 'I' for Inactive)
REMARK    1  A    between atoms: C2_2  and  C3_3 
REMARK    2  A    between atoms: N1_7  and  C8_9 
REMARK    3  A    between atoms: C8_9  and  C9_10 
REMARK       I    between atoms: C9_10  and  N2_12 
REMARK       I    between atoms: N2_12  and  C10_13 
REMARK       I    between atoms: C10_13  and  N3_15 
REMARK    4  A    between atoms: N3_15  and  C11_16 
ROOT
ATOM      1  C9  <0> d           4.987  -0.762  -2.811  0.00  0.00     0.243 C 
ATOM      2  O1  <0> d           4.521   0.202  -3.379  0.00  0.00    -0.271 OA
ATOM      3  N2  <0> d           6.320  -0.864  -2.640  0.00  0.00    -0.278 N 
ATOM      4  C10 <0> d           7.135   0.105  -3.102  0.00  0.00     0.327 C 
ATOM      5  O2  <0> d           6.668   1.071  -3.672  0.00  0.00    -0.247 OA
ATOM      6  N3  <0> d           8.468   0.002  -2.932  0.00  0.00    -0.308 N 
ATOM      7  H11 <0> d           6.693  -1.635  -2.185  0.00  0.00     0.173 HD
ATOM      8  H12 <0> d           8.846  -0.800  -2.538  0.00  0.00     0.170 HD
ENDROOT
BRANCH   1   9
ATOM      9  C8  <0> d           4.076  -1.845  -2.294  0.00  0.00     0.231 C 
BRANCH   9  10
ATOM     10  N1  <0> d           2.685  -1.502  -2.602  0.00  0.00    -0.351 N 
ATOM     11  C6  <0> d           2.028  -0.698  -1.789  0.00  0.00     0.007 A 
ATOM     12  C5  <0> d           0.715  -0.350  -2.048  0.00  0.00     0.025 A 
ATOM     13  C19 <0> d           2.716  -0.150  -0.565  0.00  0.00     0.068 C 
ATOM     14  C4  <0> d           0.091  -0.859  -3.176  0.00  0.00     0.010 A 
ATOM     15  C3  <0> d           0.815  -1.702  -4.007  0.00  0.00    -0.043 A 
ATOM     16  C7  <0> d           2.122  -2.009  -3.681  0.00  0.00     0.098 A 
BRANCH  15  17
ATOM     17  C2  <0> d           0.181  -2.281  -5.246  0.00  0.00     0.035 C 
ATOM     18  C1  <0> d          -0.490  -3.612  -4.901  0.00  0.00     0.010 C 
ENDBRANCH  15  17
ENDBRANCH   9  10
ENDBRANCH   1   9
BRANCH   6  19
ATOM     19  C11 <0> d           9.306   1.053  -3.322  0.00  0.00     0.042 A 
ATOM     20  C16 <0> d          10.516   1.255  -2.672  0.00  0.00    -0.035 A 
ATOM     21  C15 <0> d          11.344   2.289  -3.064  0.00  0.00     0.015 A 
ATOM     22  C17 <0> d          10.929   0.344  -1.545  0.00  0.00     0.050 C 
ATOM     23  C14 <0> d          10.963   3.129  -4.094  0.00  0.00    -0.061 A 
ATOM     24  C13 <0> d           9.756   2.934  -4.739  0.00  0.00     0.009 A 
ATOM     25  C18 <0> d          11.866   4.260  -4.515  0.00  0.00     0.048 C 
ATOM     26  C12 <0> d           8.927   1.898  -4.356  0.00  0.00     0.030 A 
ENDBRANCH   6  19
TORSDOF 4
