REMARK  6 active torsions:
REMARK  status: ('A' for Active; 'I' for Inactive)
REMARK    1  A    between atoms: C2_2  and  S1_3 
REMARK    2  A    between atoms: S1_3  and  N1_6 
REMARK    3  A    between atoms: N1_6  and  C4_8 
REMARK       I    between atoms: N2_11  and  C9_14 
REMARK       I    between atoms: C9_14  and  N3_16 
REMARK    4  A    between atoms: N3_16  and  C10_17 
REMARK    5  A    between atoms: C10_17  and  C11_18 
REMARK    6  A    between atoms: N4_21  and  C15_23 
ROOT
ATOM      1  C4  <0> d          -1.548  -2.566  -3.371  0.00  0.00     0.098 C 
ATOM      2  C5  <0> d          -0.228  -3.285  -3.656  0.00  0.00     0.046 C 
ATOM      3  C6  <0> d          -0.093  -4.487  -2.716  0.00  0.00     0.129 C 
ATOM      4  N2  <0> d          -1.285  -5.335  -2.858  0.00  0.00    -0.334 N 
ATOM      5  C7  <0> d          -2.611  -4.723  -2.694  0.00  0.00     0.129 C 
ATOM      6  C8  <0> d          -2.717  -3.518  -3.634  0.00  0.00     0.046 C 
ATOM      7  C9  <0> d          -1.165  -6.648  -3.134  0.00  0.00     0.318 C 
ATOM      8  O3  <0> d          -2.153  -7.357  -3.159  0.00  0.00    -0.247 OA
ATOM      9  N3  <0> d           0.050  -7.176  -3.383  0.00  0.00    -0.343 N 
ATOM     10  H19 <0> d           0.845  -6.628  -3.291  0.00  0.00     0.164 HD
ENDROOT
BRANCH   9  11
ATOM     11  C10 <0> d           0.170  -8.578  -3.792  0.00  0.00     0.130 C 
BRANCH  11  12
ATOM     12  C11 <0> d           1.645  -8.921  -4.009  0.00  0.00     0.031 C 
ATOM     13  C14 <0> d           1.799 -10.375  -4.503  0.00  0.00     0.241 C 
ATOM     14  N4  <0> d           2.985 -10.940  -3.826  0.00  0.00    -0.067 N 
ATOM     15  C13 <0> d           3.579  -9.895  -2.966  0.00  0.00     0.236 C 
ATOM     16  H35 <0> d           2.711 -11.730  -3.261  0.00  0.00     0.280 HD
ATOM     17  C12 <0> d           2.412  -8.923  -2.660  0.00  0.00     0.035 C 
BRANCH  14  18
ATOM     18  C15 <0> d           3.966 -11.370  -4.832  0.00  0.00     0.180 C 
ATOM     19  C16 <0> d           5.187 -11.966  -4.129  0.00  0.00     0.039 C 
ATOM     20  C17 <0> d           3.335 -12.425  -5.742  0.00  0.00     0.039 C 
ENDBRANCH  14  18
ENDBRANCH  11  12
ENDBRANCH   9  11
BRANCH   1  21
ATOM     21  N1  <0> d          -1.665  -1.396  -4.245  0.00  0.00    -0.310 N 
ATOM     22  C3  <0> d          -1.663  -1.566  -5.701  0.00  0.00     0.163 C 
BRANCH  21  23
ATOM     23  S1  <0> d          -1.800   0.118  -3.589  0.00  0.00     0.228 S 
ATOM     24  O1  <0> d          -1.285   0.992  -4.585  0.00  0.00    -0.206 OA
ATOM     25  O2  <0> d          -1.174   0.020  -2.317  0.00  0.00    -0.206 OA
BRANCH  23  26
ATOM     26  C2  <0> d          -3.584   0.382  -3.388  0.00  0.00     0.159 C 
ATOM     27  C1  <0> d          -3.829   1.766  -2.783  0.00  0.00     0.023 C 
ENDBRANCH  23  26
ENDBRANCH  21  23
ENDBRANCH   1  21
TORSDOF 6
