REMARK  3 active torsions:
REMARK  status: ('A' for Active; 'I' for Inactive)
REMARK    1  A    between atoms: C3_6  and  N3_7 
REMARK    2  A    between atoms: N3_7  and  S1_8 
REMARK    3  A    between atoms: S1_8  and  C4_11 
ROOT
ATOM      1  S1  <0> d           3.663   2.630  -0.018  0.00  0.00     0.268 S 
ATOM      2  O1  <0> d           4.887   1.908  -0.006  0.00  0.00    -0.200 OA
ATOM      3  O2  <0> d           3.343   3.568  -1.036  0.00  0.00    -0.200 OA
ENDROOT
BRANCH   1   4
ATOM      4  N3  <0> d           2.449   1.505  -0.013  0.00  0.00    -0.263 N 
ATOM      5  H6  <0> d           2.664   0.559  -0.019  0.00  0.00     0.180 HD
BRANCH   4   6
ATOM      6  C3  <0> d           1.111   1.918   0.002  0.00  0.00     0.158 A 
ATOM      7  C1  <0> d          -0.013   1.076   0.008  0.00  0.00     0.071 A 
ATOM      8  C2  <0> d          -1.116   1.857   0.029  0.00  0.00     0.113 A 
ATOM      9  N1  <0> d          -0.712   3.145   0.029  0.00  0.00    -0.287 N 
ATOM     10  H1  <0> d          -1.290   3.923   0.042  0.00  0.00     0.188 HD
ATOM     11  N2  <0> d           0.688   3.160   0.009  0.00  0.00    -0.156 NA
ENDBRANCH   4   6
ENDBRANCH   1   4
BRANCH   1  12
ATOM     12  C4  <0> d           3.576   3.499   1.512  0.00  0.00     0.135 A 
ATOM     13  C9  <0> d           4.284   3.041   2.608  0.00  0.00     0.040 A 
ATOM     14  C8  <0> d           4.220   3.725   3.809  0.00  0.00     0.063 A 
ATOM     15 Br1  <0> d           5.346   1.483   2.464  0.00  0.00    -0.049 Br
ATOM     16  C7  <0> d           3.438   4.863   3.917  0.00  0.00     0.120 A 
ATOM     17  C6  <0> d           2.725   5.319   2.821  0.00  0.00     0.086 A 
ATOM     18  F1  <0> d           3.372   5.528   5.091  0.00  0.00    -0.206 F 
ATOM     19  C5  <0> d           2.793   4.636   1.619  0.00  0.00     0.143 A 
ATOM     20  F2  <0> d           2.098   5.081   0.550  0.00  0.00    -0.204 F 
ENDBRANCH   1  12
TORSDOF 3
