REMARK  2 active torsions:
REMARK  status: ('A' for Active; 'I' for Inactive)
REMARK    1  A    between atoms: O1_2  and  C2_3 
REMARK    2  A    between atoms: C5_6  and  C8_10 
ROOT
ATOM      1  C8  <0> d           2.495  -2.492  -4.363  0.00  0.00     0.164 A 
ATOM      2  N1  <0> d           2.749  -1.950  -5.539  0.00  0.00    -0.129 NA
ATOM      3  N2  <0> d           3.333  -2.811  -6.300  0.00  0.00    -0.133 NA
ATOM      4  C9  <0> d           3.484  -3.932  -5.665  0.00  0.00     0.156 A 
ATOM      5  N3  <0> d           2.959  -3.766  -4.414  0.00  0.00    -0.313 N 
ATOM      6  C10 <0> d           2.939  -4.818  -3.398  0.00  0.00     0.160 C 
ATOM      7  C11 <0> d           3.219  -6.156  -4.097  0.00  0.00     0.253 C 
ATOM      8  N4  <0> d           4.416  -6.037  -4.940  0.00  0.00    -0.067 N 
ATOM      9  C12 <0> d           4.112  -5.220  -6.130  0.00  0.00     0.312 C 
ATOM     10  H11 <0> d           5.157  -5.603  -4.410  0.00  0.00     0.277 HD
ATOM     11  H14 <0> d           4.711  -6.957  -5.233  0.00  0.00     0.277 HD
ENDROOT
BRANCH   1  12
ATOM     12  C5  <0> d           1.837  -1.836  -3.212  0.00  0.00     0.013 A 
ATOM     13  C4  <0> d           1.950  -2.388  -1.935  0.00  0.00     0.018 A 
ATOM     14  C3  <0> d           1.337  -1.774  -0.864  0.00  0.00     0.039 A 
ATOM     15  C2  <0> d           0.607  -0.608  -1.054  0.00  0.00     0.085 A 
ATOM     16  C7  <0> d           0.488  -0.059  -2.324  0.00  0.00     0.045 A 
ATOM     17  C6  <0> d           1.104  -0.664  -3.400  0.00  0.00     0.037 A 
ATOM     18 Br1  <0> d          -0.513   1.526  -2.578  0.00  0.00    -0.048 Br
BRANCH  15  19
ATOM     19  O1  <0> d           0.004  -0.006   0.004  0.00  0.00    -0.355 OA
ATOM     20  C1  <0> d           0.167  -0.625   1.282  0.00  0.00     0.210 C 
ENDBRANCH  15  19
ENDBRANCH   1  12
TORSDOF 2
