REMARK  6 active torsions:
REMARK  status: ('A' for Active; 'I' for Inactive)
REMARK    1  A    between atoms: C2_2  and  O1_3 
REMARK    2  A    between atoms: O1_3  and  C3_4 
REMARK    3  A    between atoms: C7_8  and  C9_11 
REMARK    4  A    between atoms: C8_9  and  O2_10 
REMARK    5  A    between atoms: N1_12  and  N2_13 
REMARK       I    between atoms: N2_13  and  C10_14 
REMARK    6  A    between atoms: C10_14  and  C11_16 
ROOT
ATOM      1  C3  <0> d           1.180   2.101   0.002  0.00  0.00     0.104 A 
ATOM      2  C4  <0> d           2.387   1.420  -0.013  0.00  0.00     0.065 A 
ATOM      3  C5  <0> d           2.408   0.035  -0.021  0.00  0.00     0.059 A 
ATOM      4  C6  <0> d           1.226  -0.680  -0.013  0.00  0.00     0.070 A 
ATOM      5  C7  <0> d           0.002  -0.004   0.002  0.00  0.00     0.042 A 
ATOM      6  C8  <0> d          -0.017   1.396   0.010  0.00  0.00     0.112 A 
ATOM      7 Cl1  <0> d           1.260  -2.415  -0.024  0.00  0.00    -0.081 Cl
ATOM      8 Cl2  <0> d           3.927  -0.806  -0.040  0.00  0.00    -0.082 Cl
ENDROOT
BRANCH   5   9
ATOM      9  C9  <0> d          -1.262  -0.762   0.009  0.00  0.00     0.154 C 
ATOM     10  N1  <0> d          -1.240  -2.060   0.002  0.00  0.00    -0.183 NA
BRANCH  10  11
ATOM     11  N2  <0> d          -2.442  -2.780   0.009  0.00  0.00    -0.243 N 
ATOM     12  C10 <0> d          -2.420  -4.128   0.002  0.00  0.00     0.271 C 
ATOM     13  O3  <0> d          -1.357  -4.718  -0.011  0.00  0.00    -0.266 OA
ATOM     14  H9  <0> d          -3.290  -2.309   0.020  0.00  0.00     0.192 HD
BRANCH  12  15
ATOM     15  C11 <0> d          -3.688  -4.888   0.010  0.00  0.00     0.035 A 
ATOM     16  C16 <0> d          -3.668  -6.283   0.002  0.00  0.00     0.036 A 
ATOM     17  C15 <0> d          -4.856  -6.987   0.009  0.00  0.00     0.011 A 
ATOM     18  C14 <0> d          -6.064  -6.311   0.025  0.00  0.00     0.019 A 
ATOM     19 Br1  <0> d          -4.833  -8.878  -0.001  0.00  0.00    -0.051 Br
ATOM     20  C13 <0> d          -6.089  -4.927   0.033  0.00  0.00     0.002 A 
ATOM     21  C12 <0> d          -4.910  -4.213   0.030  0.00  0.00     0.017 A 
ENDBRANCH  12  15
ENDBRANCH  10  11
ENDBRANCH   5   9
BRANCH   6  22
ATOM     22  O2  <0> d          -1.202   2.062   0.019  0.00  0.00    -0.357 OA
ATOM     23  H7  <0> d          -1.540   2.251   0.905  0.00  0.00     0.217 HD
ENDBRANCH   6  22
BRANCH   1  24
ATOM     24  O1  <0> d           1.168   3.461   0.009  0.00  0.00    -0.349 OA
BRANCH  24  25
ATOM     25  C2  <0> d           2.435   4.122   0.001  0.00  0.00     0.171 C 
ATOM     26  C1  <0> d           2.221   5.637   0.010  0.00  0.00     0.034 C 
ENDBRANCH  24  25
ENDBRANCH   1  24
TORSDOF 6
