REMARK  3 active torsions:
REMARK  status: ('A' for Active; 'I' for Inactive)
REMARK    1  A    between atoms: C2_2  and  C3_3 
REMARK    2  A    between atoms: C8_8  and  N1_9 
REMARK       I    between atoms: N1_9  and  C9_10 
REMARK    3  A    between atoms: C9_10  and  C10_12 
ROOT
ATOM      1  N1  <0> d           1.270  -2.607   0.097  0.00  0.00    -0.354 N 
ATOM      2  C9  <0> d           0.896  -3.826  -0.338  0.00  0.00     0.248 C 
ATOM      3  O1  <0> d           0.051  -4.453   0.266  0.00  0.00    -0.271 OA
ATOM      4  H17 <0> d           1.945  -2.106  -0.387  0.00  0.00     0.162 HD
ENDROOT
BRANCH   1   5
ATOM      5  C8  <0> d           0.655  -2.037   1.299  0.00  0.00     0.088 C 
ATOM      6  C3  <0> d           0.742  -0.511   1.242  0.00  0.00     0.008 C 
ATOM      7  C4  <0> d           2.210  -0.086   1.169  0.00  0.00     0.007 C 
ATOM      8  C5  <0> d           2.950  -0.593   2.408  0.00  0.00     0.001 C 
ATOM      9  C6  <0> d           2.863  -2.119   2.465  0.00  0.00     0.002 C 
ATOM     10  C7  <0> d           1.395  -2.544   2.538  0.00  0.00     0.025 C 
BRANCH   6  11
ATOM     11  C2  <0> d           0.002  -0.004   0.002  0.00  0.00     0.002 C 
ATOM     12  C1  <0> d          -0.019   1.526   0.010  0.00  0.00     0.005 C 
ENDBRANCH   6  11
ENDBRANCH   1   5
BRANCH   2  13
ATOM     13  C10 <0> d           1.527  -4.412  -1.575  0.00  0.00     0.238 C 
ATOM     14  O2  <0> d           1.055  -5.748  -1.765  0.00  0.00    -0.373 OA
ATOM     15  C13 <0> d           1.562  -6.373  -2.948  0.00  0.00     0.196 C 
ATOM     16  C12 <0> d           1.185  -5.529  -4.167  0.00  0.00     0.258 C 
ATOM     17  N2  <0> d           1.719  -4.170  -4.003  0.00  0.00    -0.070 N 
ATOM     18  C11 <0> d           1.150  -3.564  -2.792  0.00  0.00     0.274 C 
ATOM     19  H20 <0> d           1.472  -3.612  -4.807  0.00  0.00     0.277 HD
ATOM     20  H25 <0> d           2.724  -4.211  -3.919  0.00  0.00     0.277 HD
ENDBRANCH   2  13
TORSDOF 3
