REMARK  6 active torsions:
REMARK  status: ('A' for Active; 'I' for Inactive)
REMARK    1  A    between atoms: C3_3  and  C10_13 
REMARK    2  A    between atoms: C4_4  and  N2_7 
REMARK    3  A    between atoms: C10_13  and  N3_14 
REMARK       I    between atoms: N3_14  and  C11_15 
REMARK    4  A    between atoms: C11_15  and  C12_17 
REMARK       I    between atoms: C12_17  and  N4_19 
REMARK    5  A    between atoms: N4_19  and  C13_20 
REMARK    6  A    between atoms: C16_23  and  N5_27 
ROOT
ATOM      1  N3  <0> d           4.312   1.972  -1.315  0.00  0.00    -0.349 N 
ATOM      2  C11 <0> d           5.519   2.518  -1.564  0.00  0.00     0.309 C 
ATOM      3  O2  <0> d           6.120   3.090  -0.678  0.00  0.00    -0.262 OA
ATOM      4  H14 <0> d           3.831   1.516  -2.023  0.00  0.00     0.163 HD
ENDROOT
BRANCH   1   5
ATOM      5  C10 <0> d           3.726   2.069   0.024  0.00  0.00     0.165 C 
BRANCH   5   6
ATOM      6  C3  <0> d           2.384   1.384   0.035  0.00  0.00     0.004 A 
ATOM      7  C2  <0> d           1.217   2.127   0.043  0.00  0.00     0.014 A 
ATOM      8  C1  <0> d           0.003   1.454   0.053  0.00  0.00     0.018 A 
ATOM      9  C5  <0> d          -0.006   0.073   0.055  0.00  0.00     0.089 A 
ATOM     10  N1  <0> d           1.123  -0.610   0.048  0.00  0.00    -0.352 N 
ATOM     11  C4  <0> d           2.301  -0.005   0.038  0.00  0.00     0.111 A 
ATOM     12  H19 <0> d           1.089  -1.579   0.050  0.00  0.00     0.166 HD
BRANCH  11  13
ATOM     13  N2  <0> d           3.465  -0.765   0.031  0.00  0.00    -0.363 N 
ATOM     14  C9  <0> d           4.149  -1.090  -1.231  0.00  0.00     0.150 C 
ATOM     15  C8  <0> d           4.410  -2.596  -1.270  0.00  0.00     0.187 C 
ATOM     16  O1  <0> d           5.073  -2.992  -0.067  0.00  0.00    -0.388 OA
ATOM     17  C7  <0> d           4.310  -2.773   1.121  0.00  0.00     0.187 C 
ATOM     18  C6  <0> d           4.047  -1.272   1.284  0.00  0.00     0.150 C 
ENDBRANCH  11  13
ENDBRANCH   5   6
ENDBRANCH   1   5
BRANCH   2  19
ATOM     19  C12 <0> d           6.116   2.420  -2.929  0.00  0.00     0.314 C 
ATOM     20  O3  <0> d           5.515   1.849  -3.815  0.00  0.00    -0.262 OA
ATOM     21  N4  <0> d           7.324   2.966  -3.177  0.00  0.00    -0.317 N 
ATOM     22  H15 <0> d           7.840   3.351  -2.452  0.00  0.00     0.169 HD
BRANCH  21  23
ATOM     23  C13 <0> d           7.831   2.976  -4.479  0.00  0.00     0.057 A 
ATOM     24  C18 <0> d           9.203   3.045  -4.691  0.00  0.00     0.063 A 
ATOM     25  C17 <0> d           9.702   3.049  -5.981  0.00  0.00     0.062 A 
ATOM     26 Cl1  <0> d          10.290   3.119  -3.339  0.00  0.00    -0.082 Cl
ATOM     27  C16 <0> d           8.836   2.997  -7.058  0.00  0.00     0.104 A 
ATOM     28  C15 <0> d           7.471   2.934  -6.850  0.00  0.00     0.038 A 
ATOM     29  C14 <0> d           6.966   2.924  -5.564  0.00  0.00     0.034 A 
BRANCH  27  30
ATOM     30  N5  <0> d           9.373   3.007  -8.437  0.00  0.00    -0.116 N 
ATOM     31  O4  <0> d           8.618   2.961  -9.380  0.00  0.00    -0.532 OA
ATOM     32  O5  <0> d          10.567   3.062  -8.621  0.00  0.00    -0.532 OA
ENDBRANCH  27  30
ENDBRANCH  21  23
ENDBRANCH   2  19
TORSDOF 6
