REMARK  5 active torsions:
REMARK  status: ('A' for Active; 'I' for Inactive)
REMARK    1  A    between atoms: C8_12  and  C9_13 
REMARK       I    between atoms: C9_13  and  N3_15 
REMARK    2  A    between atoms: N3_15  and  C10_16 
REMARK    3  A    between atoms: C10_16  and  C11_17 
REMARK    4  A    between atoms: C11_17  and  C12_18 
REMARK    5  A    between atoms: C12_18  and  N4_19 
ROOT
ATOM      1  C9  <0> d          -5.090   2.025   0.064  0.00  0.00     0.259 C 
ATOM      2  O2  <0> d          -5.467   0.868   0.062  0.00  0.00    -0.267 OA
ATOM      3  N3  <0> d          -5.991   3.027   0.078  0.00  0.00    -0.356 N 
ATOM      4  H10 <0> d          -5.650   4.073   0.080  0.00  0.00     0.162 HD
ENDROOT
BRANCH   1   5
ATOM      5  C8  <0> d          -3.655   2.328   0.051  0.00  0.00     0.081 A 
ATOM      6  C2  <0> d          -2.602   1.462   0.036  0.00  0.00    -0.021 A 
ATOM      7  C1  <0> d          -2.847  -0.025   0.032  0.00  0.00     0.051 C 
ATOM      8  C3  <0> d          -1.296   1.956   0.019  0.00  0.00     0.075 A 
ATOM      9  C6  <0> d          -0.014   1.214   0.009  0.00  0.00     0.261 A 
ATOM     10  C4  <0> d          -1.170   3.364   0.031  0.00  0.00     0.116 A 
ATOM     11  N2  <0> d           1.133   1.921   0.002  0.00  0.00    -0.312 N 
ATOM     12  O1  <0> d           0.002  -0.004   0.002  0.00  0.00    -0.267 OA
ATOM     13  C5  <0> d           1.126   3.277   0.009  0.00  0.00     0.213 A 
ATOM     14  C7  <0> d           2.413   1.210  -0.015  0.00  0.00     0.160 C 
ATOM     15  N1  <0> d           0.015   3.961   0.022  0.00  0.00    -0.235 NA
ATOM     16  S1  <0> d          -2.854   3.923   0.051  0.00  0.00    -0.063 SA
ENDBRANCH   1   5
BRANCH   3  17
ATOM     17  C10 <0> d          -7.424   2.724   0.090  0.00  0.00     0.124 C 
BRANCH  17  18
ATOM     18  C11 <0> d          -8.222   4.029   0.105  0.00  0.00     0.047 C 
BRANCH  18  19
ATOM     19  C12 <0> d          -9.718   3.712   0.118  0.00  0.00     0.236 C 
BRANCH  19  20
ATOM     20  N4  <0> d         -10.484   4.966   0.132  0.00  0.00    -0.070 N 
ATOM     21  C17 <0> d         -11.913   4.712  -0.093  0.00  0.00     0.239 C 
ATOM     22  C16 <0> d         -12.656   6.045  -0.217  0.00  0.00     0.008 C 
ATOM     23  C15 <0> d         -12.458   6.855   1.067  0.00  0.00     0.011 C 
ATOM     24  C18 <0> d         -14.147   5.780  -0.431  0.00  0.00     0.011 C 
ATOM     25  C14 <0> d         -10.960   7.064   1.304  0.00  0.00     0.008 C 
ATOM     26  C13 <0> d         -10.266   5.702   1.384  0.00  0.00     0.239 C 
ATOM     27  C19 <0> d         -10.751   7.821   2.617  0.00  0.00     0.011 C 
ATOM     28  H29 <0> d         -10.121   5.595  -0.694  0.00  0.00     0.279 HD
ENDBRANCH  19  20
ENDBRANCH  18  19
ENDBRANCH  17  18
ENDBRANCH   3  17
TORSDOF 5
