REMARK  5 active torsions:
REMARK  status: ('A' for Active; 'I' for Inactive)
REMARK    1  A    between atoms: C2_2  and  C3_3 
REMARK    2  A    between atoms: C3_3  and  C4_4 
REMARK    3  A    between atoms: N3_13  and  C8_14 
REMARK    4  A    between atoms: C8_14  and  C9_15 
REMARK    5  A    between atoms: C12_18  and  O3_21 
ROOT
ATOM      1  C3  <0> d          -0.724   2.012   1.250  0.00  0.00     0.029 C 
ATOM      2  N3  <0> d          -2.058   2.206   1.266  0.00  0.00    -0.292 NA
ENDROOT
BRANCH   1   3
ATOM      3  C2  <0> d          -0.043   1.562  -0.017  0.00  0.00     0.051 C 
ATOM      4  C1  <0> d           0.090   0.038  -0.011  0.00  0.00     0.011 C 
ENDBRANCH   1   3
BRANCH   1   5
ATOM      5  C4  <0> d           0.019   2.225   2.396  0.00  0.00     0.217 A 
ATOM      6  C7  <0> d          -0.624   2.577   3.675  0.00  0.00     0.242 A 
ATOM      7  N2  <0> d           0.165   2.770   4.753  0.00  0.00    -0.303 N 
ATOM      8  O2  <0> d          -1.832   2.691   3.757  0.00  0.00    -0.272 OA
ATOM      9  C6  <0> d           1.497   2.649   4.677  0.00  0.00     0.181 A 
ATOM     10  H7  <0> d          -0.242   3.003   5.602  0.00  0.00     0.171 HD
ATOM     11  N1  <0> d           2.148   2.332   3.549  0.00  0.00    -0.303 N 
ATOM     12  S1  <0> d           2.417   2.912   6.096  0.00  0.00    -0.040 SA
ATOM     13  C5  <0> d           1.488   2.104   2.394  0.00  0.00     0.242 A 
ATOM     14  H6  <0> d           3.115   2.260   3.564  0.00  0.00     0.171 HD
ATOM     15  O1  <0> d           2.089   1.812   1.378  0.00  0.00    -0.272 OA
ENDBRANCH   1   5
BRANCH   2  16
ATOM     16  C8  <0> d          -2.846   1.980   0.051  0.00  0.00     0.187 C 
BRANCH  16  17
ATOM     17  C9  <0> d          -4.298   2.265   0.334  0.00  0.00    -0.038 A 
ATOM     18  C14 <0> d          -4.801   3.539   0.145  0.00  0.00     0.011 A 
ATOM     19  C13 <0> d          -6.132   3.803   0.404  0.00  0.00     0.037 A 
ATOM     20  C12 <0> d          -6.965   2.788   0.853  0.00  0.00     0.068 A 
ATOM     21  C11 <0> d          -6.458   1.511   1.042  0.00  0.00     0.037 A 
ATOM     22  C10 <0> d          -5.127   1.251   0.776  0.00  0.00     0.011 A 
BRANCH  20  23
ATOM     23  O3  <0> d          -8.274   3.046   1.108  0.00  0.00    -0.356 OA
ATOM     24  C15 <0> d          -9.072   1.953   1.568  0.00  0.00     0.210 C 
ENDBRANCH  20  23
ENDBRANCH  16  17
ENDBRANCH   2  16
TORSDOF 5
