REMARK  5 active torsions:
REMARK  status: ('A' for Active; 'I' for Inactive)
REMARK    1  A    between atoms: C2_2  and  O1_3 
REMARK    2  A    between atoms: O1_3  and  C3_4 
REMARK    3  A    between atoms: C5_6  and  C9_11 
REMARK    4  A    between atoms: C8_9  and  O2_10 
REMARK    5  A    between atoms: C16_20  and  N3_21 
ROOT
ATOM      1  C9  <0> d          -0.214  -4.966   0.454  0.00  0.00     0.159 A 
ATOM      2  N1  <0> d          -0.831  -4.462   1.515  0.00  0.00    -0.240 NA
ATOM      3  C10 <0> d          -1.345  -5.258   2.434  0.00  0.00     0.130 A 
ATOM      4  C11 <0> d          -1.237  -6.637   2.281  0.00  0.00     0.014 A 
ATOM      5  C12 <0> d          -0.595  -7.129   1.165  0.00  0.00     0.046 A 
ATOM      6  N2  <0> d          -0.101  -6.274   0.278  0.00  0.00    -0.232 NA
ATOM      7  C13 <0> d          -0.441  -8.602   0.903  0.00  0.00     0.060 C 
ATOM      8  C14 <0> d          -0.672  -9.400   2.186  0.00  0.00     0.008 C 
ATOM      9  C15 <0> d          -1.998  -8.949   2.808  0.00  0.00     0.038 C 
ATOM     10  C16 <0> d          -1.823  -7.527   3.342  0.00  0.00     0.220 C 
ENDROOT
BRANCH   1  11
ATOM     11  C5  <0> d           0.354  -4.046  -0.559  0.00  0.00     0.015 A 
ATOM     12  C4  <0> d           0.244  -2.666  -0.389  0.00  0.00     0.055 A 
ATOM     13  C3  <0> d           0.777  -1.811  -1.336  0.00  0.00     0.102 A 
ATOM     14  C8  <0> d           1.417  -2.329  -2.460  0.00  0.00     0.099 A 
ATOM     15  C7  <0> d           1.532  -3.701  -2.624  0.00  0.00     0.040 A 
ATOM     16  C6  <0> d           1.001  -4.558  -1.683  0.00  0.00     0.018 A 
BRANCH  13  17
ATOM     17  O1  <0> d           0.671  -0.465  -1.174  0.00  0.00    -0.349 OA
BRANCH  17  18
ATOM     18  C2  <0> d           0.002  -0.004   0.002  0.00  0.00     0.171 C 
ATOM     19  C1  <0> d          -0.019   1.526   0.010  0.00  0.00     0.034 C 
ENDBRANCH  17  18
ENDBRANCH  13  17
BRANCH  14  20
ATOM     20  O2  <0> d           1.935  -1.488  -3.393  0.00  0.00    -0.358 OA
ATOM     21  H10 <0> d           2.854  -1.236  -3.229  0.00  0.00     0.217 HD
ENDBRANCH  14  20
ENDBRANCH   1  11
BRANCH  10  22
ATOM     22  N3  <0> d          -3.131  -6.998   3.752  0.00  0.00    -0.071 N 
ATOM     23  H18 <0> d          -3.748  -6.972   2.955  0.00  0.00     0.275 HD
ATOM     24  H19 <0> d          -3.526  -7.595   4.464  0.00  0.00     0.275 HD
ATOM     25  H20 <0> d          -3.016  -6.066   4.120  0.00  0.00     0.275 HD
ENDBRANCH  10  22
TORSDOF 5
