REMARK  5 active torsions:
REMARK  status: ('A' for Active; 'I' for Inactive)
REMARK    1  A    between atoms: C2_2  and  N1_3 
REMARK    2  A    between atoms: C7_9  and  C11_16 
REMARK    3  A    between atoms: C12_18  and  C13_21 
REMARK    4  A    between atoms: C17_25  and  O5_29 
REMARK    5  A    between atoms: C18_26  and  O4_27 
ROOT
ATOM      1  C11 <0> d           4.617  -2.592   5.903  0.00  0.00     0.286 A 
ATOM      2  N3  <0> d           5.808  -3.380   5.563  0.00  0.00    -0.342 N 
ATOM      3  C12 <0> d           6.850  -2.805   6.081  0.00  0.00     0.136 A 
ATOM      4  N4  <0> d           6.505  -1.666   6.766  0.00  0.00    -0.247 N 
ATOM      5  O3  <0> d           5.098  -1.487   6.684  0.00  0.00    -0.248 OA
ATOM      6  H11 <0> d           7.121  -1.079   7.231  0.00  0.00     0.196 HD
ATOM      7  H21 <0> d           5.814  -4.197   5.039  0.00  0.00     0.164 HD
ENDROOT
BRANCH   1   8
ATOM      8  C7  <0> d           3.947  -2.092   4.649  0.00  0.00    -0.005 A 
ATOM      9  C6  <0> d           4.706  -1.859   3.512  0.00  0.00     0.013 A 
ATOM     10  C5  <0> d           4.108  -1.402   2.356  0.00  0.00     0.020 A 
ATOM     11  C4  <0> d           2.734  -1.175   2.337  0.00  0.00     0.059 A 
ATOM     12  C3  <0> d           2.046  -0.686   1.129  0.00  0.00     0.264 A 
ATOM     13  C9  <0> d           1.967  -1.411   3.491  0.00  0.00     0.052 A 
ATOM     14  N1  <0> d           0.711  -0.489   1.189  0.00  0.00    -0.266 N 
ATOM     15  O1  <0> d           2.663  -0.466   0.105  0.00  0.00    -0.267 OA
ATOM     16  C10 <0> d           0.022  -0.724   2.317  0.00  0.00     0.329 A 
ATOM     17  N2  <0> d           0.600  -1.175   3.443  0.00  0.00    -0.307 N 
ATOM     18  O2  <0> d          -1.178  -0.526   2.318  0.00  0.00    -0.246 OA
ATOM     19  H1  <0> d           0.058  -1.333   4.232  0.00  0.00     0.170 HD
ATOM     20  C8  <0> d           2.585  -1.870   4.644  0.00  0.00     0.042 A 
BRANCH  14  21
ATOM     21  C2  <0> d           0.002  -0.004   0.002  0.00  0.00     0.132 C 
ATOM     22  C1  <0> d          -0.019   1.526   0.010  0.00  0.00     0.027 C 
ENDBRANCH  14  21
ENDBRANCH   1   8
BRANCH   3  23
ATOM     23  C13 <0> d           8.232  -3.312   5.951  0.00  0.00     0.046 A 
ATOM     24  C18 <0> d           9.293  -2.622   6.545  0.00  0.00     0.115 A 
ATOM     25  C17 <0> d          10.589  -3.111   6.422  0.00  0.00     0.102 A 
ATOM     26  C16 <0> d          10.826  -4.270   5.702  0.00  0.00     0.040 A 
ATOM     27  C15 <0> d           9.776  -4.950   5.108  0.00  0.00     0.004 A 
ATOM     28  C14 <0> d           8.486  -4.480   5.228  0.00  0.00     0.018 A 
BRANCH  24  29
ATOM     29  O4  <0> d           9.057  -1.482   7.246  0.00  0.00    -0.352 OA
ATOM     30  C19 <0> d           8.794  -1.622   8.643  0.00  0.00     0.210 C 
ENDBRANCH  24  29
BRANCH  25  31
ATOM     31  O5  <0> d          11.625  -2.447   7.003  0.00  0.00    -0.353 OA
ATOM     32  C20 <0> d          12.930  -3.003   6.830  0.00  0.00     0.210 C 
ENDBRANCH  25  31
ENDBRANCH   3  23
TORSDOF 5
