REMARK  5 active torsions:
REMARK  status: ('A' for Active; 'I' for Inactive)
REMARK    1  A    between atoms: C3_3  and  C11_14 
REMARK    2  A    between atoms: N2_6  and  C5_7 
REMARK       I    between atoms: C11_14  and  N3_16 
REMARK    3  A    between atoms: N3_16  and  C12_17 
REMARK    4  A    between atoms: C12_17  and  C13_18 
REMARK    5  A    between atoms: C13_18  and  N4_20 
ROOT
ATOM      1  C11 <0> d          -0.496  -0.210  -2.665  0.00  0.00     0.255 C 
ATOM      2  O1  <0> d          -0.644   0.947  -3.009  0.00  0.00    -0.268 OA
ATOM      3  N3  <0> d          -0.204  -1.154  -3.582  0.00  0.00    -0.355 N 
ATOM      4  H10 <0> d          -0.086  -2.077  -3.308  0.00  0.00     0.162 HD
ENDROOT
BRANCH   1   5
ATOM      5  C3  <0> d          -0.635  -0.581  -1.245  0.00  0.00     0.075 A 
ATOM      6  C2  <0> d          -0.929   0.273  -0.200  0.00  0.00     0.050 A 
ATOM      7  C1  <0> d          -1.167   1.758  -0.301  0.00  0.00     0.071 C 
ATOM      8  N2  <0> d          -0.959  -0.464   0.925  0.00  0.00    -0.238 N 
ATOM      9  N1  <0> d          -0.691  -1.796   0.589  0.00  0.00    -0.179 NA
ATOM     10  C4  <0> d          -0.493  -1.876  -0.698  0.00  0.00     0.158 A 
BRANCH   8  11
ATOM     11  C5  <0> d          -1.218   0.020   2.215  0.00  0.00     0.058 A 
ATOM     12  C10 <0> d          -1.916  -0.764   3.124  0.00  0.00     0.033 A 
ATOM     13  C9  <0> d          -2.165  -0.287   4.396  0.00  0.00     0.021 A 
ATOM     14  C8  <0> d          -1.730   0.975   4.761  0.00  0.00     0.011 A 
ATOM     15  C7  <0> d          -1.039   1.760   3.854  0.00  0.00     0.021 A 
ATOM     16 Br1  <0> d          -2.079   1.627   6.501  0.00  0.00    -0.051 Br
ATOM     17  C6  <0> d          -0.782   1.286   2.583  0.00  0.00     0.033 A 
ENDBRANCH   8  11
ENDBRANCH   1   5
BRANCH   3  18
ATOM     18  C12 <0> d          -0.066  -0.786  -4.993  0.00  0.00     0.155 C 
BRANCH  18  19
ATOM     19  C13 <0> d           0.131  -2.050  -5.833  0.00  0.00     0.202 C 
ATOM     20  C14 <0> d           0.184  -1.674  -7.315  0.00  0.00     0.042 C 
BRANCH  19  21
ATOM     21  N4  <0> d          -0.990  -2.971  -5.601  0.00  0.00    -0.066 N 
ATOM     22  C19 <0> d          -2.229  -2.369  -6.109  0.00  0.00     0.235 C 
ATOM     23  C18 <0> d          -3.412  -3.289  -5.798  0.00  0.00     0.032 C 
ATOM     24  C17 <0> d          -3.188  -4.646  -6.472  0.00  0.00    -0.015 C 
ATOM     25  C16 <0> d          -1.856  -5.230  -5.991  0.00  0.00     0.032 C 
ATOM     26  C20 <0> d          -4.327  -5.596  -6.100  0.00  0.00     0.010 C 
ATOM     27  C15 <0> d          -0.731  -4.239  -6.295  0.00  0.00     0.235 C 
ATOM     28  H28 <0> d          -1.082  -3.144  -4.612  0.00  0.00     0.280 HD
ENDBRANCH  19  21
ENDBRANCH  18  19
ENDBRANCH   3  18
TORSDOF 5
