REMARK  4 active torsions:
REMARK  status: ('A' for Active; 'I' for Inactive)
REMARK    1  A    between atoms: N1_4  and  S1_9 
REMARK    2  A    between atoms: S1_9  and  N2_12 
REMARK    3  A    between atoms: N2_12  and  C8_14 
REMARK    4  A    between atoms: C11_18  and  O4_19 
ROOT
ATOM      1  S1  <0> d          -2.225  -3.006  -0.815  0.00  0.00     0.319 S 
ATOM      2  O2  <0> d          -2.443  -4.211  -0.094  0.00  0.00    -0.182 OA
ATOM      3  O3  <0> d          -3.290  -2.243  -1.363  0.00  0.00    -0.182 OA
ENDROOT
BRANCH   1   4
ATOM      4  N1  <0> d          -1.389  -1.995   0.196  0.00  0.00    -0.289 N 
ATOM      5  C3  <0> d          -1.436  -0.536   0.015  0.00  0.00     0.168 C 
ATOM      6  C2  <0> d           0.002  -0.004   0.002  0.00  0.00     0.136 C 
ATOM      7  C1  <0> d          -0.019   1.526   0.010  0.00  0.00     0.041 C 
ATOM      8  O1  <0> d           0.691  -0.479   1.161  0.00  0.00    -0.378 OA
ATOM      9  C5  <0> d           0.818  -1.901   1.226  0.00  0.00     0.136 C 
ATOM     10  C4  <0> d          -0.578  -2.530   1.302  0.00  0.00     0.168 C 
ATOM     11  C6  <0> d           1.539  -2.407  -0.025  0.00  0.00     0.041 C 
ENDBRANCH   1   4
BRANCH   1  12
ATOM     12  N2  <0> d          -1.216  -3.384  -2.073  0.00  0.00    -0.290 N 
ATOM     13  C7  <0> d          -0.339  -4.554  -1.983  0.00  0.00     0.165 C 
BRANCH  12  14
ATOM     14  C8  <0> d          -1.202  -2.548  -3.276  0.00  0.00     0.153 C 
ATOM     15  C11 <0> d           0.214  -1.988  -3.522  0.00  0.00     0.169 C 
ATOM     16  C10 <0> d           0.632  -2.550  -4.900  0.00  0.00     0.266 C 
ATOM     17  N3  <0> d          -0.650  -2.841  -5.590  0.00  0.00    -0.071 N 
ATOM     18  C9  <0> d          -1.521  -3.399  -4.524  0.00  0.00     0.261 C 
ATOM     19  H20 <0> d          -0.511  -3.520  -6.324  0.00  0.00     0.277 HD
ATOM     20  H24 <0> d          -1.050  -1.993  -5.964  0.00  0.00     0.277 HD
BRANCH  15  21
ATOM     21  O4  <0> d           0.184  -0.559  -3.555  0.00  0.00    -0.392 OA
ATOM     22  H23 <0> d           1.047  -0.151  -3.707  0.00  0.00     0.210 HD
ENDBRANCH  15  21
ENDBRANCH  12  14
ENDBRANCH   1  12
TORSDOF 4
