REMARK  8 active torsions:
REMARK  status: ('A' for Active; 'I' for Inactive)
REMARK    1  A    between atoms: C3_3  and  C4_4 
REMARK    2  A    between atoms: C3_3  and  N4_34 
REMARK    3  A    between atoms: C4_4  and  C5_5 
REMARK    4  A    between atoms: C5_5  and  N1_6 
REMARK       I    between atoms: N1_6  and  C6_7 
REMARK    5  A    between atoms: C6_7  and  C7_9 
REMARK       I    between atoms: C7_9  and  N2_11 
REMARK    6  A    between atoms: N2_11  and  C8_12 
REMARK    7  A    between atoms: C15_20  and  C16_21 
REMARK       I    between atoms: C16_21  and  N3_23 
REMARK    8  A    between atoms: N3_23  and  C17_24 
ROOT
ATOM      1  C8  <0> d          -2.378   1.172   0.177  0.00  0.00     0.088 A 
ATOM      2  C9  <0> d          -3.731   1.667  -0.104  0.00  0.00     0.028 A 
ATOM      3  C10 <0> d          -4.248   2.895  -0.518  0.00  0.00     0.017 A 
ATOM      4  C11 <0> d          -5.595   3.034  -0.705  0.00  0.00     0.001 A 
ATOM      5  C12 <0> d          -6.449   1.961  -0.491  0.00  0.00     0.003 A 
ATOM      6  C13 <0> d          -5.956   0.739  -0.088  0.00  0.00     0.038 A 
ATOM      7  C14 <0> d          -4.590   0.574   0.108  0.00  0.00     0.089 A 
ATOM      8  O3  <0> d          -3.835  -0.475   0.490  0.00  0.00    -0.302 OA
ATOM      9  C15 <0> d          -2.527  -0.141   0.537  0.00  0.00     0.171 A 
ENDROOT
BRANCH   1  10
ATOM     10  N2  <0> d          -1.192   1.889   0.101  0.00  0.00    -0.316 N 
ATOM     11  C7  <0> d          -1.172   3.196   0.429  0.00  0.00     0.314 C 
ATOM     12  O2  <0> d          -2.208   3.770   0.696  0.00  0.00    -0.262 OA
ATOM     13  H14 <0> d          -0.377   1.449  -0.188  0.00  0.00     0.169 HD
BRANCH  11  14
ATOM     14  C6  <0> d           0.124   3.936   0.470  0.00  0.00     0.309 C 
ATOM     15  N1  <0> d           0.144   5.242   0.803  0.00  0.00    -0.353 N 
ATOM     16  H13 <0> d          -0.683   5.701   1.017  0.00  0.00     0.162 HD
ATOM     17  O1  <0> d           1.159   3.362   0.203  0.00  0.00    -0.262 OA
BRANCH  15  18
ATOM     18  C5  <0> d           1.416   5.968   0.844  0.00  0.00     0.125 C 
BRANCH  18  19
ATOM     19  C4  <0> d           1.161   7.422   1.247  0.00  0.00     0.047 C 
BRANCH  19  20
ATOM     20  C3  <0> d           2.489   8.180   1.289  0.00  0.00     0.235 C 
BRANCH  20  21
ATOM     21  N4  <0> d           2.228   9.576   1.700  0.00  0.00    -0.079 N 
ATOM     22  C1  <0> d           3.505  10.274   1.958  0.00  0.00     0.269 C 
ATOM     23  C2  <0> d           1.471  10.281   0.644  0.00  0.00     0.269 C 
ATOM     24  H24 <0> d           1.671   9.571   2.563  0.00  0.00     0.278 HD
ENDBRANCH  20  21
ENDBRANCH  19  20
ENDBRANCH  18  19
ENDBRANCH  15  18
ENDBRANCH  11  14
ENDBRANCH   1  10
BRANCH   9  25
ATOM     25  C16 <0> d          -1.438  -1.041   0.913  0.00  0.00     0.282 C 
ATOM     26  O4  <0> d          -0.302  -0.614   1.014  0.00  0.00    -0.265 OA
ATOM     27  N3  <0> d          -1.692  -2.344   1.147  0.00  0.00    -0.319 N 
ATOM     28  H19 <0> d          -2.606  -2.669   1.138  0.00  0.00     0.169 HD
BRANCH  27  29
ATOM     29  C17 <0> d          -0.637  -3.227   1.403  0.00  0.00     0.074 A 
ATOM     30  C22 <0> d          -0.713  -4.547   0.971  0.00  0.00     0.143 A 
ATOM     31  C21 <0> d           0.332  -5.416   1.226  0.00  0.00     0.044 A 
ATOM     32  F1  <0> d          -1.805  -4.979   0.303  0.00  0.00    -0.204 F 
ATOM     33  C20 <0> d           1.450  -4.974   1.909  0.00  0.00     0.003 A 
ATOM     34  C19 <0> d           1.528  -3.662   2.339  0.00  0.00     0.002 A 
ATOM     35  C18 <0> d           0.490  -2.786   2.083  0.00  0.00     0.033 A 
ENDBRANCH  27  29
ENDBRANCH   9  25
TORSDOF 8
