REMARK  2 active torsions:
REMARK  status: ('A' for Active; 'I' for Inactive)
REMARK    1  A    between atoms: C6_6  and  C7_7 
REMARK    2  A    between atoms: C7_7  and  C8_9 
ROOT
ATOM      1  C1  <0> d          -0.017   1.397   0.010  0.00  0.00     0.017 A 
ATOM      2  C2  <0> d           1.153   2.100   0.002  0.00  0.00     0.033 A 
ATOM      3  C3  <0> d           2.376   1.433  -0.013  0.00  0.00     0.062 A 
ATOM      4  C4  <0> d           2.410   0.034  -0.021  0.00  0.00     0.063 A 
ATOM      5  C5  <0> d           1.224  -0.683  -0.014  0.00  0.00     0.047 A 
ATOM      6  C6  <0> d           0.002  -0.004   0.002  0.00  0.00     0.015 A 
ATOM      7  N1  <0> d           3.625  -0.646  -0.037  0.00  0.00    -0.317 N 
ATOM      8  H2  <0> d           3.638  -1.616  -0.043  0.00  0.00     0.169 HD
ATOM      9  C12 <0> d           4.784   0.043  -0.044  0.00  0.00     0.314 A 
ATOM     10  O4  <0> d           5.848  -0.544  -0.059  0.00  0.00    -0.262 OA
ATOM     11  C13 <0> d           4.746   1.534  -0.035  0.00  0.00     0.314 A 
ATOM     12  O5  <0> d           5.778   2.174  -0.041  0.00  0.00    -0.262 OA
ATOM     13  N2  <0> d           3.555   2.165  -0.020  0.00  0.00    -0.317 N 
ATOM     14  H3  <0> d           3.521   3.135  -0.015  0.00  0.00     0.169 HD
ENDROOT
BRANCH   6  15
ATOM     15  C7  <0> d          -1.259  -0.757   0.010  0.00  0.00     0.190 C 
ATOM     16  O1  <0> d          -1.241  -1.970   0.003  0.00  0.00    -0.289 OA
BRANCH  15  17
ATOM     17  C8  <0> d          -2.575  -0.024   0.026  0.00  0.00     0.219 C 
ATOM     18  O3  <0> d          -3.631  -0.927  -0.315  0.00  0.00    -0.374 OA
ATOM     19  C11 <0> d          -4.931  -0.330  -0.276  0.00  0.00     0.195 C 
ATOM     20  C10 <0> d          -5.184   0.235   1.124  0.00  0.00     0.193 C 
ATOM     21  O2  <0> d          -4.128   1.139   1.464  0.00  0.00    -0.386 OA
ATOM     22  C9  <0> d          -2.829   0.542   1.427  0.00  0.00     0.207 C 
ENDBRANCH  15  17
ENDBRANCH   6  15
TORSDOF 2
