REMARK  4 active torsions:
REMARK  status: ('A' for Active; 'I' for Inactive)
REMARK    1  A    between atoms: C8_10  and  C9_12 
REMARK    2  A    between atoms: C9_12  and  C10_13 
REMARK       I    between atoms: C10_13  and  N2_15 
REMARK    3  A    between atoms: N2_15  and  C11_16 
REMARK    4  A    between atoms: C11_16  and  C12_17 
ROOT
ATOM      1  C10 <0> d          -5.504   3.351  -1.557  0.00  0.00     0.219 C 
ATOM      2  O2  <0> d          -6.267   3.188  -0.629  0.00  0.00    -0.274 OA
ATOM      3  N2  <0> d          -4.203   3.616  -1.321  0.00  0.00    -0.354 N 
ATOM      4  H9  <0> d          -3.593   3.746  -2.064  0.00  0.00     0.162 HD
ENDROOT
BRANCH   1   5
ATOM      5  C9  <0> d          -6.009   3.259  -2.973  0.00  0.00     0.128 C 
BRANCH   5   6
ATOM      6  C8  <0> d          -7.508   2.952  -2.961  0.00  0.00     0.153 C 
ATOM      7  C7  <0> d          -7.994   2.737  -4.371  0.00  0.00     0.236 C 
ATOM      8  N1  <0> d          -8.300   3.734  -5.195  0.00  0.00    -0.325 N 
ATOM      9  O1  <0> d          -8.110   1.599  -4.774  0.00  0.00    -0.272 OA
ATOM     10  C5  <0> d          -8.337   5.089  -4.883  0.00  0.00     0.051 A 
ATOM     11  H6  <0> d          -8.521   3.491  -6.107  0.00  0.00     0.169 HD
ATOM     12  C4  <0> d          -8.382   5.538  -3.563  0.00  0.00     0.028 A 
ATOM     13  C6  <0> d          -8.355   6.025  -5.911  0.00  0.00     0.031 A 
ATOM     14  C3  <0> d          -8.408   6.894  -3.281  0.00  0.00     0.021 A 
ATOM     15  S1  <0> d          -8.415   4.359  -2.249  0.00  0.00    -0.113 SA
ATOM     16  C2  <0> d          -8.408   7.814  -4.314  0.00  0.00     0.002 A 
ATOM     17  C1  <0> d          -8.386   7.376  -5.625  0.00  0.00     0.002 A 
ENDBRANCH   5   6
ENDBRANCH   1   5
BRANCH   3  18
ATOM     18  C11 <0> d          -3.712   3.706   0.056  0.00  0.00     0.203 C 
BRANCH  18  19
ATOM     19  C12 <0> d          -2.235   4.008   0.043  0.00  0.00     0.152 A 
ATOM     20  N5  <0> d          -1.227   3.094   0.029  0.00  0.00    -0.290 N 
ATOM     21  C13 <0> d          -0.062   3.821   0.022  0.00  0.00     0.157 A 
ATOM     22  C14 <0> d          -1.192   1.731   0.017  0.00  0.00     0.100 A 
ATOM     23  N4  <0> d          -0.406   5.098   0.032  0.00  0.00    -0.130 NA
ATOM     24  C17 <0> d           1.177   3.151   0.007  0.00  0.00     0.053 A 
ATOM     25  N3  <0> d          -1.689   5.197   0.044  0.00  0.00    -0.132 NA
ATOM     26  C16 <0> d           1.197   1.791   0.000  0.00  0.00     0.005 A 
ATOM     27  C15 <0> d          -0.013   1.076   0.008  0.00  0.00     0.018 A 
ENDBRANCH  18  19
ENDBRANCH   3  18
TORSDOF 4
