REMARK  4 active torsions:
REMARK  status: ('A' for Active; 'I' for Inactive)
REMARK    1  A    between atoms: C7_9  and  C11_13 
REMARK    2  A    between atoms: C11_13  and  C12_14 
REMARK    3  A    between atoms: C11_13  and  N6_23 
REMARK    4  A    between atoms: N5_18  and  C13_19 
ROOT
ATOM      1  C11 <0> d          -1.111  -4.811   2.470  0.00  0.00     0.249 C 
ENDROOT
BRANCH   1   2
ATOM      2  C7  <0> d           0.225  -4.183   2.066  0.00  0.00     0.136 A 
ATOM      3  C6  <0> d           1.209  -4.425   3.189  0.00  0.00     0.232 A 
ATOM      4  N1  <0> d           2.335  -5.075   2.946  0.00  0.00    -0.325 N 
ATOM      5  O1  <0> d           0.967  -4.021   4.311  0.00  0.00    -0.272 OA
ATOM      6  C5  <0> d           2.660  -5.542   1.741  0.00  0.00     0.050 A 
ATOM      7  H35 <0> d           2.952  -5.219   3.680  0.00  0.00     0.169 HD
ATOM      8  C4  <0> d           3.876  -6.226   1.556  0.00  0.00    -0.034 A 
ATOM      9  C9  <0> d           1.780  -5.367   0.572  0.00  0.00    -0.011 A 
ATOM     10  C3  <0> d           4.218  -6.706   0.333  0.00  0.00     0.015 A 
ATOM     11  C23 <0> d           4.805  -6.428   2.726  0.00  0.00     0.050 C 
ATOM     12  C2  <0> d           3.404  -6.554  -0.790  0.00  0.00    -0.061 A 
ATOM     13  C1  <0> d           3.858  -7.116  -2.113  0.00  0.00     0.048 C 
ATOM     14  C10 <0> d           2.214  -5.904  -0.718  0.00  0.00     0.020 A 
ATOM     15  C8  <0> d           0.591  -4.712   0.693  0.00  0.00     0.003 A 
ENDBRANCH   1   2
BRANCH   1  16
ATOM     16  C12 <0> d          -2.234  -4.206   1.626  0.00  0.00     0.255 A 
ATOM     17  N5  <0> d          -2.277  -2.741   1.786  0.00  0.00    -0.250 N 
ATOM     18  N4  <0> d          -2.031  -2.212   0.508  0.00  0.00    -0.050 NA
ATOM     19  N3  <0> d          -1.862  -3.083  -0.340  0.00  0.00    -0.053 NA
ATOM     20  N2  <0> d          -1.956  -4.377   0.187  0.00  0.00    -0.267 N 
ATOM     21  H10 <0> d          -1.857  -5.213  -0.294  0.00  0.00     0.186 HD
BRANCH  17  22
ATOM     22  C13 <0> d          -2.523  -1.994   3.022  0.00  0.00     0.043 C 
ATOM     23  C14 <0> d          -1.362  -2.219   3.994  0.00  0.00     0.039 C 
ATOM     24  C15 <0> d          -2.639  -0.503   2.703  0.00  0.00     0.039 C 
ATOM     25  C16 <0> d          -3.825  -2.482   3.662  0.00  0.00     0.039 C 
ENDBRANCH  17  22
ENDBRANCH   1  16
BRANCH   1  26
ATOM     26  N6  <0> d          -1.057  -6.262   2.247  0.00  0.00    -0.062 N 
ATOM     27  C21 <0> d          -2.366  -6.852   2.554  0.00  0.00     0.236 C 
ATOM     28  C20 <0> d          -2.339  -8.350   2.245  0.00  0.00     0.032 C 
ATOM     29  C19 <0> d          -1.262  -9.023   3.101  0.00  0.00    -0.015 C 
ATOM     30  C18 <0> d           0.087  -8.350   2.827  0.00  0.00     0.032 C 
ATOM     31  C22 <0> d          -1.175 -10.507   2.741  0.00  0.00     0.010 C 
ATOM     32  C17 <0> d          -0.030  -6.851   3.114  0.00  0.00     0.236 C 
ATOM     33  H36 <0> d          -0.825  -6.444   1.282  0.00  0.00     0.280 HD
ENDBRANCH   1  26
TORSDOF 4
