REMARK  4 active torsions:
REMARK  status: ('A' for Active; 'I' for Inactive)
REMARK    1  A    between atoms: C2_2  and  C3_3 
REMARK    2  A    between atoms: C2_2  and  N1_10 
REMARK    3  A    between atoms: N1_10  and  C9_11 
REMARK    4  A    between atoms: C13_15  and  N2_16 
ROOT
ATOM      1  N1  <0> d           0.655  -0.596   1.177  0.00  0.00    -0.061 N 
ATOM      2  H11 <0> d           0.842  -1.585   1.110  0.00  0.00     0.278 HD
ATOM      3  H21 <0> d           1.528  -0.094   1.243  0.00  0.00     0.278 HD
ENDROOT
BRANCH   1   4
ATOM      4  C2  <0> d          -0.076  -0.153  -0.018  0.00  0.00     0.215 C 
ATOM      5  C1  <0> d           0.820  -0.302  -1.249  0.00  0.00     0.045 C 
BRANCH   4   6
ATOM      6  C3  <0> d          -1.312  -0.997  -0.191  0.00  0.00    -0.027 A 
ATOM      7  C8  <0> d          -2.497  -0.411  -0.595  0.00  0.00     0.028 A 
ATOM      8  C7  <0> d          -3.631  -1.187  -0.759  0.00  0.00     0.011 A 
ATOM      9  C6  <0> d          -3.581  -2.546  -0.510  0.00  0.00     0.019 A 
ATOM     10 Br1  <0> d          -5.250  -0.387  -1.320  0.00  0.00    -0.051 Br
ATOM     11  C5  <0> d          -2.396  -3.130  -0.100  0.00  0.00     0.002 A 
ATOM     12  C4  <0> d          -1.263  -2.356   0.059  0.00  0.00     0.009 A 
ENDBRANCH   4   6
ENDBRANCH   1   4
BRANCH   1  13
ATOM     13  C9  <0> d          -0.154  -0.330   2.373  0.00  0.00     0.209 C 
ATOM     14  C13 <0> d           0.528  -0.930   3.615  0.00  0.00     0.120 C 
ATOM     15  C12 <0> d           0.818   0.248   4.570  0.00  0.00     0.028 C 
ATOM     16  C11 <0> d          -0.208   1.332   4.158  0.00  0.00     0.004 C 
ATOM     17  C10 <0> d          -0.255   1.190   2.616  0.00  0.00     0.035 C 
BRANCH  14  18
ATOM     18  N2  <0> d           1.780  -1.587   3.232  0.00  0.00    -0.345 N 
ATOM     19  C16 <0> d           2.087  -2.890   3.406  0.00  0.00     0.183 A 
ATOM     20  N3  <0> d           3.287  -3.104   2.939  0.00  0.00    -0.361 N 
ATOM     21  C15 <0> d           3.787  -1.954   2.462  0.00  0.00     0.106 A 
ATOM     22  H22 <0> d           3.746  -3.958   2.940  0.00  0.00     0.166 HD
ATOM     23  C14 <0> d           2.860  -0.993   2.636  0.00  0.00     0.109 A 
ENDBRANCH  14  18
ENDBRANCH   1  13
TORSDOF 4
