REMARK  6 active torsions:
REMARK  status: ('A' for Active; 'I' for Inactive)
REMARK    1  A    between atoms: O1_2  and  C2_3 
REMARK    2  A    between atoms: C2_3  and  C3_4 
REMARK    3  A    between atoms: C3_4  and  N1_5 
REMARK    4  A    between atoms: N2_13  and  C10_16 
REMARK    5  A    between atoms: C10_16  and  C11_17 
REMARK       I    between atoms: C11_17  and  N3_19 
REMARK    6  A    between atoms: N3_19  and  C12_20 
ROOT
ATOM      1  N1  <0> d           1.405  -2.514  -0.131  0.00  0.00    -0.263 N 
ATOM      2  C4  <0> d           0.787  -2.635  -1.328  0.00  0.00     0.271 A 
ATOM      3  O2  <0> d          -0.400  -2.387  -1.439  0.00  0.00    -0.266 OA
ATOM      4  C5  <0> d           1.533  -3.050  -2.436  0.00  0.00     0.100 A 
ATOM      5  C6  <0> d           2.896  -3.339  -2.329  0.00  0.00     0.062 A 
ATOM      6  C7  <0> d           3.480  -3.737  -3.528  0.00  0.00     0.038 A 
ATOM      7  C8  <0> d           2.726  -3.810  -4.647  0.00  0.00     0.053 A 
ATOM      8  S1  <0> d           1.189  -3.348  -4.148  0.00  0.00    -0.094 SA
ATOM      9  N2  <0> d           3.463  -3.190  -1.055  0.00  0.00    -0.289 N 
ATOM     10  C9  <0> d           2.716  -2.784  -0.017  0.00  0.00     0.332 A 
ATOM     11  O3  <0> d           3.246  -2.661   1.071  0.00  0.00    -0.246 OA
ENDROOT
BRANCH   9  12
ATOM     12  C10 <0> d           4.887  -3.473  -0.858  0.00  0.00     0.237 C 
BRANCH  12  13
ATOM     13  C11 <0> d           5.686  -2.216  -1.087  0.00  0.00     0.240 C 
ATOM     14  O4  <0> d           5.122  -1.185  -1.386  0.00  0.00    -0.271 OA
ATOM     15  N3  <0> d           7.028  -2.238  -0.960  0.00  0.00    -0.323 N 
ATOM     16  H12 <0> d           7.473  -3.045  -0.658  0.00  0.00     0.169 HD
BRANCH  15  17
ATOM     17  C12 <0> d           7.778  -1.095  -1.263  0.00  0.00     0.073 A 
ATOM     18  C17 <0> d           9.044  -1.222  -1.825  0.00  0.00     0.143 A 
ATOM     19  C16 <0> d           9.779  -0.090  -2.129  0.00  0.00     0.044 A 
ATOM     20  F1  <0> d           9.552  -2.447  -2.080  0.00  0.00    -0.204 F 
ATOM     21  C15 <0> d           9.262   1.164  -1.863  0.00  0.00     0.003 A 
ATOM     22  C14 <0> d           8.006   1.292  -1.299  0.00  0.00     0.002 A 
ATOM     23  C13 <0> d           7.263   0.167  -0.999  0.00  0.00     0.033 A 
ENDBRANCH  15  17
ENDBRANCH  12  13
ENDBRANCH   9  12
BRANCH   1  24
ATOM     24  C3  <0> d           0.643  -2.081   1.044  0.00  0.00     0.163 C 
BRANCH  24  25
ATOM     25  C2  <0> d           0.688  -0.555   1.147  0.00  0.00     0.187 C 
BRANCH  25  26
ATOM     26  O1  <0> d           0.012   0.018   0.026  0.00  0.00    -0.394 OA
ATOM     27  C1  <0> d          -0.004   1.447   0.025  0.00  0.00     0.201 C 
ENDBRANCH  25  26
ENDBRANCH  24  25
ENDBRANCH   1  24
TORSDOF 6
