REMARK  7 active torsions:
REMARK  status: ('A' for Active; 'I' for Inactive)
REMARK    1  A    between atoms: C2_2  and  C3_3 
REMARK       I    between atoms: C3_3  and  N1_5 
REMARK    2  A    between atoms: N1_5  and  C4_6 
REMARK    3  A    between atoms: C5_7  and  C16_22 
REMARK    4  A    between atoms: N2_8  and  C13_19 
REMARK    5  A    between atoms: C6_9  and  N3_10 
REMARK    6  A    between atoms: N3_10  and  C7_11 
REMARK    7  A    between atoms: C13_19  and  C14_20 
ROOT
ATOM      1  C4  <0> d           1.597  -2.047  -2.958  0.00  0.00     0.108 A 
ATOM      2  C5  <0> d           1.510  -3.337  -3.423  0.00  0.00     0.081 A 
ATOM      3  N2  <0> d           2.261  -3.701  -4.462  0.00  0.00    -0.321 N 
ATOM      4  C6  <0> d           3.080  -2.848  -5.046  0.00  0.00     0.154 A 
ATOM      5  S1  <0> d           2.805  -1.367  -4.086  0.00  0.00    -0.034 SA
ENDROOT
BRANCH   4   6
ATOM      6  N3  <0> d           3.928  -3.047  -6.126  0.00  0.00    -0.336 N 
ATOM      7  H21 <0> d           3.906  -3.888  -6.611  0.00  0.00     0.168 HD
BRANCH   6   8
ATOM      8  C7  <0> d           4.812  -2.038  -6.516  0.00  0.00     0.034 A 
ATOM      9  C12 <0> d           5.136  -1.876  -7.857  0.00  0.00     0.031 A 
ATOM     10  C11 <0> d           6.006  -0.874  -8.240  0.00  0.00     0.021 A 
ATOM     11  C10 <0> d           6.563  -0.039  -7.288  0.00  0.00     0.011 A 
ATOM     12  C9  <0> d           6.246  -0.201  -5.951  0.00  0.00     0.021 A 
ATOM     13 Br1  <0> d           7.759   1.327  -7.816  0.00  0.00    -0.051 Br
ATOM     14  C8  <0> d           5.373  -1.197  -5.563  0.00  0.00     0.031 A 
ENDBRANCH   6   8
ENDBRANCH   4   6
BRANCH   3  15
ATOM     15  C13 <0> d           2.174  -5.074  -4.965  0.00  0.00     0.158 C 
BRANCH  15  16
ATOM     16  C14 <0> d           1.019  -5.186  -5.927  0.00  0.00    -0.017 C 
ATOM     17  C15 <0> d           1.216  -5.650  -7.136  0.00  0.00     0.008 C 
ENDBRANCH  15  16
ENDBRANCH   3  15
BRANCH   2  18
ATOM     18  C16 <0> d           0.596  -4.308  -2.779  0.00  0.00    -0.006 A 
ATOM     19  C21 <0> d          -0.772  -4.043  -2.711  0.00  0.00     0.014 A 
ATOM     20  C20 <0> d          -1.619  -4.955  -2.115  0.00  0.00     0.001 A 
ATOM     21  C19 <0> d          -1.113  -6.123  -1.574  0.00  0.00     0.000 A 
ATOM     22  C18 <0> d           0.244  -6.389  -1.633  0.00  0.00     0.001 A 
ATOM     23  C17 <0> d           1.100  -5.488  -2.232  0.00  0.00     0.014 A 
ENDBRANCH   2  18
BRANCH   1  24
ATOM     24  N1  <0> d           0.923  -1.435  -1.900  0.00  0.00    -0.319 N 
ATOM     25  C3  <0> d           1.156  -0.140  -1.612  0.00  0.00     0.222 C 
ATOM     26  O1  <0> d           1.951   0.495  -2.273  0.00  0.00    -0.273 OA
ATOM     27  H6  <0> d           0.288  -1.943  -1.371  0.00  0.00     0.169 HD
BRANCH  25  28
ATOM     28  C2  <0> d           0.429   0.521  -0.469  0.00  0.00     0.098 C 
ATOM     29  C1  <0> d           0.872   1.981  -0.359  0.00  0.00     0.014 C 
ENDBRANCH  25  28
ENDBRANCH   1  24
TORSDOF 7
