REMARK  8 active torsions:
REMARK  status: ('A' for Active; 'I' for Inactive)
REMARK    1  A    between atoms: C2_2  and  C3_3 
REMARK    2  A    between atoms: C3_3  and  C5_5 
REMARK       I    between atoms: C5_5  and  N1_7 
REMARK    3  A    between atoms: N1_7  and  N2_8 
REMARK    4  A    between atoms: N2_8  and  S1_9 
REMARK    5  A    between atoms: S1_9  and  C6_12 
REMARK    6  A    between atoms: C8_14  and  C14_22 
REMARK    7  A    between atoms: C9_15  and  O5_20 
REMARK    8  A    between atoms: C10_16  and  O4_18 
ROOT
ATOM      1  C6  <0> d          -5.086  -4.437   1.293  0.00  0.00     0.085 A 
ATOM      2  C7  <0> d          -5.580  -3.311   1.913  0.00  0.00     0.046 A 
ATOM      3  C8  <0> d          -6.927  -2.963   1.764  0.00  0.00     0.078 A 
ATOM      4  C9  <0> d          -7.768  -3.768   0.982  0.00  0.00     0.118 A 
ATOM      5  C10 <0> d          -7.253  -4.902   0.362  0.00  0.00     0.104 A 
ATOM      6  C11 <0> d          -5.916  -5.228   0.515  0.00  0.00     0.065 A 
ENDROOT
BRANCH   1   7
ATOM      7  S1  <0> d          -3.389  -4.870   1.483  0.00  0.00     0.276 S 
ATOM      8  O2  <0> d          -3.296  -6.267   1.241  0.00  0.00    -0.199 OA
ATOM      9  O3  <0> d          -2.953  -4.276   2.699  0.00  0.00    -0.199 OA
BRANCH   7  10
ATOM     10  N2  <0> d          -2.553  -4.122   0.265  0.00  0.00    -0.220 N 
ATOM     11  H11 <0> d          -2.051  -4.651  -0.375  0.00  0.00     0.200 HD
BRANCH  10  12
ATOM     12  N1  <0> d          -2.572  -2.725   0.157  0.00  0.00    -0.260 N 
ATOM     13  C5  <0> d          -1.414  -2.036   0.129  0.00  0.00     0.240 C 
ATOM     14  O1  <0> d          -0.356  -2.625   0.196  0.00  0.00    -0.271 OA
ATOM     15  H10 <0> d          -3.418  -2.254   0.104  0.00  0.00     0.190 HD
BRANCH  13  16
ATOM     16  C3  <0> d          -1.433  -0.534   0.013  0.00  0.00     0.075 C 
ATOM     17  C4  <0> d          -2.135  -0.131  -1.286  0.00  0.00     0.020 C 
BRANCH  16  18
ATOM     18  C2  <0> d           0.002  -0.004   0.002  0.00  0.00     0.009 C 
ATOM     19  C1  <0> d          -0.019   1.526   0.010  0.00  0.00     0.006 C 
ENDBRANCH  16  18
ENDBRANCH  13  16
ENDBRANCH  10  12
ENDBRANCH   7  10
ENDBRANCH   1   7
BRANCH   5  20
ATOM     20  O4  <0> d          -8.062  -5.688  -0.399  0.00  0.00    -0.353 OA
ATOM     21  C12 <0> d          -7.466  -6.836  -1.005  0.00  0.00     0.210 C 
ENDBRANCH   5  20
BRANCH   3  22
ATOM     22  C14 <0> d          -7.459  -1.761   2.426  0.00  0.00     0.212 C 
ATOM     23  O6  <0> d          -6.723  -1.062   3.108  0.00  0.00    -0.644 OA
ATOM     24  O7  <0> d          -8.637  -1.461   2.293  0.00  0.00    -0.644 OA
ENDBRANCH   3  22
BRANCH   4  25
ATOM     25  O5  <0> d          -9.076  -3.442   0.830  0.00  0.00    -0.352 OA
ATOM     26  C13 <0> d          -9.410  -2.592  -0.269  0.00  0.00     0.210 C 
ENDBRANCH   4  25
TORSDOF 8
