REMARK  3 active torsions:
REMARK  status: ('A' for Active; 'I' for Inactive)
REMARK    1  A    between atoms: C4_4  and  C7_8 
REMARK    2  A    between atoms: C7_8  and  C8_9 
REMARK    3  A    between atoms: C7_8  and  N1_16 
ROOT
ATOM      1  C7  <0> d          -2.513   0.979   0.019  0.00  0.00     0.250 C 
ENDROOT
BRANCH   1   2
ATOM      2  C4  <0> d          -3.078   0.942  -1.378  0.00  0.00    -0.010 A 
ATOM      3  C3  <0> d          -4.018   1.872  -1.779  0.00  0.00     0.024 A 
ATOM      4  C2  <0> d          -4.505   1.810  -3.043  0.00  0.00    -0.020 A 
ATOM      5  C1  <0> d          -5.524   2.698  -3.711  0.00  0.00     0.056 C 
ATOM      6  S1  <0> d          -3.628   0.406  -3.709  0.00  0.00    -0.100 SA
ATOM      7  C5  <0> d          -2.667  -0.001  -2.260  0.00  0.00    -0.012 A 
ATOM      8  C6  <0> d          -1.661  -1.107  -2.069  0.00  0.00     0.057 C 
ENDBRANCH   1   2
BRANCH   1   9
ATOM      9  C8  <0> d          -1.219   1.750   0.017  0.00  0.00    -0.022 A 
ATOM     10  C13 <0> d          -0.013   1.076   0.008  0.00  0.00     0.027 A 
ATOM     11  C12 <0> d           1.176   1.784   0.000  0.00  0.00     0.007 A 
ATOM     12  C11 <0> d           1.157   3.166   0.008  0.00  0.00     0.018 A 
ATOM     13  I1  <0> d           3.004   0.761  -0.023  0.00  0.00    -0.045 I 
ATOM     14  C10 <0> d          -0.050   3.841   0.023  0.00  0.00     0.002 A 
ATOM     15  C9  <0> d          -1.237   3.133   0.030  0.00  0.00     0.009 A 
ENDBRANCH   1   9
BRANCH   1  16
ATOM     16  N1  <0> d          -3.473   1.635   0.918  0.00  0.00    -0.067 N 
ATOM     17  H13 <0> d          -3.061   1.663   1.937  0.00  0.00     0.275 HD
ATOM     18  H14 <0> d          -4.418   1.073   0.919  0.00  0.00     0.275 HD
ATOM     19  H15 <0> d          -3.658   2.662   0.569  0.00  0.00     0.275 HD
ENDBRANCH   1  16
TORSDOF 3
