REMARK  6 active torsions:
REMARK  status: ('A' for Active; 'I' for Inactive)
REMARK    1  A    between atoms: C2_2  and  C3_3 
REMARK    2  A    between atoms: C2_2  and  N3_9 
REMARK       I    between atoms: N3_9  and  C8_11 
REMARK    3  A    between atoms: C8_11  and  C9_13 
REMARK    4  A    between atoms: C13_17  and  C15_19 
REMARK    5  A    between atoms: C16_20  and  C17_21 
REMARK    6  A    between atoms: C17_21  and  O2_24 
ROOT
ATOM      1  C9  <0> d           2.571  -1.567  -2.217  0.00  0.00     0.033 A 
ATOM      2  C10 <0> d           2.216  -1.052  -3.466  0.00  0.00     0.017 A 
ATOM      3  C11 <0> d           2.947  -1.390  -4.588  0.00  0.00     0.002 A 
ATOM      4  C12 <0> d           4.032  -2.238  -4.483  0.00  0.00     0.020 A 
ATOM      5  C13 <0> d           4.397  -2.760  -3.241  0.00  0.00     0.018 A 
ATOM      6  C14 <0> d           3.668  -2.418  -2.104  0.00  0.00     0.037 A 
ENDROOT
BRANCH   1   7
ATOM      7  C8  <0> d           1.788  -1.205  -1.016  0.00  0.00     0.254 C 
ATOM      8  N3  <0> d           0.455  -1.026  -1.110  0.00  0.00    -0.342 N 
ATOM      9  C7  <0> d          -0.236  -1.316  -2.368  0.00  0.00     0.154 C 
ATOM     10  O1  <0> d           2.346  -1.068   0.055  0.00  0.00    -0.267 OA
BRANCH   8  11
ATOM     11  C2  <0> d          -0.302  -0.541   0.047  0.00  0.00     0.135 C 
ATOM     12  C1  <0> d          -0.989   0.778  -0.309  0.00  0.00     0.039 C 
BRANCH  11  13
ATOM     13  C3  <0> d          -1.342  -1.562   0.430  0.00  0.00     0.059 A 
ATOM     14  N2  <0> d          -1.807  -2.415  -0.468  0.00  0.00    -0.244 NA
ATOM     15  C6  <0> d          -2.712  -3.315  -0.140  0.00  0.00     0.232 A 
ATOM     16  N1  <0> d          -3.198  -3.396   1.083  0.00  0.00    -0.254 NA
ATOM     17  C5  <0> d          -2.784  -2.573   2.033  0.00  0.00     0.120 A 
ATOM     18  C4  <0> d          -1.829  -1.617   1.727  0.00  0.00     0.048 A 
ENDBRANCH  11  13
ENDBRANCH   8  11
ENDBRANCH   1   7
BRANCH   5  19
ATOM     19  C15 <0> d           5.522  -3.640  -3.135  0.00  0.00    -0.064 C 
ATOM     20  C16 <0> d           6.444  -4.361  -3.048  0.00  0.00    -0.064 C 
BRANCH  20  21
ATOM     21  C17 <0> d           7.601  -5.265  -2.939  0.00  0.00     0.114 C 
ATOM     22  C18 <0> d           7.781  -5.689  -1.480  0.00  0.00     0.060 C 
ATOM     23  C19 <0> d           7.362  -6.505  -3.804  0.00  0.00     0.060 C 
BRANCH  21  24
ATOM     24  O2  <0> d           8.777  -4.590  -3.388  0.00  0.00    -0.378 OA
ATOM     25  H21 <0> d           8.990  -3.793  -2.884  0.00  0.00     0.211 HD
ENDBRANCH  21  24
ENDBRANCH  20  21
ENDBRANCH   5  19
TORSDOF 6
