REMARK  7 active torsions:
REMARK  status: ('A' for Active; 'I' for Inactive)
REMARK    1  A    between atoms: C2_2  and  C3_3 
REMARK    2  A    between atoms: C4_5  and  C6_8 
REMARK    3  A    between atoms: C6_8  and  N2_9 
REMARK       I    between atoms: N2_9  and  C8_11 
REMARK    4  A    between atoms: C8_11  and  C9_13 
REMARK       I    between atoms: C9_13  and  N3_15 
REMARK    5  A    between atoms: N3_15  and  C10_16 
REMARK    6  A    between atoms: C12_18  and  N4_24 
REMARK    7  A    between atoms: C15_21  and  O3_22 
REMARK       I    between atoms: N4_24  and  C17_25 
ROOT
ATOM      1  C9  <0> d          -5.897  -1.018  -3.120  0.00  0.00     0.314 C 
ATOM      2  O2  <0> d          -5.293  -0.355  -3.938  0.00  0.00    -0.262 OA
ATOM      3  N3  <0> d          -7.102  -0.607  -2.678  0.00  0.00    -0.316 N 
ATOM      4  H12 <0> d          -7.613  -1.166  -2.071  0.00  0.00     0.169 HD
ENDROOT
BRANCH   3   5
ATOM      5  C10 <0> d          -7.617   0.626  -3.093  0.00  0.00     0.070 A 
ATOM      6  C15 <0> d          -8.414   1.376  -2.230  0.00  0.00     0.095 A 
ATOM      7  C14 <0> d          -8.917   2.599  -2.641  0.00  0.00     0.041 A 
ATOM      8  C13 <0> d          -8.641   3.071  -3.910  0.00  0.00     0.032 A 
ATOM      9  C12 <0> d          -7.852   2.324  -4.775  0.00  0.00     0.037 A 
ATOM     10  C11 <0> d          -7.340   1.101  -4.367  0.00  0.00     0.062 A 
BRANCH   6  11
ATOM     11  O3  <0> d          -8.692   0.910  -0.983  0.00  0.00    -0.354 OA
ATOM     12  C16 <0> d          -9.515   1.731  -0.152  0.00  0.00     0.210 C 
ENDBRANCH   6  11
BRANCH   9  13
ATOM     13  N4  <0> d          -7.574   2.805  -6.061  0.00  0.00    -0.327 N 
ATOM     14  C17 <0> d          -8.505   3.511  -6.733  0.00  0.00     0.218 C 
ATOM     15  O4  <0> d          -9.558   3.788  -6.199  0.00  0.00    -0.274 OA
ATOM     16  C18 <0> d          -8.238   3.956  -8.147  0.00  0.00     0.117 C 
ATOM     17  H19 <0> d          -6.711   2.631  -6.468  0.00  0.00     0.169 HD
ENDBRANCH   9  13
ENDBRANCH   3   5
BRANCH   1  18
ATOM     18  C8  <0> d          -5.306  -2.288  -2.604  0.00  0.00     0.311 C 
ATOM     19  N2  <0> d          -4.051  -2.636  -2.952  0.00  0.00    -0.343 N 
ATOM     20  C7  <0> d          -3.229  -1.719  -3.745  0.00  0.00     0.153 C 
ATOM     21  O1  <0> d          -5.954  -3.006  -1.872  0.00  0.00    -0.262 OA
BRANCH  19  22
ATOM     22  C6  <0> d          -3.509  -3.933  -2.536  0.00  0.00     0.185 C 
BRANCH  22  23
ATOM     23  C4  <0> d          -2.829  -3.788  -1.200  0.00  0.00     0.059 A 
ATOM     24  N1  <0> d          -1.577  -3.389  -1.103  0.00  0.00    -0.248 NA
ATOM     25  C3  <0> d          -0.989  -3.263   0.060  0.00  0.00     0.075 A 
ATOM     26  S1  <0> d          -2.189  -3.720   1.148  0.00  0.00    -0.085 SA
ATOM     27  C5  <0> d          -3.478  -4.062  -0.039  0.00  0.00     0.080 A 
BRANCH  25  28
ATOM     28  C2  <0> d           0.423  -2.824   0.354  0.00  0.00     0.062 C 
ATOM     29  C1  <0> d           0.456  -1.305   0.537  0.00  0.00     0.012 C 
ENDBRANCH  25  28
ENDBRANCH  22  23
ENDBRANCH  19  22
ENDBRANCH   1  18
TORSDOF 7
