REMARK  6 active torsions:
REMARK  status: ('A' for Active; 'I' for Inactive)
REMARK    1  A    between atoms: N1_2  and  C3_4 
REMARK    2  A    between atoms: C5_6  and  C8_10 
REMARK    3  A    between atoms: C8_10  and  N3_11 
REMARK       I    between atoms: N3_11  and  C9_12 
REMARK    4  A    between atoms: C9_12  and  C10_14 
REMARK       I    between atoms: C10_14  and  N4_16 
REMARK    5  A    between atoms: N4_16  and  C11_17 
REMARK    6  A    between atoms: C15_21  and  N5_23 
ROOT
ATOM      1  C10 <0> d          -2.978  -6.616  -2.522  0.00  0.00     0.313 C 
ATOM      2  O2  <0> d          -3.903  -5.833  -2.470  0.00  0.00    -0.262 OA
ATOM      3  N4  <0> d          -3.218  -7.942  -2.562  0.00  0.00    -0.319 N 
ATOM      4  H13 <0> d          -2.483  -8.565  -2.668  0.00  0.00     0.169 HD
ENDROOT
BRANCH   1   5
ATOM      5  C9  <0> d          -1.572  -6.111  -2.541  0.00  0.00     0.309 C 
ATOM      6  N3  <0> d          -1.331  -4.786  -2.502  0.00  0.00    -0.349 N 
ATOM      7  H12 <0> d          -2.071  -4.160  -2.461  0.00  0.00     0.163 HD
ATOM      8  O1  <0> d          -0.647  -6.895  -2.593  0.00  0.00    -0.262 OA
BRANCH   6   9
ATOM      9  C8  <0> d           0.047  -4.291  -2.521  0.00  0.00     0.161 C 
BRANCH   9  10
ATOM     10  C5  <0> d           0.041  -2.785  -2.469  0.00  0.00    -0.036 A 
ATOM     11  C4  <0> d           0.069  -2.119  -1.256  0.00  0.00     0.057 A 
ATOM     12  C3  <0> d           0.063  -0.728  -1.248  0.00  0.00     0.102 A 
ATOM     13  N2  <0> d           0.025  -0.048  -2.383  0.00  0.00    -0.352 N 
ATOM     14  C7  <0> d           0.002  -0.656  -3.554  0.00  0.00     0.090 A 
ATOM     15  H24 <0> d           0.017   0.922  -2.354  0.00  0.00     0.166 HD
ATOM     16  C6  <0> d           0.007  -2.034  -3.636  0.00  0.00     0.026 A 
BRANCH  12  17
ATOM     17  N1  <0> d           0.091  -0.046  -0.037  0.00  0.00    -0.376 N 
ATOM     18  C1  <0> d           0.079   1.418  -0.021  0.00  0.00     0.150 C 
ATOM     19  C2  <0> d           0.134  -0.793   1.223  0.00  0.00     0.150 C 
ENDBRANCH  12  17
ENDBRANCH   9  10
ENDBRANCH   6   9
ENDBRANCH   1   5
BRANCH   3  20
ATOM     20  C11 <0> d          -4.527  -8.418  -2.450  0.00  0.00     0.037 A 
ATOM     21  C16 <0> d          -4.778  -9.611  -1.786  0.00  0.00     0.059 A 
ATOM     22  C15 <0> d          -6.080 -10.076  -1.671  0.00  0.00     0.039 A 
ATOM     23  C14 <0> d          -7.127  -9.354  -2.232  0.00  0.00     0.030 A 
ATOM     24  C13 <0> d          -6.873  -8.170  -2.897  0.00  0.00     0.004 A 
ATOM     25  C12 <0> d          -5.579  -7.700  -3.007  0.00  0.00     0.029 A 
BRANCH  22  26
ATOM     26  N5  <0> d          -6.338 -11.275  -0.997  0.00  0.00    -0.318 N 
ATOM     27  C20 <0> d          -5.411 -11.986  -0.332  0.00  0.00     0.224 C 
ATOM     28  C19 <0> d          -6.038 -13.225   0.268  0.00  0.00     0.105 C 
ATOM     29  O3  <0> d          -4.243 -11.678  -0.227  0.00  0.00    -0.273 OA
ATOM     30  C18 <0> d          -7.378 -13.375  -0.488  0.00  0.00     0.029 C 
ATOM     31  C17 <0> d          -7.655 -11.921  -0.931  0.00  0.00     0.133 C 
ENDBRANCH  22  26
ENDBRANCH   3  20
TORSDOF 6
