REMARK  10 active torsions:
REMARK  status: ('A' for Active; 'I' for Inactive)
REMARK    1  A    between atoms: C5_5  and  C20_23 
REMARK    2  A    between atoms: C7_7  and  C8_8 
REMARK    3  A    between atoms: C8_8  and  N1_9 
REMARK    4  A    between atoms: N1_9  and  C9_10 
REMARK    5  A    between atoms: N1_9  and  C11_13 
REMARK    6  A    between atoms: C9_10  and  C10_11 
REMARK    7  A    between atoms: C10_11  and  O1_12 
REMARK    8  A    between atoms: C11_13  and  C12_14 
REMARK    9  A    between atoms: C15_17  and  S1_20 
REMARK   10  A    between atoms: C20_23  and  O2_24 
ROOT
ATOM      1  N1  <0> d          -1.798   0.026   2.916  0.00  0.00    -0.061 N 
ATOM      2  H30 <0> d          -2.657   0.273   2.447  0.00  0.00     0.280 HD
ENDROOT
BRANCH   1   3
ATOM      3  C8  <0> d          -0.677   0.141   1.974  0.00  0.00     0.275 C 
BRANCH   3   4
ATOM      4  C7  <0> d          -0.947  -0.715   0.764  0.00  0.00    -0.020 A 
ATOM      5  C2  <0> d          -0.381  -1.973   0.667  0.00  0.00    -0.053 A 
ATOM      6  C1  <0> d           0.505  -2.487   1.772  0.00  0.00     0.049 C 
ATOM      7  C3  <0> d          -0.634  -2.760  -0.441  0.00  0.00     0.014 A 
ATOM      8  C4  <0> d          -1.447  -2.288  -1.454  0.00  0.00    -0.053 A 
ATOM      9  C5  <0> d          -2.008  -1.028  -1.359  0.00  0.00    -0.022 A 
ATOM     10  C21 <0> d          -1.721  -3.147  -2.662  0.00  0.00     0.049 C 
ATOM     11  C6  <0> d          -1.757  -0.241  -0.251  0.00  0.00    -0.045 A 
ATOM     12  C19 <0> d          -2.368   1.132  -0.148  0.00  0.00     0.049 C 
BRANCH   9  13
ATOM     13  C20 <0> d          -2.894  -0.513  -2.464  0.00  0.00     0.203 C 
BRANCH  13  14
ATOM     14  O2  <0> d          -4.250  -0.876  -2.196  0.00  0.00    -0.396 OA
ATOM     15  H26 <0> d          -4.878  -0.577  -2.868  0.00  0.00     0.209 HD
ENDBRANCH  13  14
ENDBRANCH   9  13
ENDBRANCH   3   4
ENDBRANCH   1   3
BRANCH   1  16
ATOM     16  C9  <0> d          -1.887  -1.356   3.405  0.00  0.00     0.261 C 
BRANCH  16  17
ATOM     17  C10 <0> d          -3.136  -1.510   4.276  0.00  0.00     0.192 C 
BRANCH  17  18
ATOM     18  O1  <0> d          -4.301  -1.256   3.488  0.00  0.00    -0.399 OA
ATOM     19  H11 <0> d          -5.131  -1.335   3.977  0.00  0.00     0.209 HD
ENDBRANCH  17  18
ENDBRANCH  16  17
ENDBRANCH   1  16
BRANCH   1  20
ATOM     20  C11 <0> d          -1.581   0.934   4.050  0.00  0.00     0.273 C 
BRANCH  20  21
ATOM     21  C12 <0> d          -1.631   2.361   3.568  0.00  0.00    -0.033 A 
ATOM     22  C17 <0> d          -2.850   3.000   3.433  0.00  0.00     0.010 A 
ATOM     23  C16 <0> d          -2.900   4.310   2.997  0.00  0.00     0.019 A 
ATOM     24  C15 <0> d          -1.724   4.981   2.684  0.00  0.00    -0.000 A 
ATOM     25  C14 <0> d          -0.501   4.334   2.817  0.00  0.00     0.019 A 
ATOM     26  C13 <0> d          -0.459   3.026   3.258  0.00  0.00     0.010 A 
BRANCH  24  27
ATOM     27  S1  <0> d          -1.783   6.650   2.122  0.00  0.00    -0.134 SA
ATOM     28  C18 <0> d          -3.553   7.048   2.114  0.00  0.00     0.095 C 
ENDBRANCH  24  27
ENDBRANCH  20  21
ENDBRANCH   1  20
TORSDOF 10
