REMARK  4 active torsions:
REMARK  status: ('A' for Active; 'I' for Inactive)
REMARK    1  A    between atoms: C7_7  and  C8_8 
REMARK       I    between atoms: C8_8  and  N1_10 
REMARK    2  A    between atoms: N1_10  and  C9_11 
REMARK    3  A    between atoms: C9_11  and  C10_12 
REMARK    4  A    between atoms: C9_11  and  C17_22 
ROOT
ATOM      1  C9  <0> d           0.578   0.068   4.893  0.00  0.00     0.158 C 
ENDROOT
BRANCH   1   2
ATOM      2  N1  <0> d           0.465  -0.655   3.624  0.00  0.00    -0.345 N 
ATOM      3  C8  <0> d           0.242   0.022   2.481  0.00  0.00     0.252 C 
ATOM      4  O1  <0> d           0.135   1.232   2.502  0.00  0.00    -0.268 OA
ATOM      5  H9  <0> d           0.551  -1.621   3.607  0.00  0.00     0.163 HD
BRANCH   3   6
ATOM      6  C7  <0> d           0.128  -0.708   1.200  0.00  0.00     0.037 A 
ATOM      7  C2  <0> d          -0.236  -0.029   0.037  0.00  0.00    -0.045 A 
ATOM      8  C1  <0> d          -0.514   1.452   0.082  0.00  0.00     0.049 C 
ATOM      9  C3  <0> d          -0.335  -0.714  -1.156  0.00  0.00     0.026 A 
ATOM     10  C4  <0> d          -0.080  -2.074  -1.200  0.00  0.00     0.011 A 
ATOM     11  C5  <0> d           0.276  -2.755  -0.047  0.00  0.00     0.020 A 
ATOM     12 Br1  <0> d          -0.219  -3.006  -2.839  0.00  0.00    -0.051 Br
ATOM     13  C6  <0> d           0.378  -2.081   1.151  0.00  0.00     0.019 A 
ENDBRANCH   3   6
ENDBRANCH   1   2
BRANCH   1  14
ATOM     14  C10 <0> d           0.213  -0.852   6.030  0.00  0.00     0.128 A 
ATOM     15  N3  <0> d           0.880  -1.915   6.372  0.00  0.00    -0.231 NA
ATOM     16  C16 <0> d           0.280  -2.508   7.436  0.00  0.00     0.085 A 
ATOM     17  C11 <0> d          -0.850  -1.735   7.751  0.00  0.00     0.062 A 
ATOM     18  C15 <0> d           0.567  -3.647   8.193  0.00  0.00     0.034 A 
ATOM     19  N2  <0> d          -0.866  -0.695   6.844  0.00  0.00    -0.341 N 
ATOM     20  C12 <0> d          -1.670  -2.110   8.807  0.00  0.00     0.032 A 
ATOM     21  H2  <0> d          -1.524   0.016   6.796  0.00  0.00     0.167 HD
ATOM     22  C13 <0> d          -1.369  -3.238   9.539  0.00  0.00     0.002 A 
ATOM     23  C14 <0> d          -0.252  -4.000   9.228  0.00  0.00     0.002 A 
ENDBRANCH   1  14
BRANCH   1  24
ATOM     24  C17 <0> d           2.016   0.557   5.075  0.00  0.00     0.008 C 
ATOM     25  C18 <0> d           2.977  -0.628   4.961  0.00  0.00     0.012 C 
ATOM     26  C19 <0> d           2.345   1.587   3.992  0.00  0.00     0.012 C 
ENDBRANCH   1  24
TORSDOF 4
