REMARK  6 active torsions:
REMARK  status: ('A' for Active; 'I' for Inactive)
REMARK    1  A    between atoms: C2_2  and  C3_3 
REMARK    2  A    between atoms: C2_2  and  N2_15 
REMARK    3  A    between atoms: C7_7  and  S1_9 
REMARK    4  A    between atoms: S1_9  and  N1_12 
REMARK       I    between atoms: N2_15  and  C11_16 
REMARK    5  A    between atoms: C11_16  and  C12_18 
REMARK    6  A    between atoms: C14_22  and  C15_23 
ROOT
ATOM      1  C1  <0> d          -0.019   1.526   0.010  0.00  0.00     0.037 C 
ATOM      2  C2  <0> d           0.002  -0.004   0.002  0.00  0.00     0.114 C 
ENDROOT
BRANCH   2   3
ATOM      3  C3  <0> d           0.731  -0.503   1.223  0.00  0.00    -0.034 A 
ATOM      4  C8  <0> d           2.048  -0.911   1.123  0.00  0.00     0.034 A 
ATOM      5  C7  <0> d           2.718  -1.365   2.244  0.00  0.00     0.080 A 
ATOM      6  C6  <0> d           2.068  -1.420   3.463  0.00  0.00     0.025 A 
ATOM      7  C5  <0> d           0.749  -1.016   3.562  0.00  0.00     0.002 A 
ATOM      8  C4  <0> d           0.081  -0.558   2.442  0.00  0.00     0.009 A 
BRANCH   5   9
ATOM      9  S1  <0> d           4.399  -1.879   2.118  0.00  0.00     0.260 S 
ATOM     10  O1  <0> d           4.941  -1.217   0.984  0.00  0.00    -0.200 OA
ATOM     11  O2  <0> d           4.961  -1.749   3.417  0.00  0.00    -0.200 OA
BRANCH   9  12
ATOM     12  N1  <0> d           4.391  -3.496   1.764  0.00  0.00    -0.315 N 
ATOM     13  C9  <0> d           4.378  -3.941   0.368  0.00  0.00     0.162 C 
ATOM     14  C10 <0> d           4.398  -4.483   2.847  0.00  0.00     0.162 C 
ENDBRANCH   9  12
ENDBRANCH   5   9
ENDBRANCH   2   3
BRANCH   2  15
ATOM     15  N2  <0> d          -1.372  -0.511   0.012  0.00  0.00    -0.348 N 
ATOM     16  C11 <0> d          -2.051  -0.643  -1.145  0.00  0.00     0.255 C 
ATOM     17  O3  <0> d          -1.522  -0.341  -2.197  0.00  0.00    -0.268 OA
ATOM     18  H15 <0> d          -1.794  -0.752   0.852  0.00  0.00     0.163 HD
BRANCH  16  19
ATOM     19  C12 <0> d          -3.434  -1.153  -1.134  0.00  0.00     0.080 A 
ATOM     20  C14 <0> d          -4.247  -1.340  -2.234  0.00  0.00     0.111 A 
ATOM     21  N4  <0> d          -5.420  -1.820  -1.790  0.00  0.00    -0.272 N 
ATOM     22  N3  <0> d          -5.355  -1.931  -0.397  0.00  0.00    -0.184 NA
ATOM     23  C16 <0> d          -6.574  -2.164  -2.624  0.00  0.00     0.180 C 
ATOM     24  C13 <0> d          -4.178  -1.537   0.004  0.00  0.00     0.158 A 
BRANCH  20  25
ATOM     25  C15 <0> d          -3.883  -1.060  -3.670  0.00  0.00     0.405 C 
ATOM     26  F1  <0> d          -5.034  -0.705  -4.381  0.00  0.00    -0.207 F 
ATOM     27  F2  <0> d          -2.961  -0.009  -3.721  0.00  0.00    -0.207 F 
ENDBRANCH  20  25
ENDBRANCH  16  19
ENDBRANCH   2  15
TORSDOF 6
