REMARK  5 active torsions:
REMARK  status: ('A' for Active; 'I' for Inactive)
REMARK    1  A    between atoms: C5_6  and  S1_8 
REMARK    2  A    between atoms: S1_8  and  C6_9 
REMARK    3  A    between atoms: C6_9  and  C7_10 
REMARK    4  A    between atoms: C6_9  and  C8_12 
REMARK    5  A    between atoms: C7_10  and  N3_11 
ROOT
ATOM      1  C6  <0> d           0.129  -4.574   2.061  0.00  0.00     0.120 C 
ENDROOT
BRANCH   1   2
ATOM      2  S1  <0> d           0.059  -2.871   2.683  0.00  0.00    -0.078 SA
BRANCH   2   3
ATOM      3  C5  <0> d           1.652  -2.610   3.389  0.00  0.00     0.189 A 
ATOM      4  N1  <0> d           2.513  -3.617   3.436  0.00  0.00    -0.235 NA
ATOM      5  C4  <0> d           3.716  -3.454   3.960  0.00  0.00     0.121 A 
ATOM      6  C3  <0> d           4.072  -2.213   4.464  0.00  0.00     0.046 A 
ATOM      7  C2  <0> d           3.148  -1.181   4.399  0.00  0.00     0.035 A 
ATOM      8  C1  <0> d           3.492   0.185   4.936  0.00  0.00     0.070 C 
ATOM      9  N2  <0> d           1.960  -1.412   3.867  0.00  0.00    -0.228 NA
ENDBRANCH   2   3
ENDBRANCH   1   2
BRANCH   1  10
ATOM     10  C7  <0> d          -1.124  -4.866   1.233  0.00  0.00     0.250 C 
BRANCH  10  11
ATOM     11  N3  <0> d          -1.125  -4.020   0.032  0.00  0.00    -0.078 N 
ATOM     12  H9  <0> d          -0.263  -4.155  -0.476  0.00  0.00     0.274 HD
ATOM     13  H10 <0> d          -1.905  -4.273  -0.557  0.00  0.00     0.274 HD
ATOM     14  H13 <0> d          -1.207  -3.052   0.302  0.00  0.00     0.274 HD
ENDBRANCH  10  11
ENDBRANCH   1  10
BRANCH   1  15
ATOM     15  C8  <0> d           0.197  -5.530   3.223  0.00  0.00    -0.000 A 
ATOM     16  S2  <0> d          -0.968  -5.766   4.555  0.00  0.00    -0.086 SA
ATOM     17  C11 <0> d          -0.096  -7.056   5.428  0.00  0.00     0.051 A 
ATOM     18  C10 <0> d           1.013  -7.213   4.662  0.00  0.00     0.028 A 
ATOM     19 Br1  <0> d          -0.586  -7.964   7.013  0.00  0.00    -0.043 Br
ATOM     20  C9  <0> d           1.162  -6.431   3.532  0.00  0.00     0.017 A 
ENDBRANCH   1  15
TORSDOF 5
