REMARK  8 active torsions:
REMARK  status: ('A' for Active; 'I' for Inactive)
REMARK    1  A    between atoms: C2_2  and  C3_3 
REMARK    2  A    between atoms: C3_3  and  C4_4 
REMARK    3  A    between atoms: C4_4  and  C5_5 
REMARK    4  A    between atoms: C5_5  and  C6_6 
REMARK    5  A    between atoms: C6_6  and  N1_7 
REMARK    6  A    between atoms: C7_8  and  N2_9 
REMARK    7  A    between atoms: C8_10  and  C18_23 
REMARK       I    between atoms: C18_23  and  N5_25 
REMARK    8  A    between atoms: N5_25  and  C19_26 
ROOT
ATOM      1  N1  <0> d           2.145  -4.579   3.696  0.00  0.00    -0.316 N 
ATOM      2  C7  <0> d           3.445  -4.748   3.543  0.00  0.00     0.118 A 
ATOM      3  C8  <0> d           4.258  -5.197   4.608  0.00  0.00     0.077 A 
ATOM      4  C9  <0> d           3.672  -5.465   5.847  0.00  0.00     0.042 A 
ATOM      5  C10 <0> d           2.298  -5.276   5.974  0.00  0.00     0.080 A 
ATOM      6  C11 <0> d           1.542  -4.817   4.862  0.00  0.00     0.149 A 
ATOM      7  N3  <0> d           0.225  -4.638   5.007  0.00  0.00    -0.212 NA
ATOM      8  C12 <0> d          -0.399  -4.869   6.157  0.00  0.00     0.139 A 
ATOM      9  C13 <0> d          -1.792  -4.653   6.222  0.00  0.00     0.051 A 
ATOM     10  C14 <0> d          -2.455  -4.882   7.388  0.00  0.00     0.005 A 
ATOM     11  C15 <0> d          -1.746  -5.331   8.513  0.00  0.00     0.018 A 
ATOM     12  C16 <0> d          -0.413  -5.533   8.437  0.00  0.00     0.102 A 
ATOM     13  N4  <0> d           0.263  -5.307   7.272  0.00  0.00    -0.273 N 
ATOM     14  C17 <0> d           1.598  -5.532   7.234  0.00  0.00     0.267 A 
ATOM     15  O1  <0> d           2.198  -5.922   8.219  0.00  0.00    -0.267 OA
ENDROOT
BRANCH   3  16
ATOM     16  C18 <0> d           5.705  -5.379   4.414  0.00  0.00     0.261 C 
ATOM     17  O2  <0> d           6.226  -5.041   3.368  0.00  0.00    -0.267 OA
ATOM     18  N5  <0> d           6.454  -5.920   5.395  0.00  0.00    -0.305 N 
ATOM     19  H20 <0> d           6.039  -6.189   6.230  0.00  0.00     0.170 HD
BRANCH  18  20
ATOM     20  C19 <0> d           7.825  -6.092   5.211  0.00  0.00     0.160 A 
ATOM     21  N6  <0> d           8.660  -6.602   6.080  0.00  0.00    -0.110 NA
ATOM     22  O3  <0> d           9.950  -6.597   5.496  0.00  0.00    -0.216 OA
ATOM     23  C21 <0> d           9.848  -6.065   4.268  0.00  0.00     0.078 A 
ATOM     24  C20 <0> d           8.560  -5.742   4.056  0.00  0.00     0.087 A 
ATOM     25  C22 <0> d          10.981  -5.864   3.294  0.00  0.00     0.079 C 
ENDBRANCH  18  20
ENDBRANCH   3  16
BRANCH   2  26
ATOM     26  N2  <0> d           4.021  -4.482   2.318  0.00  0.00    -0.384 N 
ATOM     27  H14 <0> d           3.463  -4.250   1.560  0.00  0.00     0.157 HD
ATOM     28  H25 <0> d           4.984  -4.528   2.216  0.00  0.00     0.157 HD
ENDBRANCH   2  26
BRANCH   1  29
ATOM     29  C6  <0> d           1.347  -4.111   2.561  0.00  0.00     0.132 C 
BRANCH  29  30
ATOM     30  C5  <0> d           1.300  -2.582   2.565  0.00  0.00     0.020 C 
BRANCH  30  31
ATOM     31  C4  <0> d           0.466  -2.093   1.379  0.00  0.00     0.002 C 
BRANCH  31  32
ATOM     32  C3  <0> d           0.420  -0.564   1.383  0.00  0.00    -0.000 C 
BRANCH  32  33
ATOM     33  C2  <0> d          -0.414  -0.075   0.198  0.00  0.00    -0.005 C 
ATOM     34  C1  <0> d          -0.460   1.454   0.202  0.00  0.00     0.005 C 
ENDBRANCH  32  33
ENDBRANCH  31  32
ENDBRANCH  30  31
ENDBRANCH  29  30
ENDBRANCH   1  29
TORSDOF 8
