REMARK  6 active torsions:
REMARK  status: ('A' for Active; 'I' for Inactive)
REMARK       I    between atoms: N1_8  and  C11_12 
REMARK    1  A    between atoms: C11_12  and  C12_14 
REMARK       I    between atoms: C12_14  and  N2_16 
REMARK    2  A    between atoms: N2_16  and  C13_17 
REMARK    3  A    between atoms: C13_17  and  C14_18 
REMARK    4  A    between atoms: C14_18  and  C15_19 
REMARK    5  A    between atoms: C15_19  and  C16_20 
REMARK    6  A    between atoms: C16_20  and  N3_21 
ROOT
ATOM      1  C12 <0> d           0.730   2.062   3.667  0.00  0.00     0.309 C 
ATOM      2  O2  <0> d           0.775   1.449   4.713  0.00  0.00    -0.262 OA
ATOM      3  N2  <0> d           0.887   3.401   3.664  0.00  0.00    -0.353 N 
ATOM      4  H12 <0> d           0.850   3.891   2.827  0.00  0.00     0.162 HD
ENDROOT
BRANCH   1   5
ATOM      5  C11 <0> d           0.499   1.334   2.384  0.00  0.00     0.316 C 
ATOM      6  N1  <0> d           0.452  -0.013   2.372  0.00  0.00    -0.309 N 
ATOM      7  C7  <0> d          -0.346  -0.689   1.441  0.00  0.00     0.050 A 
ATOM      8  C8  <0> d           1.237  -0.796   3.337  0.00  0.00     0.133 C 
ATOM      9  C2  <0> d          -1.296   0.024   0.719  0.00  0.00    -0.032 A 
ATOM     10  C6  <0> d          -0.198  -2.053   1.236  0.00  0.00    -0.028 A 
ATOM     11  C1  <0> d          -1.462   1.504   0.950  0.00  0.00     0.050 C 
ATOM     12  C3  <0> d          -2.084  -0.620  -0.214  0.00  0.00     0.051 A 
ATOM     13  C4  <0> d          -1.930  -1.980  -0.425  0.00  0.00     0.117 A 
ATOM     14  C5  <0> d          -0.990  -2.693   0.298  0.00  0.00     0.051 A 
ATOM     15  F1  <0> d          -2.699  -2.612  -1.338  0.00  0.00    -0.206 F 
ATOM     16  C10 <0> d           0.812  -2.860   2.009  0.00  0.00     0.042 C 
ATOM     17  C9  <0> d           1.906  -1.946   2.572  0.00  0.00     0.025 C 
ATOM     18  O1  <0> d           0.355   1.955   1.351  0.00  0.00    -0.262 OA
ENDBRANCH   1   5
BRANCH   3  19
ATOM     19  C13 <0> d           1.112   4.115   4.923  0.00  0.00     0.123 C 
BRANCH  19  20
ATOM     20  C14 <0> d           1.257   5.612   4.641  0.00  0.00     0.021 C 
BRANCH  20  21
ATOM     21  C15 <0> d           1.492   6.358   5.955  0.00  0.00     0.022 C 
BRANCH  21  22
ATOM     22  C16 <0> d           1.637   7.855   5.674  0.00  0.00     0.131 C 
BRANCH  22  23
ATOM     23  N3  <0> d           1.863   8.569   6.933  0.00  0.00    -0.325 N 
ATOM     24  C21 <0> d           3.120   8.758   7.375  0.00  0.00     0.247 A 
ATOM     25  C20 <0> d           3.347   9.447   8.579  0.00  0.00     0.074 A 
ATOM     26  O3  <0> d           4.064   8.334   6.727  0.00  0.00    -0.268 OA
ATOM     27  C19 <0> d           2.281   9.910   9.294  0.00  0.00     0.007 A 
ATOM     28  C18 <0> d           0.984   9.692   8.809  0.00  0.00     0.017 A 
ATOM     29  C17 <0> d           0.801   9.029   7.643  0.00  0.00     0.094 A 
ENDBRANCH  22  23
ENDBRANCH  21  22
ENDBRANCH  20  21
ENDBRANCH  19  20
ENDBRANCH   3  19
TORSDOF 6
