REMARK  5 active torsions:
REMARK  status: ('A' for Active; 'I' for Inactive)
REMARK    1  A    between atoms: N1_3  and  C7_13 
REMARK    2  A    between atoms: C3_4  and  S1_8 
REMARK    3  A    between atoms: S1_8  and  C5_9 
REMARK    4  A    between atoms: C5_9  and  C6_10 
REMARK    5  A    between atoms: C7_13  and  C8_14 
ROOT
ATOM      1  C1  <0> d          -0.017   1.414   0.010  0.00  0.00     0.091 A 
ATOM      2  C2  <0> d           1.155   2.084   0.002  0.00  0.00     0.098 A 
ATOM      3  N1  <0> d           2.326   1.381  -0.013  0.00  0.00    -0.335 N 
ATOM      4  C3  <0> d           2.312   0.021  -0.020  0.00  0.00     0.149 A 
ATOM      5  N2  <0> d           1.176  -0.649  -0.013  0.00  0.00    -0.304 N 
ATOM      6  C4  <0> d           0.002  -0.004   0.002  0.00  0.00     0.248 A 
ATOM      7  O1  <0> d          -1.045  -0.633   0.009  0.00  0.00    -0.268 OA
ATOM      8  H14 <0> d           1.191  -1.619  -0.019  0.00  0.00     0.171 HD
ENDROOT
BRANCH   3   9
ATOM      9  C7  <0> d           3.604   2.096  -0.021  0.00  0.00     0.162 C 
BRANCH   9  10
ATOM     10  C8  <0> d           4.063   2.337   1.418  0.00  0.00     0.139 C 
ATOM     11  O4  <0> d           3.123   3.177   2.107  0.00  0.00    -0.384 OA
ATOM     12  C11 <0> d           3.819   4.063   2.994  0.00  0.00     0.168 C 
ATOM     13  C10 <0> d           5.331   3.793   2.832  0.00  0.00     0.029 C 
ATOM     14  C9  <0> d           5.398   3.124   1.433  0.00  0.00     0.035 C 
ENDBRANCH   9  10
ENDBRANCH   3   9
BRANCH   4  15
ATOM     15  S1  <0> d           3.837  -0.861  -0.041  0.00  0.00    -0.083 SA
BRANCH  15  16
ATOM     16  C5  <0> d           3.336  -2.605  -0.046  0.00  0.00     0.195 C 
BRANCH  16  17
ATOM     17  C6  <0> d           4.563  -3.480  -0.063  0.00  0.00     0.182 C 
ATOM     18  O2  <0> d           5.672  -2.974  -0.071  0.00  0.00    -0.647 OA
ATOM     19  O3  <0> d           4.446  -4.693  -0.069  0.00  0.00    -0.647 OA
ENDBRANCH  16  17
ENDBRANCH  15  16
ENDBRANCH   4  15
TORSDOF 5
