REMARK  6 active torsions:
REMARK  status: ('A' for Active; 'I' for Inactive)
REMARK    1  A    between atoms: C2_2  and  N3_24 
REMARK    2  A    between atoms: C3_3  and  N3_24 
REMARK    3  A    between atoms: C5_5  and  C6_6 
REMARK    4  A    between atoms: C5_5  and  N3_24 
REMARK    5  A    between atoms: C6_6  and  N1_7 
REMARK       I    between atoms: N1_7  and  C7_8 
REMARK    6  A    between atoms: C7_8  and  C8_10 
ROOT
ATOM      1  C8  <0> d          -2.242   1.319  -1.750  0.00  0.00     0.084 A 
ATOM      2  C9  <0> d          -2.301  -0.078  -1.885  0.00  0.00     0.108 A 
ATOM      3  N2  <0> d          -3.407  -0.687  -2.229  0.00  0.00    -0.364 N 
ATOM      4  C10 <0> d          -4.538  -0.014  -2.482  0.00  0.00     0.045 A 
ATOM      5  C11 <0> d          -5.708  -0.693  -2.861  0.00  0.00     0.037 A 
ATOM      6  C12 <0> d          -6.846   0.011  -3.114  0.00  0.00    -0.060 A 
ATOM      7  C13 <0> d          -6.873   1.398  -3.004  0.00  0.00     0.008 A 
ATOM      8  C14 <0> d          -5.757   2.090  -2.639  0.00  0.00     0.017 A 
ATOM      9  C15 <0> d          -4.568   1.396  -2.371  0.00  0.00     0.028 A 
ATOM     10  C16 <0> d          -3.391   2.080  -1.989  0.00  0.00     0.136 A 
ATOM     11  O2  <0> d          -3.375   3.427  -1.864  0.00  0.00    -0.190 OA
ATOM     12  C17 <0> d          -8.098  -0.725  -3.520  0.00  0.00     0.048 C 
ATOM     13  H20 <0> d          -3.408  -1.684  -2.305  0.00  0.00     0.165 HD
ENDROOT
BRANCH   1  14
ATOM     14  C7  <0> d          -0.981   1.976  -1.361  0.00  0.00     0.255 C 
ATOM     15  N1  <0> d           0.122   1.236  -1.132  0.00  0.00    -0.355 N 
ATOM     16  H15 <0> d           0.086   0.271  -1.224  0.00  0.00     0.162 HD
ATOM     17  O1  <0> d          -0.937   3.186  -1.246  0.00  0.00    -0.268 OA
BRANCH  15  18
ATOM     18  C6  <0> d           1.376   1.889  -0.751  0.00  0.00     0.150 C 
BRANCH  18  19
ATOM     19  C5  <0> d           2.465   0.831  -0.559  0.00  0.00     0.254 C 
BRANCH  19  20
ATOM     20  N3  <0> d           3.728   1.507  -0.196  0.00  0.00    -0.070 N 
ATOM     21  H24 <0> d           3.919   2.248  -0.881  0.00  0.00     0.279 HD
BRANCH  20  22
ATOM     22  C2  <0> d           3.608   2.114   1.146  0.00  0.00     0.230 C 
ATOM     23  C1  <0> d           3.298   1.043   2.194  0.00  0.00     0.034 C 
ENDBRANCH  20  22
BRANCH  20  24
ATOM     24  C3  <0> d           4.843   0.537  -0.214  0.00  0.00     0.230 C 
ATOM     25  C4  <0> d           6.165   1.308  -0.201  0.00  0.00     0.034 C 
ENDBRANCH  20  24
ENDBRANCH  19  20
ENDBRANCH  18  19
ENDBRANCH  15  18
ENDBRANCH   1  14
TORSDOF 6
