REMARK  6 active torsions:
REMARK  status: ('A' for Active; 'I' for Inactive)
REMARK    1  A    between atoms: C2_2  and  C3_3 
REMARK    2  A    between atoms: C2_2  and  N3_20 
REMARK    3  A    between atoms: C3_3  and  N1_4 
REMARK       I    between atoms: N1_4  and  C4_5 
REMARK    4  A    between atoms: C4_5  and  C5_7 
REMARK    5  A    between atoms: C8_10  and  N2_13 
REMARK       I    between atoms: N3_20  and  C16_21 
REMARK    6  A    between atoms: C16_21  and  C17_23 
ROOT
ATOM      1  C3  <0> d           0.290  -0.465   1.775  0.00  0.00     0.147 C 
ENDROOT
BRANCH   1   2
ATOM      2  C2  <0> d          -1.008   0.098   1.194  0.00  0.00     0.098 C 
ATOM      3  C1  <0> d          -0.972   1.626   1.252  0.00  0.00     0.034 C 
BRANCH   2   4
ATOM      4  N3  <0> d          -2.146  -0.394   1.975  0.00  0.00    -0.351 N 
ATOM      5  C16 <0> d          -3.368  -0.472   1.410  0.00  0.00     0.252 C 
ATOM      6  O3  <0> d          -3.525  -0.135   0.252  0.00  0.00    -0.268 OA
ATOM      7  H17 <0> d          -2.021  -0.663   2.898  0.00  0.00     0.163 HD
BRANCH   5   8
ATOM      8  C17 <0> d          -4.514  -0.968   2.196  0.00  0.00     0.034 A 
ATOM      9  C22 <0> d          -5.774  -1.048   1.609  0.00  0.00     0.047 A 
ATOM     10  C21 <0> d          -6.848  -1.518   2.350  0.00  0.00     0.045 A 
ATOM     11  C20 <0> d          -6.651  -1.899   3.692  0.00  0.00     0.014 A 
ATOM     12  N4  <0> d          -8.182  -1.714   2.064  0.00  0.00    -0.363 N 
ATOM     13  C19 <0> d          -5.380  -1.808   4.269  0.00  0.00     0.016 A 
ATOM     14  C24 <0> d          -7.958  -2.336   4.184  0.00  0.00     0.061 A 
ATOM     15  C18 <0> d          -4.329  -1.350   3.533  0.00  0.00     0.018 A 
ATOM     16  C23 <0> d          -8.827  -2.201   3.166  0.00  0.00     0.113 A 
ATOM     17 Cl1  <0> d          -8.318  -2.918   5.779  0.00  0.00    -0.082 Cl
ATOM     18  H2  <0> d          -8.600  -1.534   1.207  0.00  0.00     0.165 HD
ENDBRANCH   5   8
ENDBRANCH   2   4
ENDBRANCH   1   2
BRANCH   1  19
ATOM     19  N1  <0> d           0.207  -1.927   1.829  0.00  0.00    -0.355 N 
ATOM     20  C4  <0> d           1.243  -2.643   2.309  0.00  0.00     0.251 C 
ATOM     21  O1  <0> d           2.247  -2.076   2.696  0.00  0.00    -0.268 OA
ATOM     22  H8  <0> d          -0.593  -2.379   1.520  0.00  0.00     0.162 HD
BRANCH  20  23
ATOM     23  C5  <0> d           1.159  -4.117   2.364  0.00  0.00     0.032 A 
ATOM     24  C10 <0> d           2.232  -4.861   2.861  0.00  0.00     0.019 A 
ATOM     25  C9  <0> d           2.149  -6.234   2.917  0.00  0.00     0.031 A 
ATOM     26  C8  <0> d           1.002  -6.881   2.467  0.00  0.00     0.042 A 
ATOM     27  C7  <0> d          -0.065  -6.144   1.967  0.00  0.00     0.031 A 
ATOM     28  C6  <0> d           0.009  -4.770   1.914  0.00  0.00     0.019 A 
BRANCH  26  29
ATOM     29  N2  <0> d           0.923  -8.275   2.519  0.00  0.00    -0.290 N 
ATOM     30  C15 <0> d           1.342  -9.005   1.469  0.00  0.00     0.252 A 
ATOM     31  C14 <0> d           1.271 -10.408   1.514  0.00  0.00     0.075 A 
ATOM     32  O2  <0> d           1.788  -8.449   0.478  0.00  0.00    -0.268 OA
ATOM     33  C13 <0> d           0.765 -11.015   2.626  0.00  0.00     0.007 A 
ATOM     34  C12 <0> d           0.332 -10.227   3.702  0.00  0.00     0.018 A 
ATOM     35  C11 <0> d           0.419  -8.879   3.629  0.00  0.00     0.100 A 
ENDBRANCH  26  29
ENDBRANCH  20  23
ENDBRANCH   1  19
TORSDOF 6
