REMARK  6 active torsions:
REMARK  status: ('A' for Active; 'I' for Inactive)
REMARK    1  A    between atoms: C2_2  and  N1_3 
REMARK    2  A    between atoms: N1_3  and  C3_4 
REMARK       I    between atoms: N1_3  and  C15_16 
REMARK    3  A    between atoms: C3_4  and  C4_5 
REMARK    4  A    between atoms: C9_10  and  N4_27 
REMARK    5  A    between atoms: C15_16  and  C16_18 
REMARK    6  A    between atoms: C16_18  and  C17_19 
ROOT
ATOM      1  C4  <0> d           7.902  -3.310  -2.155  0.00  0.00     0.007 C 
ATOM      2  C5  <0> d           7.573  -1.857  -1.798  0.00  0.00     0.034 C 
ATOM      3  C6  <0> d           8.865  -1.121  -1.435  0.00  0.00     0.235 C 
ATOM      4  C7  <0> d          10.162  -2.552  -2.899  0.00  0.00     0.235 C 
ATOM      5  C8  <0> d           8.909  -3.330  -3.308  0.00  0.00     0.034 C 
ATOM      6  N4  <0> d           9.781  -1.156  -2.594  0.00  0.00    -0.067 N 
ATOM      7  H34 <0> d           9.302  -0.756  -3.409  0.00  0.00     0.280 HD
ENDROOT
BRANCH   1   8
ATOM      8  C3  <0> d           6.623  -4.034  -2.579  0.00  0.00     0.130 C 
BRANCH   8   9
ATOM      9  N1  <0> d           5.707  -4.116  -1.440  0.00  0.00    -0.352 N 
ATOM     10  C15 <0> d           4.810  -3.133  -1.224  0.00  0.00     0.225 C 
ATOM     11  O1  <0> d           4.761  -2.181  -1.974  0.00  0.00    -0.273 OA
BRANCH   9  12
ATOM     12  C2  <0> d           5.765  -5.266  -0.534  0.00  0.00     0.121 C 
ATOM     13  C1  <0> d           4.825  -6.362  -1.040  0.00  0.00     0.026 C 
ENDBRANCH   9  12
BRANCH  10  14
ATOM     14  C16 <0> d           3.867  -3.217  -0.052  0.00  0.00     0.163 C 
BRANCH  14  15
ATOM     15  C17 <0> d           2.974  -2.003  -0.037  0.00  0.00     0.062 A 
ATOM     16  N3  <0> d           3.386  -0.726  -0.034  0.00  0.00    -0.227 NA
ATOM     17  C21 <0> d           2.343   0.054  -0.020  0.00  0.00     0.177 A 
ATOM     18  N2  <0> d           1.195  -0.694  -0.013  0.00  0.00    -0.309 N 
ATOM     19  S1  <0> d           1.726   1.720  -0.005  0.00  0.00    -0.062 SA
ATOM     20  C18 <0> d           1.631  -2.016  -0.024  0.00  0.00     0.126 A 
ATOM     21  C19 <0> d           0.002  -0.004   0.002  0.00  0.00     0.106 A 
ATOM     22  C20 <0> d          -0.016   1.328   0.009  0.00  0.00     0.071 A 
ENDBRANCH  14  15
ENDBRANCH  10  14
ENDBRANCH   8   9
ENDBRANCH   1   8
BRANCH   6  23
ATOM     23  C9  <0> d          10.989  -0.355  -2.307  0.00  0.00     0.191 C 
ATOM     24  C13 <0> d          10.578   1.104  -2.091  0.00  0.00     0.061 C 
ATOM     25  C12 <0> d          11.819   1.935  -1.757  0.00  0.00     0.236 C 
ATOM     26  N5  <0> d          12.434   1.403  -0.523  0.00  0.00    -0.075 N 
ATOM     27  C11 <0> d          12.900   0.017  -0.744  0.00  0.00     0.236 C 
ATOM     28  C14 <0> d          13.569   2.258  -0.116  0.00  0.00     0.269 C 
ATOM     29  H35 <0> d          11.732   1.402   0.226  0.00  0.00     0.279 HD
ATOM     30  C10 <0> d          11.692  -0.871  -1.048  0.00  0.00     0.061 C 
ENDBRANCH   6  23
TORSDOF 6
