REMARK  9 active torsions:
REMARK  status: ('A' for Active; 'I' for Inactive)
REMARK    1  A    between atoms: C5_5  and  N2_12 
REMARK    2  A    between atoms: C7_7  and  S1_8 
REMARK    3  A    between atoms: S1_8  and  N1_11 
REMARK       I    between atoms: N2_12  and  C8_13 
REMARK    4  A    between atoms: C8_13  and  C9_15 
REMARK    5  A    between atoms: C9_15  and  C10_16 
REMARK    6  A    between atoms: C9_15  and  N3_20 
REMARK    7  A    between atoms: C10_16  and  C11_17 
REMARK    8  A    between atoms: C11_17  and  S2_18 
REMARK       I    between atoms: N3_20  and  C13_21 
REMARK    9  A    between atoms: C13_21  and  C14_23 
ROOT
ATOM      1  N2  <0> d          -1.199  -0.722   0.009  0.00  0.00    -0.325 N 
ATOM      2  C8  <0> d          -1.183  -2.065  -0.100  0.00  0.00     0.245 C 
ATOM      3  O3  <0> d          -0.125  -2.659  -0.113  0.00  0.00    -0.271 OA
ATOM      4  H10 <0> d          -2.158  -0.189   0.098  0.00  0.00     0.169 HD
ENDROOT
BRANCH   2   5
ATOM      5  C9  <0> d          -2.477  -2.828  -0.206  0.00  0.00     0.178 C 
BRANCH   5   6
ATOM      6  C10 <0> d          -3.242  -2.366  -1.448  0.00  0.00     0.045 C 
BRANCH   6   7
ATOM      7  C11 <0> d          -4.610  -3.050  -1.488  0.00  0.00     0.076 C 
BRANCH   7   8
ATOM      8  S2  <0> d          -5.517  -2.502  -2.960  0.00  0.00    -0.173 SA
ATOM      9  C12 <0> d          -7.095  -3.391  -2.861  0.00  0.00     0.089 C 
ENDBRANCH   7   8
ENDBRANCH   6   7
ENDBRANCH   5   6
BRANCH   5  10
ATOM     10  N3  <0> d          -2.192  -4.261  -0.313  0.00  0.00    -0.342 N 
ATOM     11  C13 <0> d          -3.114  -5.163   0.077  0.00  0.00     0.276 C 
ATOM     12  O4  <0> d          -4.184  -4.787   0.519  0.00  0.00    -0.265 OA
ATOM     13  H18 <0> d          -1.225  -4.601  -0.713  0.00  0.00     0.163 HD
BRANCH  11  14
ATOM     14  C14 <0> d          -2.829  -6.598  -0.030  0.00  0.00     0.142 A 
ATOM     15  O5  <0> d          -1.691  -7.146  -0.505  0.00  0.00    -0.317 OA
ATOM     16  C17 <0> d          -1.785  -8.481  -0.451  0.00  0.00     0.143 A 
ATOM     17  C16 <0> d          -2.993  -8.812   0.055  0.00  0.00     0.027 A 
ATOM     18  C15 <0> d          -3.669  -7.612   0.328  0.00  0.00     0.045 A 
ENDBRANCH  11  14
ENDBRANCH   5  10
ENDBRANCH   2   5
BRANCH   1  19
ATOM     19  C5  <0> d           0.003  -0.005   0.010  0.00  0.00     0.036 A 
ATOM     20  C4  <0> d           1.135  -0.545   0.606  0.00  0.00     0.030 A 
ATOM     21  C3  <0> d           2.319   0.165   0.604  0.00  0.00     0.010 A 
ATOM     22  C2  <0> d           2.379   1.412   0.010  0.00  0.00    -0.039 A 
ATOM     23  C1  <0> d           3.674   2.184   0.009  0.00  0.00     0.050 C 
ATOM     24  C7  <0> d           1.254   1.953  -0.584  0.00  0.00     0.082 A 
ATOM     25  C6  <0> d           0.066   1.248  -0.586  0.00  0.00     0.054 A 
BRANCH  24  26
ATOM     26  S1  <0> d           1.335   3.542  -1.340  0.00  0.00     0.239 S 
ATOM     27  O1  <0> d           2.480   3.534  -2.182  0.00  0.00    -0.206 OA
ATOM     28  O2  <0> d           0.031   3.826  -1.830  0.00  0.00    -0.206 OA
BRANCH  26  29
ATOM     29  N1  <0> d           1.639   4.641  -0.139  0.00  0.00    -0.225 NA
ATOM     30  H8  <0> d           1.697   5.651  -0.572  0.00  0.00     0.136 HD
ATOM     31  H9  <0> d           2.593   4.396   0.349  0.00  0.00     0.136 HD
ENDBRANCH  26  29
ENDBRANCH  24  26
ENDBRANCH   1  19
TORSDOF 9
