REMARK  4 active torsions:
REMARK  status: ('A' for Active; 'I' for Inactive)
REMARK    1  A    between atoms: C3_3  and  C10_13 
REMARK    2  A    between atoms: C5_5  and  N1_7 
REMARK    3  A    between atoms: N3_15  and  S1_16 
REMARK    4  A    between atoms: S1_16  and  C11_19 
ROOT
ATOM      1  C10 <0> d           3.657   2.172   0.009  0.00  0.00     0.222 C 
ATOM      2  O2  <0> d           4.838   1.514   0.009  0.00  0.00    -0.169 OA
ATOM      3  N3  <0> d           3.637   3.472   0.016  0.00  0.00    -0.131 NA
ENDROOT
BRANCH   1   4
ATOM      4  C3  <0> d           2.387   1.412   0.002  0.00  0.00     0.022 A 
ATOM      5  C2  <0> d           1.167   2.089   0.002  0.00  0.00     0.016 A 
ATOM      6  C1  <0> d          -0.017   1.378  -0.006  0.00  0.00     0.003 A 
ATOM      7  C6  <0> d           0.002  -0.004  -0.014  0.00  0.00     0.030 A 
ATOM      8  C5  <0> d           1.212  -0.687  -0.013  0.00  0.00     0.039 A 
ATOM      9  C4  <0> d           2.406   0.018  -0.006  0.00  0.00     0.045 A 
BRANCH   8  10
ATOM     10  N1  <0> d           1.226  -2.087  -0.021  0.00  0.00    -0.298 N 
ATOM     11  C9  <0> d           2.321  -2.851  -0.132  0.00  0.00     0.323 A 
ATOM     12  N2  <0> d           2.068  -4.167  -0.109  0.00  0.00    -0.341 N 
ATOM     13  O1  <0> d           3.442  -2.393  -0.239  0.00  0.00    -0.247 OA
ATOM     14  C8  <0> d           0.619  -4.378   0.024  0.00  0.00     0.144 A 
ATOM     15  H9  <0> d           2.735  -4.868  -0.174  0.00  0.00     0.164 HD
ATOM     16  C7  <0> d           0.042  -2.951   0.084  0.00  0.00     0.153 A 
ENDBRANCH   8  10
ENDBRANCH   1   4
BRANCH   3  17
ATOM     17  S1  <0> d           5.058   4.322   0.025  0.00  0.00     0.285 S 
ATOM     18  O3  <0> d           5.686   4.051   1.270  0.00  0.00    -0.198 OA
ATOM     19  O4  <0> d           5.693   4.064  -1.220  0.00  0.00    -0.198 OA
BRANCH  17  20
ATOM     20  C11 <0> d           4.641   6.034   0.032  0.00  0.00     0.082 A 
ATOM     21  C16 <0> d           4.473   6.700   1.228  0.00  0.00     0.033 A 
ATOM     22  C15 <0> d           4.150   8.051   1.245  0.00  0.00    -0.050 A 
ATOM     23  C14 <0> d           3.989   8.728   0.057  0.00  0.00    -0.052 A 
ATOM     24  C17 <0> d           3.974   8.713   2.586  0.00  0.00     0.039 C 
ATOM     25  C13 <0> d           4.151   8.053  -1.147  0.00  0.00     0.009 A 
ATOM     26  C20 <0> d           3.644  10.193  -0.001  0.00  0.00     0.039 C 
ATOM     27  C12 <0> d           4.474   6.712  -1.161  0.00  0.00     0.026 A 
ATOM     28  C19 <0> d           3.081  10.665   1.338  0.00  0.00     0.005 C 
ATOM     29  C18 <0> d           4.047  10.233   2.448  0.00  0.00     0.005 C 
ENDBRANCH  17  20
ENDBRANCH   3  17
TORSDOF 4
