REMARK  6 active torsions:
REMARK  status: ('A' for Active; 'I' for Inactive)
REMARK    1  A    between atoms: N2_7  and  C5_8 
REMARK    2  A    between atoms: C8_11  and  C11_14 
REMARK    3  A    between atoms: C11_14  and  N3_16 
REMARK       I    between atoms: N3_16  and  C13_17 
REMARK       I    between atoms: C13_17  and  N4_19 
REMARK    4  A    between atoms: N4_19  and  C14_20 
REMARK    5  A    between atoms: C17_23  and  C20_26 
REMARK    6  A    between atoms: C20_26  and  S1_27 
ROOT
ATOM      1  C11 <0> d           6.060   0.470   2.661  0.00  0.00     0.115 C 
ATOM      2  C12 <0> d           6.912  -0.742   2.280  0.00  0.00     0.037 C 
ENDROOT
BRANCH   1   3
ATOM      3  C8  <0> d           4.625   0.218   2.273  0.00  0.00    -0.036 A 
ATOM      4  C7  <0> d           4.119   0.766   1.109  0.00  0.00     0.011 A 
ATOM      5  C6  <0> d           2.805   0.537   0.750  0.00  0.00     0.030 A 
ATOM      6  C5  <0> d           1.992  -0.245   1.561  0.00  0.00     0.039 A 
ATOM      7  C10 <0> d           2.502  -0.789   2.732  0.00  0.00     0.030 A 
ATOM      8  C9  <0> d           3.819  -0.561   3.082  0.00  0.00     0.011 A 
BRANCH   6   9
ATOM      9  N2  <0> d           0.660  -0.479   1.201  0.00  0.00    -0.294 N 
ATOM     10  C2  <0> d           0.001   0.038  -0.008  0.00  0.00     0.108 A 
ATOM     11  C1  <0> d          -0.009   1.568  -0.002  0.00  0.00     0.034 C 
ATOM     12  C3  <0> d          -1.435  -0.513   0.087  0.00  0.00     0.149 A 
ATOM     13  N1  <0> d          -1.436  -1.281   1.341  0.00  0.00    -0.341 N 
ATOM     14  C4  <0> d          -0.222  -1.208   1.902  0.00  0.00     0.323 A 
ATOM     15  H8  <0> d          -2.195  -1.764   1.704  0.00  0.00     0.164 HD
ATOM     16  O1  <0> d           0.057  -1.756   2.951  0.00  0.00    -0.247 OA
ENDBRANCH   6   9
ENDBRANCH   1   3
BRANCH   1  17
ATOM     17  N3  <0> d           6.143   0.691   4.107  0.00  0.00    -0.335 N 
ATOM     18  C13 <0> d           7.162   1.407   4.622  0.00  0.00     0.321 C 
ATOM     19  O2  <0> d           8.011   1.871   3.886  0.00  0.00    -0.247 OA
ATOM     20  N4  <0> d           7.238   1.610   5.952  0.00  0.00    -0.309 N 
ATOM     21  H17 <0> d           6.526   1.298   6.532  0.00  0.00     0.170 HD
ATOM     22  H16 <0> d           5.465   0.321   4.694  0.00  0.00     0.165 HD
BRANCH  20  23
ATOM     23  C14 <0> d           8.345   2.270   6.497  0.00  0.00     0.036 A 
ATOM     24  C19 <0> d           8.956   3.301   5.794  0.00  0.00     0.030 A 
ATOM     25  C18 <0> d          10.045   3.954   6.337  0.00  0.00     0.010 A 
ATOM     26  C17 <0> d          10.535   3.575   7.573  0.00  0.00    -0.049 A 
ATOM     27  C16 <0> d           9.933   2.546   8.273  0.00  0.00     0.010 A 
ATOM     28  C15 <0> d           8.840   1.892   7.738  0.00  0.00     0.030 A 
BRANCH  26  29
ATOM     29  C20 <0> d          11.727   4.286   8.159  0.00  0.00     0.112 C 
BRANCH  29  30
ATOM     30  S1  <0> d          13.248   3.447   7.637  0.00  0.00    -0.169 SA
ATOM     31  C21 <0> d          14.572   4.412   8.416  0.00  0.00     0.090 C 
ENDBRANCH  29  30
ENDBRANCH  26  29
ENDBRANCH  20  23
ENDBRANCH   1  17
TORSDOF 6
