REMARK  5 active torsions:
REMARK  status: ('A' for Active; 'I' for Inactive)
REMARK    1  A    between atoms: C7_7  and  N1_9 
REMARK       I    between atoms: N1_9  and  C9_10 
REMARK    2  A    between atoms: C9_10  and  C10_12 
REMARK       I    between atoms: C10_12  and  N2_14 
REMARK    3  A    between atoms: N2_14  and  C11_15 
REMARK    4  A    between atoms: C11_15  and  C12_16 
REMARK    5  A    between atoms: C16_20  and  N3_22 
ROOT
ATOM      1  C1  <0> d          -3.447   4.437  -2.306  0.00  0.00     0.018 C 
ATOM      2  C2  <0> d          -2.556   4.016  -1.669  0.00  0.00    -0.078 C 
ATOM      3  C3  <0> d          -1.468   3.503  -0.891  0.00  0.00     0.019 A 
ATOM      4  C4  <0> d          -1.628   2.328  -0.154  0.00  0.00     0.021 A 
ATOM      5  C5  <0> d          -0.579   1.835   0.595  0.00  0.00     0.004 A 
ATOM      6  C6  <0> d           0.632   2.500   0.618  0.00  0.00     0.029 A 
ATOM      7  C7  <0> d           0.801   3.671  -0.112  0.00  0.00     0.036 A 
ATOM      8  C8  <0> d          -0.246   4.172  -0.871  0.00  0.00     0.050 A 
ENDROOT
BRANCH   7   9
ATOM      9  N1  <0> d           2.028   4.340  -0.085  0.00  0.00    -0.319 N 
ATOM     10  C9  <0> d           2.064   5.685  -0.175  0.00  0.00     0.313 C 
ATOM     11  O1  <0> d           1.030   6.320  -0.185  0.00  0.00    -0.262 OA
ATOM     12  H6  <0> d           2.853   3.838  -0.001  0.00  0.00     0.169 HD
BRANCH  10  13
ATOM     13  C10 <0> d           3.376   6.392  -0.262  0.00  0.00     0.309 C 
ATOM     14  O2  <0> d           4.410   5.757  -0.251  0.00  0.00    -0.262 OA
ATOM     15  N2  <0> d           3.412   7.737  -0.352  0.00  0.00    -0.349 N 
ATOM     16  H7  <0> d           2.586   8.245  -0.361  0.00  0.00     0.163 HD
BRANCH  15  17
ATOM     17  C11 <0> d           4.699   8.431  -0.438  0.00  0.00     0.161 C 
BRANCH  17  18
ATOM     18  C12 <0> d           4.464   9.916  -0.529  0.00  0.00    -0.038 A 
ATOM     19  C17 <0> d           4.392  10.676   0.623  0.00  0.00     0.038 A 
ATOM     20  C16 <0> d           4.180  12.046   0.537  0.00  0.00     0.037 A 
ATOM     21  C15 <0> d           4.030  12.646  -0.706  0.00  0.00     0.030 A 
ATOM     22  C14 <0> d           4.097  11.880  -1.853  0.00  0.00     0.003 A 
ATOM     23  C13 <0> d           4.314  10.517  -1.766  0.00  0.00     0.009 A 
BRANCH  20  24
ATOM     24  N3  <0> d           4.113  12.818   1.702  0.00  0.00    -0.318 N 
ATOM     25  C22 <0> d           5.229  12.970   2.416  0.00  0.00     0.224 C 
ATOM     26  C21 <0> d           5.289  13.736   3.707  0.00  0.00     0.103 C 
ATOM     27  O3  <0> d           6.250  12.466   2.000  0.00  0.00    -0.273 OA
ATOM     28  C20 <0> d           4.056  14.633   3.840  0.00  0.00     0.011 C 
ATOM     29  C19 <0> d           2.810  13.792   3.539  0.00  0.00     0.021 C 
ATOM     30  C18 <0> d           2.827  13.402   2.061  0.00  0.00     0.132 C 
ENDBRANCH  20  24
ENDBRANCH  17  18
ENDBRANCH  15  17
ENDBRANCH  10  13
ENDBRANCH   7   9
TORSDOF 5
