REMARK  5 active torsions:
REMARK  status: ('A' for Active; 'I' for Inactive)
REMARK    1  A    between atoms: C6_8  and  C10_12 
REMARK    2  A    between atoms: N2_13  and  N3_14 
REMARK       I    between atoms: N3_14  and  C11_15 
REMARK    3  A    between atoms: C11_15  and  C12_17 
REMARK    4  A    between atoms: C12_17  and  N4_18 
REMARK       I    between atoms: N4_18  and  C13_19 
REMARK    5  A    between atoms: C13_19  and  C14_21 
ROOT
ATOM      1  N3  <0> d           3.002  -5.642  -2.272  0.00  0.00    -0.246 N 
ATOM      2  C11 <0> d           3.085  -6.981  -2.137  0.00  0.00     0.255 C 
ATOM      3  O2  <0> d           3.084  -7.481  -1.032  0.00  0.00    -0.270 OA
ATOM      4  H8  <0> d           3.002  -5.242  -3.155  0.00  0.00     0.192 HD
ENDROOT
BRANCH   2   5
ATOM      5  C12 <0> d           3.179  -7.856  -3.360  0.00  0.00     0.227 C 
BRANCH   5   6
ATOM      6  N4  <0> d           3.259  -9.260  -2.951  0.00  0.00    -0.348 N 
ATOM      7  C13 <0> d           3.350 -10.230  -3.882  0.00  0.00     0.260 C 
ATOM      8  O3  <0> d           3.367  -9.939  -5.064  0.00  0.00    -0.267 OA
ATOM      9  H11 <0> d           3.245  -9.492  -2.009  0.00  0.00     0.163 HD
BRANCH   7  10
ATOM     10  C14 <0> d           3.429 -11.637  -3.472  0.00  0.00     0.096 A 
ATOM     11  S1  <0> d           3.424 -12.316  -1.822  0.00  0.00    -0.082 SA
ATOM     12  C21 <0> d           3.546 -14.035  -2.249  0.00  0.00     0.017 A 
ATOM     13  C16 <0> d           3.595 -14.020  -3.663  0.00  0.00     0.004 A 
ATOM     14  C20 <0> d           3.598 -15.207  -1.525  0.00  0.00     0.020 A 
ATOM     15  C15 <0> d           3.531 -12.745  -4.256  0.00  0.00     0.068 A 
ATOM     16  C17 <0> d           3.702 -15.282  -4.303  0.00  0.00     0.014 A 
ATOM     17 Cl1  <0> d           3.581 -12.586  -5.984  0.00  0.00    -0.082 Cl
ATOM     18  C18 <0> d           3.752 -16.428  -3.576  0.00  0.00     0.001 A 
ATOM     19  C19 <0> d           3.701 -16.412  -2.188  0.00  0.00     0.001 A 
ENDBRANCH   7  10
ENDBRANCH   5   6
ENDBRANCH   2   5
BRANCH   1  20
ATOM     20  N2  <0> d           2.914  -4.828  -1.135  0.00  0.00    -0.188 NA
ATOM     21  C10 <0> d           2.835  -3.557  -1.262  0.00  0.00     0.129 C 
BRANCH  21  22
ATOM     22  C6  <0> d           2.741  -2.681  -0.039  0.00  0.00     0.144 A 
ATOM     23  C5  <0> d           3.929  -1.747  -0.045  0.00  0.00     0.235 A 
ATOM     24  N1  <0> d           3.736  -0.439  -0.035  0.00  0.00    -0.326 N 
ATOM     25  O1  <0> d           5.060  -2.197  -0.058  0.00  0.00    -0.272 OA
ATOM     26  C4  <0> d           2.524   0.117  -0.021  0.00  0.00     0.044 A 
ATOM     27  H16 <0> d           4.511   0.143  -0.039  0.00  0.00     0.169 HD
ATOM     28  C3  <0> d           2.394   1.518  -0.013  0.00  0.00     0.030 A 
ATOM     29  C8  <0> d           1.294  -0.692  -0.014  0.00  0.00    -0.012 A 
ATOM     30  C2  <0> d           1.165   2.097   0.002  0.00  0.00     0.002 A 
ATOM     31  C1  <0> d          -0.016   1.354   0.009  0.00  0.00     0.001 A 
ATOM     32  C9  <0> d           0.002  -0.004   0.002  0.00  0.00     0.013 A 
ATOM     33  C7  <0> d           1.361  -2.054  -0.022  0.00  0.00     0.006 A 
ENDBRANCH  21  22
ENDBRANCH   1  20
TORSDOF 5
