REMARK  3 active torsions:
REMARK  status: ('A' for Active; 'I' for Inactive)
REMARK    1  A    between atoms: N1_5  and  C5_7 
REMARK    2  A    between atoms: C11_18  and  C12_19 
REMARK    3  A    between atoms: C15_22  and  C18_25 
ROOT
ATOM      1  C1  <0> d           0.311   1.787  -0.297  0.00  0.00     0.073 C 
ATOM      2  C2  <0> d           0.558   0.305  -0.183  0.00  0.00     0.063 A 
ATOM      3  C3  <0> d           0.437  -0.631  -1.233  0.00  0.00     0.033 A 
ATOM      4  C4  <0> d           0.741  -1.849  -0.737  0.00  0.00     0.160 A 
ATOM      5  N1  <0> d           1.043  -1.677   0.597  0.00  0.00    -0.042 N 
ATOM      6  N2  <0> d           0.923  -0.321   0.899  0.00  0.00    -0.155 NA
ATOM      7  N5  <0> d           0.787  -3.092  -1.321  0.00  0.00    -0.310 N 
ATOM      8  C9  <0> d           0.520  -3.561  -2.503  0.00  0.00     0.232 C 
ATOM      9  O1  <0> d           0.590  -4.768  -2.600  0.00  0.00    -0.272 OA
ATOM     10  C10 <0> d           0.144  -2.858  -3.747  0.00  0.00     0.178 C 
ATOM     11  S1  <0> d          -0.953  -1.462  -3.461  0.00  0.00    -0.145 SA
ATOM     12  C11 <0> d           0.033  -0.223  -2.615  0.00  0.00     0.119 C 
ATOM     13  H8  <0> d           1.090  -3.779  -0.708  0.00  0.00     0.170 HD
ENDROOT
BRANCH  12  14
ATOM     14  C12 <0> d          -0.764   1.053  -2.530  0.00  0.00    -0.040 A 
ATOM     15  C17 <0> d          -0.202   2.248  -2.937  0.00  0.00     0.009 A 
ATOM     16  C16 <0> d          -0.934   3.418  -2.862  0.00  0.00     0.017 A 
ATOM     17  C15 <0> d          -2.227   3.394  -2.372  0.00  0.00     0.047 A 
ATOM     18  C14 <0> d          -2.787   2.200  -1.960  0.00  0.00     0.017 A 
ATOM     19  C13 <0> d          -2.056   1.029  -2.038  0.00  0.00     0.009 A 
BRANCH  17  20
ATOM     20  C18 <0> d          -3.024   4.670  -2.287  0.00  0.00     0.417 C 
ATOM     21  F1  <0> d          -2.812   5.270  -1.041  0.00  0.00    -0.166 F 
ATOM     22  F2  <0> d          -2.616   5.543  -3.301  0.00  0.00    -0.166 F 
ATOM     23  F3  <0> d          -4.384   4.381  -2.440  0.00  0.00    -0.166 F 
ENDBRANCH  17  20
ENDBRANCH  12  14
BRANCH   5  24
ATOM     24  C5  <0> d           1.409  -2.684   1.489  0.00  0.00     0.750 A 
ATOM     25  N4  <0> d           1.367  -3.946   1.092  0.00  0.00    -0.073 NA
ATOM     26  C8  <0> d           1.713  -4.925   1.911  0.00  0.00     0.138 A 
ATOM     27  C7  <0> d           2.112  -4.617   3.202  0.00  0.00     0.040 A 
ATOM     28  C6  <0> d           2.138  -3.285   3.587  0.00  0.00     0.138 A 
ATOM     29  N3  <0> d           1.785  -2.355   2.715  0.00  0.00    -0.073 NA
ENDBRANCH   5  24
TORSDOF 3
