REMARK  4 active torsions:
REMARK  status: ('A' for Active; 'I' for Inactive)
REMARK    1  A    between atoms: N2_8  and  C11_14 
REMARK    2  A    between atoms: C7_9  and  C8_11 
REMARK    3  A    between atoms: C11_14  and  C12_15 
REMARK    4  A    between atoms: C15_18  and  N4_21 
ROOT
ATOM      1  C1  <0> d          -0.018   1.503   0.010  0.00  0.00     0.049 C 
ATOM      2  C2  <0> d           0.002  -0.004   0.002  0.00  0.00    -0.042 A 
ATOM      3  C3  <0> d           0.006  -0.693  -1.196  0.00  0.00     0.043 A 
ATOM      4  C4  <0> d           0.025  -2.090  -1.153  0.00  0.00     0.105 A 
ATOM      5  C5  <0> d           0.040  -2.734   0.097  0.00  0.00     0.160 A 
ATOM      6  N1  <0> d           0.036  -2.025   1.214  0.00  0.00    -0.240 NA
ATOM      7  C6  <0> d           0.023  -0.708   1.196  0.00  0.00     0.126 A 
ATOM      8  N2  <0> d           0.056  -4.085  -0.175  0.00  0.00    -0.313 N 
ATOM      9  C7  <0> d           0.051  -4.228  -1.529  0.00  0.00     0.112 A 
ATOM     10  N3  <0> d           0.033  -3.060  -2.102  0.00  0.00    -0.231 NA
ENDROOT
BRANCH   8  11
ATOM     11  C11 <0> d           0.076  -5.168   0.811  0.00  0.00     0.170 C 
BRANCH  11  12
ATOM     12  C12 <0> d          -1.338  -5.559   1.156  0.00  0.00    -0.040 A 
ATOM     13  C17 <0> d          -1.979  -6.544   0.428  0.00  0.00     0.011 A 
ATOM     14  C16 <0> d          -3.273  -6.909   0.745  0.00  0.00     0.029 A 
ATOM     15  C15 <0> d          -3.934  -6.276   1.789  0.00  0.00     0.025 A 
ATOM     16  C14 <0> d          -3.290  -5.282   2.515  0.00  0.00     0.029 A 
ATOM     17  C13 <0> d          -1.994  -4.927   2.196  0.00  0.00     0.011 A 
BRANCH  15  18
ATOM     18  N4  <0> d          -5.245  -6.639   2.110  0.00  0.00    -0.399 N 
ATOM     19  H19 <0> d          -5.706  -6.196   2.839  0.00  0.00     0.156 HD
ATOM     20  H20 <0> d          -5.694  -7.333   1.602  0.00  0.00     0.156 HD
ENDBRANCH  15  18
ENDBRANCH  11  12
ENDBRANCH   8  11
BRANCH   9  21
ATOM     21  C8  <0> d           0.066  -5.547  -2.258  0.00  0.00     0.047 C 
ATOM     22  C9  <0> d          -1.186  -5.662  -3.130  0.00  0.00     0.017 C 
ATOM     23  C10 <0> d           1.312  -5.628  -3.142  0.00  0.00     0.017 C 
ENDBRANCH   9  21
TORSDOF 4
