REMARK  6 active torsions:
REMARK  status: ('A' for Active; 'I' for Inactive)
REMARK    1  A    between atoms: C2_2  and  O2_4 
REMARK    2  A    between atoms: O2_4  and  C3_5 
REMARK    3  A    between atoms: C11_14  and  O6_30 
REMARK    4  A    between atoms: C18_21  and  N2_29 
REMARK    5  A    between atoms: C19_22  and  N1_28 
REMARK    6  A    between atoms: O6_30  and  C23_31 
ROOT
ATOM      1  C3  <0> d           1.404  -0.641   0.121  0.00  0.00     0.081 A 
ATOM      2  C4  <0> d           0.176  -0.000   0.197  0.00  0.00     0.038 A 
ATOM      3  C5  <0> d           0.113   1.378   0.145  0.00  0.00     0.016 A 
ATOM      4  C6  <0> d           1.271   2.126   0.017  0.00  0.00     0.020 A 
ATOM      5  C7  <0> d           2.500   1.490  -0.059  0.00  0.00     0.088 A 
ATOM      6  C8  <0> d           2.565   0.103  -0.007  0.00  0.00     0.075 A 
ATOM      7  O3  <0> d           3.646   2.201  -0.187  0.00  0.00    -0.309 OA
ATOM      8  C9  <0> d           3.679   3.509   0.163  0.00  0.00     0.088 A 
ATOM      9  C10 <0> d           4.904   4.107   0.436  0.00  0.00     0.075 A 
ATOM     10  C11 <0> d           4.959   5.444   0.794  0.00  0.00     0.081 A 
ATOM     11  C12 <0> d           3.789   6.186   0.881  0.00  0.00     0.038 A 
ATOM     12  C13 <0> d           2.573   5.590   0.610  0.00  0.00     0.016 A 
ATOM     13  C14 <0> d           2.514   4.254   0.252  0.00  0.00     0.020 A 
ATOM     14  C15 <0> d           1.177   3.627  -0.037  0.00  0.00     0.159 A 
ATOM     15  C16 <0> d           0.670   4.069  -1.374  0.00  0.00     0.005 A 
ATOM     16  C17 <0> d           1.179   3.915  -2.643  0.00  0.00     0.043 A 
ATOM     17  C18 <0> d           0.437   4.460  -3.695  0.00  0.00     0.052 A 
ATOM     18  C19 <0> d          -0.766   5.130  -3.470  0.00  0.00     0.053 A 
ATOM     19  C20 <0> d          -1.285   5.289  -2.192  0.00  0.00     0.049 A 
ATOM     20  C21 <0> d          -0.543   4.745  -1.136  0.00  0.00     0.051 A 
ATOM     21  C22 <0> d          -0.795   4.733   0.301  0.00  0.00     0.295 A 
ATOM     22  O4  <0> d          -1.762   5.233   0.842  0.00  0.00    -0.259 OA
ATOM     23  O5  <0> d           0.200   4.088   0.942  0.00  0.00    -0.291 OA
ENDROOT
BRANCH  17  24
ATOM     24  N2  <0> d           0.910   4.331  -4.998  0.00  0.00    -0.397 N 
ATOM     25  H14 <0> d           0.337   4.755  -5.836  0.00  0.00     0.156 HD
ATOM     26  H15 <0> d           1.858   3.805  -5.190  0.00  0.00     0.156 HD
ENDBRANCH  17  24
BRANCH   1  27
ATOM     27  O2  <0> d           1.468  -1.998   0.173  0.00  0.00    -0.279 OA
BRANCH  27  28
ATOM     28  C2  <0> d           2.013  -2.542   1.273  0.00  0.00     0.260 C 
ATOM     29  C1  <0> d           2.238  -4.030   1.346  0.00  0.00     0.126 C 
ATOM     30  O1  <0> d           2.324  -1.837   2.204  0.00  0.00    -0.265 OA
ENDBRANCH  27  28
ENDBRANCH   1  27
BRANCH  10  31
ATOM     31  O6  <0> d           6.157   6.028   1.061  0.00  0.00    -0.279 OA
BRANCH  31  32
ATOM     32  C23 <0> d           6.932   6.337   0.010  0.00  0.00     0.260 C 
ATOM     33  O7  <0> d           6.596   6.014  -1.105  0.00  0.00    -0.265 OA
ATOM     34  C24 <0> d           8.223   7.087   0.220  0.00  0.00     0.126 C 
ENDBRANCH  31  32
ENDBRANCH  10  31
BRANCH  18  35
ATOM     35  N1  <0> d          -1.468   5.655  -4.562  0.00  0.00    -0.397 N 
ATOM     36  H12 <0> d          -2.418   6.186  -4.401  0.00  0.00     0.156 HD
ATOM     37  H13 <0> d          -1.069   5.537  -5.581  0.00  0.00     0.156 HD
ENDBRANCH  18  35
TORSDOF 6
