REMARK  5 active torsions:
REMARK  status: ('A' for Active; 'I' for Inactive)
REMARK    1  A    between atoms: C7_8  and  C10_11 
REMARK    2  A    between atoms: C10_11  and  C11_12 
REMARK    3  A    between atoms: C11_12  and  N2_13 
REMARK    4  A    between atoms: N2_13  and  C12_14 
REMARK    5  A    between atoms: N3_18  and  C16_21 
ROOT
ATOM      1  N2  <0> d          -1.175  -2.429   5.887  0.00  0.00    -0.061 N 
ATOM      2  H14 <0> d          -0.684  -3.174   6.358  0.00  0.00     0.278 HD
ATOM      3  H27 <0> d          -0.853  -1.540   6.237  0.00  0.00     0.278 HD
ENDROOT
BRANCH   1   4
ATOM      4  C11 <0> d          -0.917  -2.510   4.443  0.00  0.00     0.237 C 
BRANCH   4   5
ATOM      5  C10 <0> d           0.585  -2.374   4.185  0.00  0.00     0.064 C 
BRANCH   5   6
ATOM      6  C7  <0> d           0.851  -2.456   2.704  0.00  0.00    -0.048 A 
ATOM      7  C6  <0> d           1.031  -3.712   1.881  0.00  0.00     0.155 A 
ATOM      8  N1  <0> d           1.262  -3.262   0.505  0.00  0.00    -0.385 N 
ATOM      9  C5  <0> d           1.230  -1.951   0.483  0.00  0.00     0.038 A 
ATOM     10  H26 <0> d           1.413  -3.837  -0.262  0.00  0.00     0.160 HD
ATOM     11  C4  <0> d           1.392  -1.018  -0.578  0.00  0.00     0.030 A 
ATOM     12  C8  <0> d           0.975  -1.422   1.841  0.00  0.00    -0.005 A 
ATOM     13  C3  <0> d           1.313   0.308  -0.338  0.00  0.00     0.009 A 
ATOM     14  C2  <0> d           1.072   0.833   0.940  0.00  0.00    -0.061 A 
ATOM     15  C1  <0> d           0.999   2.328   1.117  0.00  0.00     0.048 C 
ATOM     16  C9  <0> d           0.909   0.034   2.018  0.00  0.00     0.020 A 
ENDBRANCH   5   6
ENDBRANCH   4   5
ENDBRANCH   1   4
BRANCH   1  17
ATOM     17  C12 <0> d          -2.617  -2.560   6.134  0.00  0.00     0.286 A 
ATOM     18  C15 <0> d          -3.358  -1.346   5.617  0.00  0.00     0.262 A 
ATOM     19  N3  <0> d          -3.971  -0.737   6.645  0.00  0.00    -0.251 N 
ATOM     20  O2  <0> d          -3.391  -0.983   4.461  0.00  0.00    -0.270 OA
ATOM     21  C14 <0> d          -3.788  -1.330   7.831  0.00  0.00     0.233 A 
ATOM     22  C13 <0> d          -2.912  -2.550   7.648  0.00  0.00     0.146 A 
ATOM     23  O1  <0> d          -4.250  -0.950   8.885  0.00  0.00    -0.273 OA
BRANCH  19  24
ATOM     24  C16 <0> d          -4.741   0.423   6.487  0.00  0.00     0.045 A 
ATOM     25  C21 <0> d          -4.311   1.623   7.037  0.00  0.00     0.037 A 
ATOM     26  C20 <0> d          -5.069   2.767   6.875  0.00  0.00    -0.054 A 
ATOM     27  C19 <0> d          -6.262   2.714   6.177  0.00  0.00    -0.056 A 
ATOM     28  C22 <0> d          -4.599   4.071   7.466  0.00  0.00     0.049 C 
ATOM     29  C18 <0> d          -6.696   1.519   5.634  0.00  0.00     0.009 A 
ATOM     30  C23 <0> d          -7.089   3.962   6.008  0.00  0.00     0.049 C 
ATOM     31  C17 <0> d          -5.939   0.374   5.787  0.00  0.00     0.031 A 
ENDBRANCH  19  24
ENDBRANCH   1  17
TORSDOF 5
