REMARK  5 active torsions:
REMARK  status: ('A' for Active; 'I' for Inactive)
REMARK    1  A    between atoms: C5_5  and  O4_23 
REMARK    2  A    between atoms: C9_9  and  O3_22 
REMARK    3  A    between atoms: C12_12  and  O2_21 
REMARK    4  A    between atoms: O4_23  and  C20_24 
REMARK    5  A    between atoms: C20_24  and  O6_26 
ROOT
ATOM      1  C1  <0> d          -0.019   1.526   0.010  0.00  0.00     0.020 C 
ATOM      2  C2  <0> d           0.002  -0.004   0.002  0.00  0.00    -0.014 C 
ATOM      3  C3  <0> d          -1.446  -0.500   0.055  0.00  0.00     0.016 C 
ATOM      4  C4  <0> d          -2.086  -0.056   1.372  0.00  0.00     0.034 C 
ATOM      5  C5  <0> d          -1.348  -0.699   2.547  0.00  0.00     0.138 C 
ATOM      6  C6  <0> d           0.098  -0.193   2.579  0.00  0.00     0.067 C 
ATOM      7  C7  <0> d           0.733  -0.468   1.227  0.00  0.00    -0.070 C 
ATOM      8  C8  <0> d           1.873  -1.093   1.198  0.00  0.00     0.008 C 
ATOM      9  C9  <0> d           2.588  -1.430  -0.078  0.00  0.00     0.146 C 
ATOM     10  C10 <0> d           2.186  -0.424  -1.162  0.00  0.00     0.031 C 
ATOM     11  C11 <0> d           0.648  -0.462  -1.295  0.00  0.00     0.034 C 
ATOM     12  C12 <0> d           0.156   0.406  -2.450  0.00  0.00     0.124 C 
ATOM     13  C13 <0> d           0.839   0.031  -3.775  0.00  0.00     0.049 C 
ATOM     14  C14 <0> d           2.334   0.176  -3.563  0.00  0.00     0.023 C 
ATOM     15  C15 <0> d           2.789  -0.844  -2.492  0.00  0.00     0.009 C 
ATOM     16  C16 <0> d           4.319  -0.773  -2.578  0.00  0.00     0.013 C 
ATOM     17  C17 <0> d           4.564  -0.635  -4.105  0.00  0.00     0.079 C 
ATOM     18  C18 <0> d           3.216  -0.132  -4.737  0.00  0.00     0.135 C 
ATOM     19  O1  <0> d           2.963   0.048  -5.904  0.00  0.00    -0.297 OA
ATOM     20  C19 <0> d           2.647   1.577  -3.035  0.00  0.00     0.024 C 
ENDROOT
BRANCH   5  21
ATOM     21  O4  <0> d          -2.002  -0.351   3.768  0.00  0.00    -0.292 OA
BRANCH  21  22
ATOM     22  C20 <0> d          -2.976  -1.174   4.196  0.00  0.00     0.406 C 
ATOM     23  O5  <0> d          -3.264  -2.161   3.549  0.00  0.00    -0.230 OA
BRANCH  22  24
ATOM     24  O6  <0> d          -3.632  -0.904   5.339  0.00  0.00    -0.303 OA
ATOM     25  C21 <0> d          -4.655  -1.821   5.732  0.00  0.00     0.215 C 
ENDBRANCH  22  24
ENDBRANCH  21  22
ENDBRANCH   5  21
BRANCH   9  26
ATOM     26  O3  <0> d           4.000  -1.365   0.134  0.00  0.00    -0.391 OA
ATOM     27  H27 <0> d           4.324  -1.974   0.812  0.00  0.00     0.210 HD
ENDBRANCH   9  26
BRANCH  12  28
ATOM     28  O2  <0> d          -1.256   0.235  -2.592  0.00  0.00    -0.395 OA
ATOM     29  H26 <0> d          -1.645   0.756  -3.308  0.00  0.00     0.210 HD
ENDBRANCH  12  28
TORSDOF 5
