REMARK  10 active torsions:
REMARK  status: ('A' for Active; 'I' for Inactive)
REMARK    1  A    between atoms: N1_5  and  C7_8 
REMARK    2  A    between atoms: C7_8  and  C8_9 
REMARK    3  A    between atoms: C8_9  and  C9_10 
REMARK    4  A    between atoms: C8_9  and  O3_25 
REMARK    5  A    between atoms: C9_10  and  N2_11 
REMARK    6  A    between atoms: N2_11  and  C10_12 
REMARK    7  A    between atoms: C10_12  and  C11_13 
REMARK    8  A    between atoms: C15_17  and  O2_23 
REMARK    9  A    between atoms: C16_18  and  O1_19 
REMARK   10  A    between atoms: O1_19  and  C17_20 
ROOT
ATOM      1  N2  <0> d           0.412  -6.806   3.860  0.00  0.00    -0.069 N 
ATOM      2  H18 <0> d           1.331  -6.389   3.880  0.00  0.00     0.277 HD
ATOM      3  H36 <0> d          -0.163  -6.388   4.576  0.00  0.00     0.277 HD
ENDROOT
BRANCH   1   4
ATOM      4  C9  <0> d          -0.201  -6.576   2.545  0.00  0.00     0.265 C 
BRANCH   4   5
ATOM      5  C8  <0> d          -0.318  -5.072   2.292  0.00  0.00     0.169 C 
BRANCH   5   6
ATOM      6  C7  <0> d          -0.957  -4.832   0.922  0.00  0.00     0.268 C 
BRANCH   6   7
ATOM      7  N1  <0> d          -0.960  -3.393   0.628  0.00  0.00    -0.069 N 
ATOM      8  C4  <0> d          -1.679  -3.154  -0.629  0.00  0.00     0.235 C 
ATOM      9  C3  <0> d          -1.755  -1.650  -0.899  0.00  0.00     0.032 C 
ATOM     10  C2  <0> d          -0.336  -1.083  -1.004  0.00  0.00    -0.015 C 
ATOM     11  C1  <0> d          -0.404   0.434  -1.195  0.00  0.00     0.010 C 
ATOM     12  C6  <0> d           0.428  -1.403   0.283  0.00  0.00     0.032 C 
ATOM     13  C5  <0> d           0.423  -2.917   0.509  0.00  0.00     0.235 C 
ATOM     14  H35 <0> d          -1.421  -2.900   1.377  0.00  0.00     0.280 HD
ENDBRANCH   6   7
ENDBRANCH   5   6
BRANCH   5  15
ATOM     15  O3  <0> d          -1.132  -4.480   3.307  0.00  0.00    -0.392 OA
ATOM     16  H34 <0> d          -2.031  -4.833   3.346  0.00  0.00     0.210 HD
ENDBRANCH   5  15
ENDBRANCH   4   5
ENDBRANCH   1   4
BRANCH   1  17
ATOM     17  C10 <0> d           0.524  -8.250   4.102  0.00  0.00     0.273 C 
BRANCH  17  18
ATOM     18  C11 <0> d           1.251  -8.486   5.401  0.00  0.00     0.004 A 
ATOM     19  C16 <0> d           0.569  -8.394   6.603  0.00  0.00     0.110 A 
ATOM     20  C15 <0> d           1.242  -8.619   7.801  0.00  0.00     0.102 A 
ATOM     21  C14 <0> d           2.593  -8.922   7.786  0.00  0.00     0.039 A 
ATOM     22  C13 <0> d           3.269  -9.007   6.583  0.00  0.00     0.003 A 
ATOM     23  C12 <0> d           2.600  -8.790   5.394  0.00  0.00     0.012 A 
BRANCH  19  24
ATOM     24  O1  <0> d          -0.757  -8.090   6.613  0.00  0.00    -0.343 OA
BRANCH  24  25
ATOM     25  C17 <0> d          -1.107  -6.717   6.797  0.00  0.00     0.121 C 
ATOM     26  C18 <0> d          -2.372  -6.401   5.997  0.00  0.00     0.040 C 
ATOM     27  C19 <0> d          -1.362  -6.450   8.282  0.00  0.00     0.040 C 
ENDBRANCH  24  25
ENDBRANCH  19  24
BRANCH  20  28
ATOM     28  O2  <0> d           0.575  -8.536   8.983  0.00  0.00    -0.353 OA
ATOM     29  C20 <0> d           1.331  -8.773  10.172  0.00  0.00     0.210 C 
ENDBRANCH  20  28
ENDBRANCH  17  18
ENDBRANCH   1  17
TORSDOF 10
