REMARK  4 active torsions:
REMARK  status: ('A' for Active; 'I' for Inactive)
REMARK    1  A    between atoms: C2_2  and  O1_3 
REMARK    2  A    between atoms: O1_3  and  P1_4 
REMARK    3  A    between atoms: C7_12  and  S1_20 
REMARK    4  A    between atoms: S1_20  and  C13_23 
ROOT
ATOM      1  P1  <0> d           0.877  -2.026  -1.510  0.00  0.00     0.445 P 
ATOM      2  O2  <0> d           1.289  -2.760  -0.293  0.00  0.00    -0.233 OA
ATOM      3  N1  <0> d          -0.518  -2.667  -2.123  0.00  0.00    -0.255 N 
ATOM      4  N2  <0> d          -0.391  -3.821  -2.866  0.00  0.00    -0.215 NA
ATOM      5  C3  <0> d          -1.712  -4.248  -3.351  0.00  0.00     0.119 C 
ATOM      6  C4  <0> d          -1.603  -5.680  -3.876  0.00  0.00     0.055 C 
ATOM      7  C5  <0> d          -0.467  -5.774  -4.861  0.00  0.00    -0.047 A 
ATOM      8  C6  <0> d          -0.435  -6.850  -5.736  0.00  0.00     0.034 A 
ATOM      9  C7  <0> d           0.589  -6.973  -6.652  0.00  0.00     0.098 A 
ATOM     10  C8  <0> d           1.590  -6.017  -6.699  0.00  0.00     0.138 A 
ATOM     11  C9  <0> d           1.557  -4.945  -5.827  0.00  0.00     0.053 A 
ATOM     12  C10 <0> d           0.528  -4.821  -4.904  0.00  0.00    -0.027 A 
ATOM     13  C11 <0> d           0.540  -3.634  -3.978  0.00  0.00     0.137 C 
ATOM     14  C12 <0> d           1.967  -3.411  -3.469  0.00  0.00     0.206 C 
ATOM     15  O3  <0> d           1.993  -2.205  -2.679  0.00  0.00    -0.295 OA
ATOM     16  F1  <0> d           2.595  -6.132  -7.594  0.00  0.00    -0.204 F 
ATOM     17  H7  <0> d          -1.381  -2.252  -1.969  0.00  0.00     0.186 HD
ENDROOT
BRANCH   9  18
ATOM     18  S1  <0> d           0.624  -8.344  -7.760  0.00  0.00     0.181 S 
ATOM     19  O4  <0> d           1.931  -8.885  -7.626  0.00  0.00    -0.222 OA
ATOM     20  O5  <0> d          -0.519  -9.116  -7.417  0.00  0.00    -0.222 OA
BRANCH  18  21
ATOM     21  C13 <0> d           0.415  -7.616  -9.408  0.00  0.00     0.105 C 
ATOM     22  C14 <0> d           0.304  -8.733 -10.448  0.00  0.00     0.026 C 
ATOM     23  C15 <0> d          -0.859  -6.768  -9.434  0.00  0.00     0.026 C 
ENDBRANCH  18  21
ENDBRANCH   9  18
BRANCH   1  24
ATOM     24  O1  <0> d           0.671  -0.465  -1.174  0.00  0.00    -0.298 OA
BRANCH  24  25
ATOM     25  C2  <0> d           0.002  -0.004   0.002  0.00  0.00     0.175 C 
ATOM     26  C1  <0> d          -0.019   1.526   0.010  0.00  0.00     0.034 C 
ENDBRANCH  24  25
ENDBRANCH   1  24
TORSDOF 4
