REMARK  2 active torsions:
REMARK  status: ('A' for Active; 'I' for Inactive)
REMARK       I    between atoms: C2_2  and  N1_4 
REMARK    1  A    between atoms: N3_24  and  C21_27 
REMARK    2  A    between atoms: C21_27  and  N4_30 
ROOT
ATOM      1  C1  <0> d          -0.013   1.086   0.008  0.00  0.00     0.117 C 
ATOM      2  C2  <0> d          -0.718   1.572   1.248  0.00  0.00     0.217 C 
ATOM      3  O1  <0> d          -1.714   2.256   1.150  0.00  0.00    -0.274 OA
ATOM      4  N1  <0> d          -0.242   1.246   2.466  0.00  0.00    -0.325 N 
ATOM      5  C3  <0> d           0.963   0.411   2.606  0.00  0.00     0.132 C 
ATOM      6  C4  <0> d           2.056   1.233   3.311  0.00  0.00     0.061 C 
ATOM      7  C5  <0> d           1.455   1.941   4.497  0.00  0.00    -0.018 A 
ATOM      8  C6  <0> d           2.132   2.510   5.645  0.00  0.00    -0.001 A 
ATOM      9  C7  <0> d           3.480   2.585   6.009  0.00  0.00     0.014 A 
ATOM     10  C8  <0> d           3.768   3.212   7.196  0.00  0.00     0.001 A 
ATOM     11  C9  <0> d           2.779   3.750   8.003  0.00  0.00     0.002 A 
ATOM     12  C10 <0> d           1.438   3.691   7.667  0.00  0.00     0.030 A 
ATOM     13  C11 <0> d           1.115   3.059   6.468  0.00  0.00     0.043 A 
ATOM     14  N2  <0> d          -0.079   2.830   5.847  0.00  0.00    -0.356 N 
ATOM     15  H1  <0> d          -0.946   3.102   6.187  0.00  0.00     0.166 HD
ATOM     16  C12 <0> d           0.132   2.160   4.671  0.00  0.00     0.060 A 
ATOM     17  C13 <0> d          -0.913   1.709   3.684  0.00  0.00     0.190 A 
ATOM     18  C14 <0> d          -1.787   0.646   4.264  0.00  0.00     0.013 A 
ATOM     19  C15 <0> d          -1.503  -0.617   4.740  0.00  0.00     0.013 A 
ATOM     20  C16 <0> d          -2.572  -1.365   5.223  0.00  0.00     0.001 A 
ATOM     21  C17 <0> d          -3.858  -0.863   5.224  0.00  0.00     0.002 A 
ATOM     22  C18 <0> d          -4.151   0.405   4.748  0.00  0.00     0.030 A 
ATOM     23  C19 <0> d          -3.088   1.166   4.260  0.00  0.00     0.048 A 
ATOM     24  N3  <0> d          -3.093   2.445   3.731  0.00  0.00    -0.289 N 
ATOM     25  C20 <0> d          -1.857   2.845   3.363  0.00  0.00     0.265 A 
ATOM     26  O2  <0> d          -1.561   3.913   2.870  0.00  0.00    -0.269 OA
ENDROOT
BRANCH  24  27
ATOM     27  C21 <0> d          -4.297   3.267   3.586  0.00  0.00     0.366 C 
BRANCH  27  28
ATOM     28  N4  <0> d          -4.885   3.013   2.254  0.00  0.00    -0.063 N 
ATOM     29  C22 <0> d          -5.714   1.790   2.292  0.00  0.00     0.271 C 
ATOM     30  C23 <0> d          -5.707   4.168   1.836  0.00  0.00     0.271 C 
ATOM     31  H25 <0> d          -4.126   2.880   1.575  0.00  0.00     0.280 HD
ENDBRANCH  27  28
ENDBRANCH  24  27
TORSDOF 2
