REMARK  5 active torsions:
REMARK  status: ('A' for Active; 'I' for Inactive)
REMARK    1  A    between atoms: C2_2  and  C3_3 
REMARK    2  A    between atoms: C2_2  and  S1_15 
REMARK       I    between atoms: C3_3  and  N1_5 
REMARK    3  A    between atoms: N1_5  and  C4_6 
REMARK    4  A    between atoms: S1_15  and  C13_16 
REMARK    5  A    between atoms: C14_20  and  C15_22 
ROOT
ATOM      1  C1  <0> d          -0.019   1.532  -0.002  0.00  0.00     0.031 C 
ATOM      2  C2  <0> d           0.003   0.003  -0.000  0.00  0.00     0.143 C 
ENDROOT
BRANCH   2   3
ATOM      3  C3  <0> d           0.707  -0.491  -1.237  0.00  0.00     0.236 C 
ATOM      4  O1  <0> d           0.066  -0.790  -2.222  0.00  0.00    -0.272 OA
ATOM      5  N1  <0> d           2.051  -0.601  -1.250  0.00  0.00    -0.326 N 
ATOM      6  H6  <0> d           2.569  -0.298  -0.487  0.00  0.00     0.169 HD
BRANCH   5   7
ATOM      7  C4  <0> d           2.698  -1.150  -2.362  0.00  0.00     0.035 A 
ATOM      8  C9  <0> d           3.840  -1.920  -2.193  0.00  0.00     0.037 A 
ATOM      9  C8  <0> d           4.478  -2.467  -3.292  0.00  0.00    -0.050 A 
ATOM     10  C7  <0> d           3.982  -2.238  -4.562  0.00  0.00    -0.052 A 
ATOM     11  C10 <0> d           5.716  -3.334  -3.374  0.00  0.00     0.039 C 
ATOM     12  C6  <0> d           2.845  -1.465  -4.732  0.00  0.00     0.010 A 
ATOM     13  C12 <0> d           4.855  -2.935  -5.585  0.00  0.00     0.039 C 
ATOM     14  C5  <0> d           2.203  -0.921  -3.639  0.00  0.00     0.030 A 
ATOM     15  C11 <0> d           5.672  -3.968  -4.781  0.00  0.00     0.009 C 
ENDBRANCH   5   7
ENDBRANCH   2   3
BRANCH   2  16
ATOM     16  S1  <0> d          -1.699  -0.626   0.018  0.00  0.00    -0.076 SA
BRANCH  16  17
ATOM     17  C13 <0> d          -2.333  -0.095   1.574  0.00  0.00     0.185 A 
ATOM     18  N4  <0> d          -1.678   0.599   2.479  0.00  0.00    -0.201 NA
ATOM     19  C14 <0> d          -2.473   0.827   3.534  0.00  0.00     0.183 A 
ATOM     20  N3  <0> d          -3.643   0.271   3.314  0.00  0.00    -0.152 NA
ATOM     21  N2  <0> d          -3.576  -0.333   2.048  0.00  0.00    -0.253 N 
ATOM     22  H2  <0> d          -4.283  -0.825   1.602  0.00  0.00     0.191 HD
BRANCH  19  23
ATOM     23  C15 <0> d          -2.092   1.579   4.755  0.00  0.00     0.031 A 
ATOM     24  C20 <0> d          -3.010   1.744   5.791  0.00  0.00     0.025 A 
ATOM     25  C19 <0> d          -2.647   2.441   6.927  0.00  0.00     0.020 A 
ATOM     26 Br1  <0> d          -4.746   1.008   5.644  0.00  0.00    -0.050 Br
ATOM     27  C18 <0> d          -1.380   2.985   7.033  0.00  0.00     0.001 A 
ATOM     28  C17 <0> d          -0.467   2.829   6.005  0.00  0.00     0.001 A 
ATOM     29  C16 <0> d          -0.816   2.129   4.868  0.00  0.00     0.017 A 
ENDBRANCH  19  23
ENDBRANCH  16  17
ENDBRANCH   2  16
TORSDOF 5
