REMARK  5 active torsions:
REMARK  status: ('A' for Active; 'I' for Inactive)
REMARK    1  A    between atoms: C9_12  and  C11_14 
REMARK    2  A    between atoms: C11_14  and  C12_15 
REMARK    3  A    between atoms: C11_14  and  N6_26 
REMARK    4  A    between atoms: N5_19  and  C13_20 
REMARK    5  A    between atoms: C13_20  and  C14_21 
ROOT
ATOM      1  C11 <0> d          -1.612   3.476   4.869  0.00  0.00     0.334 C 
ENDROOT
BRANCH   1   2
ATOM      2  C9  <0> d          -1.934   4.941   4.723  0.00  0.00     0.051 A 
ATOM      3  C8  <0> d          -0.904   5.861   4.434  0.00  0.00     0.254 A 
ATOM      4  N1  <0> d          -1.151   7.175   4.291  0.00  0.00    -0.322 N 
ATOM      5  O1  <0> d           0.238   5.455   4.306  0.00  0.00    -0.268 OA
ATOM      6  C7  <0> d          -2.428   7.676   4.432  0.00  0.00     0.051 A 
ATOM      7  H1  <0> d          -0.317   7.854   4.058  0.00  0.00     0.169 HD
ATOM      8  C2  <0> d          -2.683   9.035   4.290  0.00  0.00    -0.034 A 
ATOM      9  C6  <0> d          -3.490   6.800   4.726  0.00  0.00    -0.008 A 
ATOM     10  C1  <0> d          -1.558   9.988   3.976  0.00  0.00     0.050 C 
ATOM     11  C3  <0> d          -3.970   9.509   4.437  0.00  0.00     0.009 A 
ATOM     12  C4  <0> d          -5.015   8.642   4.726  0.00  0.00     0.002 A 
ATOM     13  C5  <0> d          -4.787   7.303   4.871  0.00  0.00     0.014 A 
ATOM     14  C10 <0> d          -3.211   5.370   4.874  0.00  0.00     0.029 A 
ENDBRANCH   1   2
BRANCH   1  15
ATOM     15  C12 <0> d          -0.719   3.275   6.067  0.00  0.00     0.186 A 
ATOM     16  N5  <0> d          -1.079   2.774   7.263  0.00  0.00    -0.230 N 
ATOM     17  N4  <0> d          -0.024   2.767   8.005  0.00  0.00    -0.044 NA
ATOM     18  N3  <0> d           0.962   3.245   7.329  0.00  0.00    -0.023 NA
ATOM     19  N2  <0> d           0.558   3.560   6.147  0.00  0.00    -0.111 NA
BRANCH  16  20
ATOM     20  C13 <0> d          -2.417   2.319   7.649  0.00  0.00     0.186 C 
BRANCH  20  21
ATOM     21  C14 <0> d          -2.564   0.832   7.322  0.00  0.00     0.141 C 
ATOM     22  O2  <0> d          -2.531   0.627   5.901  0.00  0.00    -0.384 OA
ATOM     23  C17 <0> d          -3.438  -0.419   5.536  0.00  0.00     0.168 C 
ATOM     24  C16 <0> d          -4.140  -0.899   6.824  0.00  0.00     0.029 C 
ATOM     25  C15 <0> d          -3.955   0.317   7.773  0.00  0.00     0.036 C 
ENDBRANCH  20  21
ENDBRANCH  16  20
ENDBRANCH   1  15
BRANCH   1  26
ATOM     26  N6  <0> d          -0.924   3.002   3.661  0.00  0.00     0.108 N 
ATOM     27  C21 <0> d          -1.609   3.471   2.448  0.00  0.00     0.301 C 
ATOM     28  C20 <0> d          -0.819   3.024   1.215  0.00  0.00     0.264 C 
ATOM     29  N7  <0> d          -0.700   1.560   1.217  0.00  0.00    -0.072 N 
ATOM     30  C19 <0> d          -0.016   1.091   2.430  0.00  0.00     0.264 C 
ATOM     31  C22 <0> d          -0.013   1.086   0.008  0.00  0.00     0.269 C 
ATOM     32  H30 <0> d          -1.716   1.137   1.214  0.00  0.00     0.279 HD
ATOM     33  C18 <0> d          -0.806   1.537   3.662  0.00  0.00     0.301 C 
ENDBRANCH   1  26
TORSDOF 5
