REMARK  4 active torsions:
REMARK  status: ('A' for Active; 'I' for Inactive)
REMARK    1  A    between atoms: C2_2  and  N1_3 
REMARK    2  A    between atoms: N1_3  and  C3_4 
REMARK    3  A    between atoms: C3_4  and  C4_5 
REMARK    4  A    between atoms: C4_5  and  C9_11 
ROOT
ATOM      1  C4  <0> d          -2.825  -2.406  -0.045  0.00  0.00     0.009 C 
ATOM      2  C5  <0> d          -3.573  -1.801   1.147  0.00  0.00     0.016 C 
ATOM      3  C6  <0> d          -3.538  -0.274   1.036  0.00  0.00     0.027 C 
ATOM      4  C7  <0> d          -4.145   0.147  -0.305  0.00  0.00     0.167 C 
ATOM      5  O1  <0> d          -3.422  -0.474  -1.369  0.00  0.00    -0.390 OA
ATOM      6  C8  <0> d          -3.460  -1.903  -1.344  0.00  0.00     0.179 C 
ENDROOT
BRANCH   1   7
ATOM      7  C3  <0> d          -1.356  -1.981   0.004  0.00  0.00     0.244 C 
BRANCH   7   8
ATOM      8  N1  <0> d          -0.615  -2.657  -1.069  0.00  0.00    -0.075 N 
ATOM      9  H7  <0> d          -1.028  -2.428  -1.960  0.00  0.00     0.277 HD
ATOM     10  H24 <0> d          -0.654  -3.656  -0.927  0.00  0.00     0.277 HD
BRANCH   8  11
ATOM     11  C2  <0> d           0.786  -2.214  -1.050  0.00  0.00     0.228 C 
ATOM     12  C1  <0> d           1.558  -2.918  -2.168  0.00  0.00     0.034 C 
ENDBRANCH   8  11
ENDBRANCH   7   8
ENDBRANCH   1   7
BRANCH   1  13
ATOM     13  C9  <0> d          -2.919  -3.932   0.012  0.00  0.00     0.013 C 
ATOM     14  C12 <0> d          -4.411  -4.369  -0.039  0.00  0.00     0.145 C 
ATOM     15  S1  <0> d          -4.285  -6.076   0.643  0.00  0.00     0.144 S 
ATOM     16  C11 <0> d          -2.689  -5.927   1.545  0.00  0.00     0.140 C 
ATOM     17  O2  <0> d          -5.331  -6.275   1.584  0.00  0.00    -0.228 OA
ATOM     18  O3  <0> d          -4.127  -6.994  -0.430  0.00  0.00    -0.228 OA
ATOM     19  C10 <0> d          -2.316  -4.440   1.332  0.00  0.00     0.021 C 
ENDBRANCH   1  13
TORSDOF 4
