REMARK  6 active torsions:
REMARK  status: ('A' for Active; 'I' for Inactive)
REMARK    1  A    between atoms: N1_4  and  S1_9 
REMARK    2  A    between atoms: S1_9  and  N2_12 
REMARK    3  A    between atoms: C10_16  and  C11_17 
REMARK    4  A    between atoms: C11_17  and  C12_18 
REMARK    5  A    between atoms: C12_18  and  C13_19 
REMARK    6  A    between atoms: C13_19  and  O4_20 
ROOT
ATOM      1  S1  <0> d           2.837   0.802  -2.657  0.00  0.00     0.319 S 
ATOM      2  O2  <0> d           4.215   0.463  -2.581  0.00  0.00    -0.182 OA
ATOM      3  O3  <0> d           2.084   0.664  -3.854  0.00  0.00    -0.182 OA
ENDROOT
BRANCH   1   4
ATOM      4  N1  <0> d           2.063  -0.101  -1.505  0.00  0.00    -0.289 N 
ATOM      5  C3  <0> d           0.630  -0.412  -1.622  0.00  0.00     0.168 C 
ATOM      6  C2  <0> d          -0.054  -0.048  -0.300  0.00  0.00     0.136 C 
ATOM      7  C1  <0> d          -0.030   1.470  -0.113  0.00  0.00     0.041 C 
ATOM      8  O1  <0> d           0.644  -0.674   0.780  0.00  0.00    -0.378 OA
ATOM      9  C5  <0> d           2.000  -0.242   0.927  0.00  0.00     0.136 C 
ATOM     10  C4  <0> d           2.789  -0.616  -0.333  0.00  0.00     0.168 C 
ATOM     11  C6  <0> d           2.625  -0.927   2.144  0.00  0.00     0.041 C 
ENDBRANCH   1   4
BRANCH   1  12
ATOM     12  N2  <0> d           2.714   2.389  -2.201  0.00  0.00    -0.289 N 
ATOM     13  C10 <0> d           3.606   3.082  -1.260  0.00  0.00     0.097 C 
ATOM     14  C9  <0> d           3.093   4.531  -1.124  0.00  0.00     0.028 C 
ATOM     15  C8  <0> d           1.606   4.412  -1.551  0.00  0.00     0.023 C 
ATOM     16  C7  <0> d           1.687   3.339  -2.665  0.00  0.00     0.137 C 
BRANCH  13  17
ATOM     17  C11 <0> d           5.035   3.088  -1.807  0.00  0.00     0.028 C 
BRANCH  17  18
ATOM     18  C12 <0> d           5.970   3.737  -0.785  0.00  0.00     0.028 C 
BRANCH  18  19
ATOM     19  C13 <0> d           7.379   3.836  -1.373  0.00  0.00     0.164 C 
BRANCH  19  20
ATOM     20  O4  <0> d           8.252   4.442  -0.418  0.00  0.00    -0.401 OA
ATOM     21  H26 <0> d           9.164   4.538  -0.724  0.00  0.00     0.209 HD
ENDBRANCH  19  20
ENDBRANCH  18  19
ENDBRANCH  17  18
ENDBRANCH  13  17
ENDBRANCH   1  12
TORSDOF 6
