REMARK  6 active torsions:
REMARK  status: ('A' for Active; 'I' for Inactive)
REMARK    1  A    between atoms: C2_2  and  N1_3 
REMARK    2  A    between atoms: N2_17  and  C16_20 
REMARK    3  A    between atoms: C16_20  and  C17_21 
REMARK    4  A    between atoms: C17_21  and  C18_22 
REMARK    5  A    between atoms: C18_22  and  N3_23 
REMARK    6  A    between atoms: C24_31  and  N5_35 
ROOT
ATOM      1  N1  <0> d          -1.372  -0.511   0.012  0.00  0.00    -0.316 N 
ATOM      2  C3  <0> d          -2.089  -0.780   1.165  0.00  0.00     0.045 A 
ATOM      3  C4  <0> d          -1.704  -0.644   2.500  0.00  0.00     0.030 A 
ATOM      4  C5  <0> d          -2.635  -0.991   3.466  0.00  0.00     0.002 A 
ATOM      5  C6  <0> d          -3.893  -1.452   3.137  0.00  0.00     0.001 A 
ATOM      6  C7  <0> d          -4.289  -1.593   1.811  0.00  0.00     0.011 A 
ATOM      7  C8  <0> d          -3.368  -1.250   0.845  0.00  0.00    -0.003 A 
ATOM      8  C9  <0> d          -3.444  -1.275  -0.650  0.00  0.00     0.147 A 
ATOM      9  C10 <0> d          -2.091  -0.766  -1.101  0.00  0.00     0.248 A 
ATOM     10  O1  <0> d          -1.721  -0.617  -2.247  0.00  0.00    -0.271 OA
ATOM     11  C11 <0> d          -4.524  -0.358  -1.148  0.00  0.00     0.072 A 
ATOM     12  C12 <0> d          -5.695  -0.872  -1.669  0.00  0.00     0.093 A 
ATOM     13  C13 <0> d          -6.685   0.019  -2.131  0.00  0.00     0.063 A 
ATOM     14  C14 <0> d          -6.478   1.351  -2.054  0.00  0.00     0.013 A 
ATOM     15  N2  <0> d          -5.325   1.849  -1.535  0.00  0.00    -0.318 N 
ATOM     16  C15 <0> d          -4.355   1.031  -1.087  0.00  0.00     0.259 A 
ATOM     17  O2  <0> d          -3.325   1.500  -0.627  0.00  0.00    -0.267 OA
ATOM     18  C23 <0> d          -7.539   2.299  -2.551  0.00  0.00     0.068 C 
ATOM     19  O4  <0> d          -5.901  -2.204  -1.738  0.00  0.00    -0.292 OA
ATOM     20  C24 <0> d          -4.861  -3.053  -1.659  0.00  0.00     0.160 C 
ATOM     21  C25 <0> d          -3.664  -2.674  -1.152  0.00  0.00     0.100 C 
ATOM     22  C26 <0> d          -2.591  -3.620  -1.094  0.00  0.00     0.101 C 
ATOM     23  N4  <0> d          -1.739  -4.371  -1.048  0.00  0.00    -0.191 NA
ENDROOT
BRANCH  20  24
ATOM     24  N5  <0> d          -5.018  -4.342  -2.106  0.00  0.00    -0.379 N 
ATOM     25  H28 <0> d          -5.870  -4.628  -2.471  0.00  0.00     0.158 HD
ATOM     26  H29 <0> d          -4.277  -4.966  -2.055  0.00  0.00     0.158 HD
ENDBRANCH  20  24
BRANCH   1  27
ATOM     27  C2  <0> d           0.002  -0.004   0.002  0.00  0.00     0.128 C 
ATOM     28  C1  <0> d          -0.019   1.526   0.010  0.00  0.00     0.027 C 
ENDBRANCH   1  27
BRANCH  15  29
ATOM     29  C16 <0> d          -5.135   3.300  -1.462  0.00  0.00     0.134 C 
BRANCH  29  30
ATOM     30  C17 <0> d          -5.665   3.817  -0.122  0.00  0.00     0.050 C 
BRANCH  30  31
ATOM     31  C18 <0> d          -5.467   5.332  -0.046  0.00  0.00     0.274 C 
BRANCH  31  32
ATOM     32  N3  <0> d          -5.976   5.828   1.240  0.00  0.00     0.092 N 
ATOM     33  C22 <0> d          -5.592   7.231   1.452  0.00  0.00     0.298 C 
ATOM     34  C21 <0> d          -6.090   7.689   2.826  0.00  0.00     0.198 C 
ATOM     35  O3  <0> d          -7.505   7.497   2.902  0.00  0.00    -0.388 OA
ATOM     36  C20 <0> d          -7.914   6.141   2.701  0.00  0.00     0.198 C 
ATOM     37  C19 <0> d          -7.434   5.668   1.326  0.00  0.00     0.298 C 
ENDBRANCH  31  32
ENDBRANCH  30  31
ENDBRANCH  29  30
ENDBRANCH  15  29
TORSDOF 6
