REMARK  5 active torsions:
REMARK  status: ('A' for Active; 'I' for Inactive)
REMARK    1  A    between atoms: N1_9  and  C9_14 
REMARK    2  A    between atoms: C9_14  and  C10_15 
REMARK    3  A    between atoms: C10_15  and  C11_16 
REMARK       I    between atoms: C11_16  and  N3_18 
REMARK    4  A    between atoms: N3_18  and  N4_19 
REMARK       I    between atoms: N4_19  and  C12_20 
REMARK    5  A    between atoms: C12_20  and  C13_22 
ROOT
ATOM      1  C11 <0> d           6.466   5.417  -1.474  0.00  0.00     0.237 C 
ATOM      2  O2  <0> d           6.985   5.741  -0.427  0.00  0.00    -0.272 OA
ATOM      3  N3  <0> d           7.019   5.791  -2.645  0.00  0.00    -0.267 N 
ATOM      4  H10 <0> d           6.548   5.496  -3.595  0.00  0.00     0.190 HD
ENDROOT
BRANCH   1   5
ATOM      5  C10 <0> d           5.202   4.595  -1.466  0.00  0.00     0.125 C 
BRANCH   5   6
ATOM      6  C9  <0> d           4.790   4.309  -0.021  0.00  0.00     0.144 C 
BRANCH   6   7
ATOM      7  N1  <0> d           3.562   3.510  -0.013  0.00  0.00    -0.290 N 
ATOM      8  C7  <0> d           3.648   2.162  -0.022  0.00  0.00     0.262 A 
ATOM      9  C5  <0> d           2.397   1.382  -0.014  0.00  0.00     0.059 A 
ATOM     10  O1  <0> d           4.729   1.606  -0.035  0.00  0.00    -0.267 OA
ATOM     11  C4  <0> d           1.178   2.081   0.002  0.00  0.00     0.050 A 
ATOM     12  C6  <0> d           2.402  -0.011  -0.021  0.00  0.00     0.019 A 
ATOM     13  C3  <0> d          -0.017   1.377   0.010  0.00  0.00     0.030 A 
ATOM     14  N2  <0> d           1.203   3.468   0.010  0.00  0.00    -0.332 N 
ATOM     15  C2  <0> d           0.002  -0.004   0.002  0.00  0.00     0.002 A 
ATOM     16  C1  <0> d           1.204  -0.695  -0.013  0.00  0.00     0.001 A 
ATOM     17  C8  <0> d           2.372   4.131   0.002  0.00  0.00     0.181 A 
ATOM     18  H1  <0> d           0.261   4.035   0.022  0.00  0.00     0.168 HD
ATOM     19  S1  <0> d           2.342   5.843   0.011  0.00  0.00    -0.040 SA
ENDBRANCH   6   7
ENDBRANCH   5   6
ENDBRANCH   1   5
BRANCH   3  20
ATOM     20  N4  <0> d           8.193   6.554  -2.653  0.00  0.00    -0.263 N 
ATOM     21  C12 <0> d           8.746   6.928  -3.823  0.00  0.00     0.277 C 
ATOM     22  O3  <0> d           8.226   6.603  -4.874  0.00  0.00    -0.265 OA
ATOM     23  H11 <0> d           8.664   6.849  -1.703  0.00  0.00     0.190 HD
BRANCH  21  24
ATOM     24  C13 <0> d           9.975   7.728  -3.831  0.00  0.00     0.075 A 
ATOM     25  S2  <0> d          10.929   8.341  -2.452  0.00  0.00    -0.089 SA
ATOM     26  C16 <0> d          12.167   9.129  -3.350  0.00  0.00    -0.010 A 
ATOM     27  C15 <0> d          11.838   8.958  -4.650  0.00  0.00    -0.043 A 
ATOM     28  C17 <0> d          13.382   9.853  -2.813  0.00  0.00     0.046 C 
ATOM     29  C14 <0> d          10.696   8.210  -4.909  0.00  0.00     0.033 A 
ATOM     30  C21 <0> d          12.653   9.598  -5.780  0.00  0.00     0.040 C 
ATOM     31  C20 <0> d          12.566  11.115  -5.605  0.00  0.00     0.005 C 
ATOM     32  C19 <0> d          13.541  11.623  -4.575  0.00  0.00     0.001 C 
ATOM     33  C18 <0> d          13.197  11.347  -3.130  0.00  0.00     0.005 C 
ENDBRANCH  21  24
ENDBRANCH   3  20
TORSDOF 5
