REMARK  4 active torsions:
REMARK  status: ('A' for Active; 'I' for Inactive)
REMARK    1  A    between atoms: C2_2  and  N1_3 
REMARK    2  A    between atoms: N2_6  and  C7_9 
REMARK    3  A    between atoms: C7_9  and  C8_10 
REMARK    4  A    between atoms: C8_10  and  C9_11 
ROOT
ATOM      1  C8  <0> d           4.929  -2.237  -3.534  0.00  0.00     0.143 C 
ATOM      2 Cl1  <0> d           5.566  -3.188  -2.141  0.00  0.00    -0.118 Cl
ENDROOT
BRANCH   1   3
ATOM      3  C7  <0> d           3.433  -2.512  -3.697  0.00  0.00     0.297 C 
BRANCH   3   4
ATOM      4  N2  <0> d           2.712  -2.015  -2.518  0.00  0.00     0.093 N 
ATOM      5  C4  <0> d           2.588  -0.551  -2.555  0.00  0.00     0.300 C 
ATOM      6  C3  <0> d           1.885  -0.069  -1.284  0.00  0.00     0.265 C 
ATOM      7  N1  <0> d           0.557  -0.689  -1.193  0.00  0.00    -0.068 N 
ATOM      8  C6  <0> d           0.699  -2.150  -1.132  0.00  0.00     0.265 C 
ATOM      9  H21 <0> d           0.013  -0.438  -2.005  0.00  0.00     0.280 HD
ATOM     10  C5  <0> d           1.391  -2.648  -2.403  0.00  0.00     0.300 C 
BRANCH   7  11
ATOM     11  C2  <0> d          -0.124  -0.212   0.018  0.00  0.00     0.230 C 
ATOM     12  C1  <0> d          -0.384   1.291  -0.101  0.00  0.00     0.034 C 
ENDBRANCH   7  11
ENDBRANCH   3   4
ENDBRANCH   1   3
BRANCH   1  13
ATOM     13  C9  <0> d           5.655  -2.641  -4.792  0.00  0.00    -0.035 A 
ATOM     14  C14 <0> d           6.285  -1.681  -5.560  0.00  0.00     0.048 A 
ATOM     15  C13 <0> d           6.956  -2.052  -6.715  0.00  0.00     0.108 A 
ATOM     16  C12 <0> d           6.983  -3.392  -7.099  0.00  0.00     0.071 A 
ATOM     17  O1  <0> d           7.653  -1.353  -7.644  0.00  0.00    -0.259 OA
ATOM     18  C11 <0> d           6.344  -4.349  -6.326  0.00  0.00     0.033 A 
ATOM     19  N3  <0> d           7.718  -3.453  -8.283  0.00  0.00    -0.300 N 
ATOM     20  C10 <0> d           5.681  -3.971  -5.175  0.00  0.00     0.011 A 
ATOM     21  C15 <0> d           8.107  -2.197  -8.582  0.00  0.00     0.370 A 
ATOM     22  H2  <0> d           7.912  -4.252  -8.797  0.00  0.00     0.171 HD
ATOM     23  O2  <0> d           8.768  -1.880  -9.552  0.00  0.00    -0.238 OA
ENDBRANCH   1  13
TORSDOF 4
