REMARK  2 active torsions:
REMARK  status: ('A' for Active; 'I' for Inactive)
REMARK    1  A    between atoms: C6_6  and  N1_8 
REMARK    2  A    between atoms: N1_8  and  C8_9 
ROOT
ATOM      1  C8  <0> d           1.000   2.043  -0.135  0.00  0.00     0.232 A 
ATOM      2  C9  <0> d           0.398   3.430  -0.128  0.00  0.00     0.021 A 
ATOM      3  C10 <0> d           0.938   4.684   0.050  0.00  0.00     0.013 A 
ATOM      4  C11 <0> d           0.121   5.800   0.004  0.00  0.00     0.001 A 
ATOM      5  C12 <0> d          -1.236   5.651  -0.222  0.00  0.00     0.002 A 
ATOM      6  C13 <0> d          -1.779   4.395  -0.401  0.00  0.00     0.030 A 
ATOM      7  C14 <0> d          -0.963   3.267  -0.355  0.00  0.00     0.045 A 
ATOM      8  N2  <0> d          -1.267   1.914  -0.510  0.00  0.00    -0.323 N 
ATOM      9  C15 <0> d          -0.182   1.131  -0.390  0.00  0.00     0.270 A 
ATOM     10  O1  <0> d          -0.153  -0.079  -0.475  0.00  0.00    -0.269 OA
ATOM     11  C16 <0> d           1.614   1.741   1.168  0.00  0.00     0.106 C 
ATOM     12  N3  <0> d           2.088   1.507   2.173  0.00  0.00    -0.194 NA
ATOM     13  H12 <0> d          -2.160   1.577  -0.681  0.00  0.00     0.169 HD
ENDROOT
BRANCH   1  14
ATOM     14  N1  <0> d           1.986   1.918  -1.211  0.00  0.00    -0.356 N 
ATOM     15  H7  <0> d           2.181   2.678  -1.781  0.00  0.00     0.162 HD
BRANCH  14  16
ATOM     16  C6  <0> d           2.646   0.704  -1.415  0.00  0.00     0.036 A 
ATOM     17  C5  <0> d           3.483   0.542  -2.511  0.00  0.00    -0.035 A 
ATOM     18  C4  <0> d           4.135  -0.659  -2.709  0.00  0.00     0.009 A 
ATOM     19  C17 <0> d           3.680   1.677  -3.483  0.00  0.00     0.050 C 
ATOM     20  C3  <0> d           3.954  -1.701  -1.818  0.00  0.00     0.007 A 
ATOM     21  C2  <0> d           3.121  -1.544  -0.726  0.00  0.00    -0.060 A 
ATOM     22  C1  <0> d           2.928  -2.682   0.243  0.00  0.00     0.048 C 
ATOM     23  C7  <0> d           2.471  -0.343  -0.518  0.00  0.00     0.036 A 
ENDBRANCH  14  16
ENDBRANCH   1  14
TORSDOF 2
