REMARK  7 active torsions:
REMARK  status: ('A' for Active; 'I' for Inactive)
REMARK    1  A    between atoms: C7_8  and  C10_11 
REMARK    2  A    between atoms: C10_11  and  C11_12 
REMARK    3  A    between atoms: C11_12  and  N2_13 
REMARK       I    between atoms: N2_13  and  C12_14 
REMARK    4  A    between atoms: C12_14  and  C13_16 
REMARK       I    between atoms: N3_18  and  C21_26 
REMARK    5  A    between atoms: C21_26  and  C22_28 
REMARK    6  A    between atoms: C27_33  and  O3_34 
REMARK    7  A    between atoms: O3_34  and  C28_35 
ROOT
ATOM      1  C13 <0> d           5.057  -0.279  -7.349  0.00  0.00     0.106 C 
ATOM      2  C14 <0> d           4.975   0.630  -8.596  0.00  0.00     0.141 C 
ATOM      3  N3  <0> d           5.737  -0.096  -9.640  0.00  0.00    -0.346 N 
ATOM      4  C15 <0> d           5.375  -1.520  -9.436  0.00  0.00     0.136 C 
ATOM      5  C16 <0> d           5.319  -1.689  -7.905  0.00  0.00    -0.007 C 
ATOM      6  C17 <0> d           4.180  -2.628  -7.520  0.00  0.00     0.039 C 
ATOM      7  C18 <0> d           4.491  -4.037  -8.033  0.00  0.00     0.233 C 
ATOM      8  N4  <0> d           5.755  -4.504  -7.451  0.00  0.00    -0.075 N 
ATOM      9  C19 <0> d           6.860  -3.649  -7.902  0.00  0.00     0.233 C 
ATOM     10  C20 <0> d           6.649  -2.223  -7.383  0.00  0.00     0.039 C 
ATOM     11  C21 <0> d           6.570   0.420 -10.565  0.00  0.00     0.256 C 
ATOM     12  O2  <0> d           7.051  -0.299 -11.419  0.00  0.00    -0.267 OA
ATOM     13  H23 <0> d           5.694  -4.469  -6.444  0.00  0.00     0.277 HD
ATOM     14  H35 <0> d           5.927  -5.454  -7.742  0.00  0.00     0.277 HD
ENDROOT
BRANCH   1  15
ATOM     15  C12 <0> d           3.756  -0.247  -6.590  0.00  0.00     0.224 C 
ATOM     16  N2  <0> d           3.733  -0.552  -5.278  0.00  0.00    -0.360 N 
ATOM     17  H14 <0> d           4.555  -0.793  -4.822  0.00  0.00     0.162 HD
ATOM     18  O1  <0> d           2.728   0.054  -7.161  0.00  0.00    -0.273 OA
BRANCH  16  19
ATOM     19  C11 <0> d           2.468  -0.521  -4.540  0.00  0.00     0.127 C 
BRANCH  19  20
ATOM     20  C10 <0> d           2.719  -0.906  -3.081  0.00  0.00     0.060 C 
BRANCH  20  21
ATOM     21  C7  <0> d           1.418  -0.874  -2.322  0.00  0.00    -0.029 A 
ATOM     22  C6  <0> d           0.940   0.150  -1.598  0.00  0.00     0.096 A 
ATOM     23  N1  <0> d          -0.269  -0.186  -1.054  0.00  0.00    -0.365 N 
ATOM     24  C5  <0> d          -0.609  -1.468  -1.424  0.00  0.00     0.043 A 
ATOM     25  H8  <0> d          -0.808   0.393  -0.492  0.00  0.00     0.165 HD
ATOM     26  C4  <0> d          -1.703  -2.284  -1.157  0.00  0.00     0.031 A 
ATOM     27  C8  <0> d           0.433  -1.956  -2.234  0.00  0.00    -0.001 A 
ATOM     28  C3  <0> d          -1.754  -3.555  -1.687  0.00  0.00     0.009 A 
ATOM     29  C2  <0> d          -0.724  -4.031  -2.486  0.00  0.00    -0.061 A 
ATOM     30  C1  <0> d          -0.802  -5.424  -3.056  0.00  0.00     0.048 C 
ATOM     31  C9  <0> d           0.363  -3.248  -2.757  0.00  0.00     0.021 A 
ENDBRANCH  20  21
ENDBRANCH  19  20
ENDBRANCH  16  19
ENDBRANCH   1  15
BRANCH  11  32
ATOM     32  C22 <0> d           6.898   1.859 -10.541  0.00  0.00     0.066 A 
ATOM     33  C27 <0> d           8.180   2.295 -10.902  0.00  0.00     0.094 A 
ATOM     34  C26 <0> d           8.476   3.650 -10.880  0.00  0.00     0.038 A 
ATOM     35  C25 <0> d           7.514   4.563 -10.495  0.00  0.00     0.003 A 
ATOM     36  C24 <0> d           6.247   4.135 -10.132  0.00  0.00     0.001 A 
ATOM     37  C23 <0> d           5.935   2.793 -10.153  0.00  0.00     0.020 A 
BRANCH  33  38
ATOM     38  O3  <0> d           9.126   1.397 -11.275  0.00  0.00    -0.278 OA
BRANCH  38  39
ATOM     39  C28 <0> d           9.878   0.836 -10.314  0.00  0.00     0.260 C 
ATOM     40  O4  <0> d           9.642   1.067  -9.151  0.00  0.00    -0.265 OA
ATOM     41  C29 <0> d          11.016  -0.080 -10.685  0.00  0.00     0.126 C 
ENDBRANCH  38  39
ENDBRANCH  33  38
ENDBRANCH  11  32
TORSDOF 7
