REMARK  5 active torsions:
REMARK  status: ('A' for Active; 'I' for Inactive)
REMARK    1  A    between atoms: C4_6  and  C10_15 
REMARK    2  A    between atoms: C5_7  and  N3_9 
REMARK    3  A    between atoms: C8_12  and  O1_14 
REMARK    4  A    between atoms: C10_15  and  N4_16 
REMARK    5  A    between atoms: N4_16  and  C11_17 
ROOT
ATOM      1  C1  <0> d          -0.017   1.373   0.010  0.00  0.00     0.106 A 
ATOM      2  C2  <0> d           1.118   2.071   0.003  0.00  0.00     0.071 A 
ATOM      3  S1  <0> d           2.347   0.775  -0.016  0.00  0.00    -0.062 SA
ATOM      4  C3  <0> d           1.231  -0.608  -0.013  0.00  0.00     0.179 A 
ATOM      5  N1  <0> d           0.002  -0.004   0.002  0.00  0.00    -0.299 N 
ATOM      6  C4  <0> d          -0.915  -1.059   0.005  0.00  0.00     0.089 A 
ATOM      7  C5  <0> d          -0.211  -2.210  -0.008  0.00  0.00     0.153 A 
ATOM      8  N2  <0> d           1.097  -1.904  -0.018  0.00  0.00    -0.204 NA
ENDROOT
BRANCH   6   9
ATOM      9  C10 <0> d          -2.417  -0.933   0.020  0.00  0.00     0.294 C 
BRANCH   9  10
ATOM     10  N4  <0> d          -2.918  -0.885  -1.360  0.00  0.00    -0.066 N 
ATOM     11  H13 <0> d          -2.519  -0.090  -1.835  0.00  0.00     0.278 HD
ATOM     12  H19 <0> d          -2.656  -1.732  -1.843  0.00  0.00     0.278 HD
BRANCH  10  13
ATOM     13  C11 <0> d          -4.382  -0.763  -1.345  0.00  0.00     0.186 A 
ATOM     14  C13 <0> d          -5.089  -0.579  -2.689  0.00  0.00     0.035 A 
ATOM     15  C12 <0> d          -5.193  -1.912  -1.947  0.00  0.00     0.035 A 
ENDBRANCH  10  13
ENDBRANCH   9  10
ENDBRANCH   6   9
BRANCH   7  16
ATOM     16  N3  <0> d          -0.753  -3.505  -0.011  0.00  0.00    -0.362 N 
ATOM     17  C9  <0> d           0.018  -4.756  -0.025  0.00  0.00     0.156 C 
ATOM     18  C8  <0> d          -0.997  -5.919  -0.047  0.00  0.00     0.137 C 
ATOM     19  C7  <0> d          -2.274  -5.253  -0.623  0.00  0.00     0.053 C 
ATOM     20  C6  <0> d          -2.190  -3.835  -0.005  0.00  0.00     0.127 C 
BRANCH  18  21
ATOM     21  O1  <0> d          -0.544  -6.970  -0.904  0.00  0.00    -0.394 OA
ATOM     22  H10 <0> d          -1.180  -7.689  -1.014  0.00  0.00     0.210 HD
ENDBRANCH  18  21
ENDBRANCH   7  16
TORSDOF 5
