REMARK  5 active torsions:
REMARK  status: ('A' for Active; 'I' for Inactive)
REMARK    1  A    between atoms: C4_4  and  C5_8 
REMARK    2  A    between atoms: C5_8  and  N4_30 
REMARK    3  A    between atoms: C11_14  and  N3_18 
REMARK       I    between atoms: N3_18  and  C15_19 
REMARK    4  A    between atoms: C15_19  and  C16_21 
REMARK    5  A    between atoms: C21_26  and  O2_27 
ROOT
ATOM      1  C6  <0> d           7.180  -0.201  -0.003  0.00  0.00     0.240 C 
ATOM      2  C7  <0> d           5.968  -1.073   0.324  0.00  0.00     0.067 C 
ATOM      3  C8  <0> d           4.705  -0.254   0.235  0.00  0.00    -0.049 A 
ATOM      4  C9  <0> d           3.492  -0.920   0.142  0.00  0.00     0.010 A 
ATOM      5  C10 <0> d           2.310  -0.213   0.070  0.00  0.00     0.030 A 
ATOM      6  C11 <0> d           2.337   1.176   0.079  0.00  0.00     0.035 A 
ATOM      7  C12 <0> d           3.550   1.840   0.170  0.00  0.00     0.039 A 
ATOM      8  C13 <0> d           4.735   1.124   0.247  0.00  0.00    -0.024 A 
ATOM      9  C14 <0> d           6.029   1.890   0.335  0.00  0.00     0.274 C 
ATOM     10  N4  <0> d           7.101   1.013   0.835  0.00  0.00    -0.062 N 
ATOM     11  H25 <0> d           6.887   0.740   1.801  0.00  0.00     0.280 HD
ENDROOT
BRANCH   6  12
ATOM     12  N3  <0> d           1.143   1.901   0.001  0.00  0.00    -0.323 N 
ATOM     13  C15 <0> d           0.108   1.421  -0.716  0.00  0.00     0.259 C 
ATOM     14  O1  <0> d           0.242   0.407  -1.373  0.00  0.00    -0.267 OA
ATOM     15  H17 <0> d           1.061   2.750   0.464  0.00  0.00     0.169 HD
BRANCH  13  16
ATOM     16  C16 <0> d          -1.186   2.130  -0.708  0.00  0.00     0.065 A 
ATOM     17  C21 <0> d          -2.263   1.637  -1.456  0.00  0.00     0.084 A 
ATOM     18  C20 <0> d          -3.475   2.312  -1.441  0.00  0.00     0.038 A 
ATOM     19  C19 <0> d          -3.618   3.462  -0.692  0.00  0.00     0.003 A 
ATOM     20  C18 <0> d          -2.555   3.952   0.050  0.00  0.00     0.001 A 
ATOM     21  C17 <0> d          -1.346   3.292   0.050  0.00  0.00     0.020 A 
BRANCH  17  22
ATOM     22  O2  <0> d          -2.122   0.506  -2.192  0.00  0.00    -0.355 OA
ATOM     23  C22 <0> d          -3.264   0.065  -2.929  0.00  0.00     0.210 C 
ENDBRANCH  17  22
ENDBRANCH  13  16
ENDBRANCH   6  12
BRANCH  10  24
ATOM     24  C5  <0> d           8.395   1.731   0.812  0.00  0.00     0.293 C 
BRANCH  24  25
ATOM     25  C4  <0> d           8.364   2.831   1.842  0.00  0.00     0.055 A 
ATOM     26  C3  <0> d           8.060   4.129   1.613  0.00  0.00     0.056 A 
ATOM     27  C2  <0> d           8.145   4.812   2.831  0.00  0.00     0.052 A 
ATOM     28  C1  <0> d           7.883   6.281   3.041  0.00  0.00     0.072 C 
ATOM     29  N2  <0> d           8.495   3.956   3.756  0.00  0.00    -0.180 NA
ATOM     30  N1  <0> d           8.640   2.698   3.156  0.00  0.00    -0.280 N 
ATOM     31  H1  <0> d           8.901   1.852   3.620  0.00  0.00     0.189 HD
ENDBRANCH  24  25
ENDBRANCH  10  24
TORSDOF 5
