REMARK  6 active torsions:
REMARK  status: ('A' for Active; 'I' for Inactive)
REMARK    1  A    between atoms: S1_2  and  C2_3 
REMARK    2  A    between atoms: N1_9  and  S2_12 
REMARK    3  A    between atoms: S2_12  and  O4_15 
REMARK    4  A    between atoms: O4_15  and  C9_16 
REMARK    5  A    between atoms: C17_25  and  C18_27 
REMARK    6  A    between atoms: C23_32  and  O6_33 
ROOT
ATOM      1  C2  <0> d          -1.832  -1.933  -0.007  0.00  0.00     0.018 A 
ATOM      2  C3  <0> d          -2.498  -3.155   0.002  0.00  0.00     0.039 A 
ATOM      3  C4  <0> d          -3.889  -3.140   0.082  0.00  0.00     0.066 A 
ATOM      4  C5  <0> d          -4.565  -1.901   0.151  0.00  0.00     0.101 A 
ATOM      5  C6  <0> d          -6.030  -1.915   0.234  0.00  0.00     0.091 A 
ATOM      6  C7  <0> d          -6.707  -3.122   0.247  0.00  0.00     0.130 A 
ATOM      7  N1  <0> d          -6.018  -4.328   0.176  0.00  0.00    -0.175 N 
ATOM      8  C8  <0> d          -4.676  -4.382   0.098  0.00  0.00     0.276 A 
ATOM      9  O1  <0> d          -4.114  -5.460   0.039  0.00  0.00    -0.266 OA
ATOM     10  C15 <0> d          -8.115  -3.135   0.339  0.00  0.00     0.181 C 
ATOM     11  O5  <0> d          -8.711  -4.194   0.301  0.00  0.00    -0.291 OA
ATOM     12  C16 <0> d          -8.888  -1.850   0.483  0.00  0.00     0.115 C 
ATOM     13  C17 <0> d          -8.120  -0.715  -0.203  0.00  0.00     0.125 C 
ATOM     14  N2  <0> d          -6.736  -0.729   0.295  0.00  0.00    -0.377 N 
ATOM     15  N3  <0> d          -3.882  -0.763   0.139  0.00  0.00    -0.256 NA
ATOM     16  C24 <0> d          -2.569  -0.749   0.069  0.00  0.00     0.136 A 
ATOM     17  H13 <0> d          -6.330   0.074   0.657  0.00  0.00     0.160 HD
ENDROOT
BRANCH   7  18
ATOM     18  S2  <0> d          -6.878  -5.743   0.190  0.00  0.00     0.376 S 
ATOM     19  O2  <0> d          -5.943  -6.788  -0.038  0.00  0.00    -0.174 OA
ATOM     20  O3  <0> d          -7.710  -5.702   1.341  0.00  0.00    -0.174 OA
BRANCH  18  21
ATOM     21  O4  <0> d          -7.805  -5.718  -1.017  0.00  0.00    -0.216 OA
BRANCH  21  22
ATOM     22  C9  <0> d          -7.177  -5.942  -2.201  0.00  0.00     0.091 A 
ATOM     23  C14 <0> d          -7.047  -7.236  -2.685  0.00  0.00     0.038 A 
ATOM     24  C13 <0> d          -6.413  -7.461  -3.891  0.00  0.00     0.003 A 
ATOM     25  C12 <0> d          -5.898  -6.399  -4.612  0.00  0.00     0.000 A 
ATOM     26  C11 <0> d          -6.021  -5.109  -4.129  0.00  0.00     0.003 A 
ATOM     27  C10 <0> d          -6.659  -4.878  -2.926  0.00  0.00     0.038 A 
ENDBRANCH  21  22
ENDBRANCH  18  21
ENDBRANCH   7  18
BRANCH  13  28
ATOM     28  C18 <0> d          -8.126  -0.927  -1.695  0.00  0.00    -0.002 A 
ATOM     29  C23 <0> d          -9.269  -0.650  -2.431  0.00  0.00     0.074 A 
ATOM     30  C22 <0> d          -9.269  -0.841  -3.806  0.00  0.00     0.037 A 
ATOM     31  C21 <0> d          -8.136  -1.317  -4.436  0.00  0.00     0.003 A 
ATOM     32  C20 <0> d          -7.000  -1.598  -3.699  0.00  0.00     0.001 A 
ATOM     33  C19 <0> d          -6.995  -1.403  -2.330  0.00  0.00     0.012 A 
BRANCH  29  34
ATOM     34  O6  <0> d         -10.384  -0.187  -1.808  0.00  0.00    -0.360 OA
ATOM     35  H18 <0> d         -10.429   0.777  -1.746  0.00  0.00     0.217 HD
ENDBRANCH  29  34
ENDBRANCH  13  28
BRANCH   1  36
ATOM     36  S1  <0> d          -0.074  -1.879  -0.108  0.00  0.00    -0.133 SA
ATOM     37  C1  <0> d           0.314  -0.107  -0.079  0.00  0.00     0.095 C 
ENDBRANCH   1  36
TORSDOF 6
