REMARK  1 active torsions:
REMARK  status: ('A' for Active; 'I' for Inactive)
REMARK    1  A    between atoms: C11_11  and  N1_13 
ROOT
ATOM      1  C1  <0> d           0.060   1.544   0.019  0.00  0.00     0.010 C 
ATOM      2  C2  <0> d           0.042   0.014   0.009  0.00  0.00    -0.016 C 
ATOM      3  C3  <0> d           0.731  -0.494  -1.254  0.00  0.00     0.009 C 
ATOM      4  C4  <0> d           2.230  -0.597  -0.960  0.00  0.00     0.041 C 
ATOM      5  C5  <0> d           2.593  -1.982  -0.495  0.00  0.00    -0.031 A 
ATOM      6  C6  <0> d           3.652  -2.618  -1.134  0.00  0.00     0.018 A 
ATOM      7  C7  <0> d           4.052  -3.880  -0.744  0.00  0.00     0.021 A 
ATOM      8  C8  <0> d           3.396  -4.516   0.293  0.00  0.00     0.021 A 
ATOM      9  C9  <0> d           2.340  -3.889   0.923  0.00  0.00     0.019 A 
ATOM     10  C10 <0> d           1.927  -2.622   0.521  0.00  0.00    -0.003 A 
ATOM     11  C11 <0> d           0.727  -2.038   1.226  0.00  0.00     0.218 C 
ATOM     12  C12 <0> d           0.779  -0.511   1.243  0.00  0.00     0.042 C 
ATOM     13 Br1  <0> d           1.445  -4.761   2.342  0.00  0.00    -0.050 Br
ATOM     14 Br2  <0> d           4.553  -1.745  -2.550  0.00  0.00    -0.051 Br
ENDROOT
BRANCH  11  15
ATOM     15  N1  <0> d           0.693  -2.532   2.608  0.00  0.00    -0.071 N 
ATOM     16  H14 <0> d           1.630  -2.762   2.906  0.00  0.00     0.275 HD
ATOM     17  H15 <0> d           0.314  -1.818   3.212  0.00  0.00     0.275 HD
ATOM     18  H16 <0> d           0.114  -3.357   2.657  0.00  0.00     0.275 HD
ENDBRANCH  11  15
TORSDOF 1
