REMARK  7 active torsions:
REMARK  status: ('A' for Active; 'I' for Inactive)
REMARK    1  A    between atoms: C3_3  and  N1_4 
REMARK       I    between atoms: N1_4  and  C4_5 
REMARK    2  A    between atoms: C4_5  and  C5_7 
REMARK    3  A    between atoms: C5_7  and  C6_8 
REMARK    4  A    between atoms: C6_8  and  N2_9 
REMARK       I    between atoms: N2_9  and  C7_10 
REMARK       I    between atoms: C7_10  and  N3_12 
REMARK    5  A    between atoms: N3_12  and  C8_13 
REMARK    6  A    between atoms: C13_18  and  C14_19 
REMARK    7  A    between atoms: C14_19  and  N4_20 
ROOT
ATOM      1  C1  <0> d           1.590  -1.803  -3.171  0.00  0.00     0.014 C 
ATOM      2  C2  <0> d           1.488  -0.634  -3.177  0.00  0.00    -0.098 C 
ATOM      3  C3  <0> d           1.360   0.833  -3.185  0.00  0.00     0.216 C 
ENDROOT
BRANCH   3   4
ATOM      4  N1  <0> d           2.503   1.426  -2.487  0.00  0.00    -0.351 N 
ATOM      5  C4  <0> d           2.599   2.765  -2.369  0.00  0.00     0.219 C 
ATOM      6  O1  <0> d           1.739   3.479  -2.841  0.00  0.00    -0.274 OA
ATOM      7  H4  <0> d           3.191   0.856  -2.110  0.00  0.00     0.163 HD
BRANCH   5   8
ATOM      8  C5  <0> d           3.775   3.376  -1.651  0.00  0.00     0.122 C 
BRANCH   8   9
ATOM      9  C6  <0> d           3.642   4.900  -1.659  0.00  0.00     0.133 C 
BRANCH   9  10
ATOM     10  N2  <0> d           4.785   5.494  -0.960  0.00  0.00    -0.342 N 
ATOM     11  C7  <0> d           4.880   6.833  -0.842  0.00  0.00     0.320 C 
ATOM     12  O2  <0> d           4.019   7.548  -1.315  0.00  0.00    -0.247 OA
ATOM     13  N3  <0> d           5.932   7.379  -0.200  0.00  0.00    -0.308 N 
ATOM     14  H10 <0> d           6.583   6.809   0.238  0.00  0.00     0.170 HD
ATOM     15  H9  <0> d           5.472   4.923  -0.583  0.00  0.00     0.164 HD
BRANCH  13  16
ATOM     16  C8  <0> d           6.085   8.770  -0.164  0.00  0.00     0.044 A 
ATOM     17  C13 <0> d           7.355   9.331  -0.176  0.00  0.00    -0.006 A 
ATOM     18  C12 <0> d           7.502  10.704  -0.147  0.00  0.00     0.011 A 
ATOM     19  C11 <0> d           6.387  11.519  -0.093  0.00  0.00     0.001 A 
ATOM     20  C10 <0> d           5.121  10.964  -0.076  0.00  0.00     0.002 A 
ATOM     21  C9  <0> d           4.966   9.592  -0.111  0.00  0.00     0.030 A 
BRANCH  17  22
ATOM     22  C14 <0> d           8.571   8.443  -0.228  0.00  0.00     0.275 C 
BRANCH  22  23
ATOM     23  N4  <0> d           8.766   7.958  -1.601  0.00  0.00    -0.066 N 
ATOM     24  C18 <0> d           9.104   9.091  -2.466  0.00  0.00     0.245 C 
ATOM     25  C17 <0> d           8.946   8.688  -3.937  0.00  0.00     0.101 C 
ATOM     26  S1  <0> d          10.117   7.339  -4.287  0.00  0.00    -0.166 SA
ATOM     27  C16 <0> d           9.797   6.171  -2.928  0.00  0.00     0.101 C 
ATOM     28  C15 <0> d           9.828   6.950  -1.608  0.00  0.00     0.245 C 
ATOM     29  H25 <0> d           7.909   7.537  -1.928  0.00  0.00     0.280 HD
ENDBRANCH  22  23
ENDBRANCH  17  22
ENDBRANCH  13  16
ENDBRANCH   9  10
ENDBRANCH   8   9
ENDBRANCH   5   8
ENDBRANCH   3   4
TORSDOF 7
