REMARK  3 active torsions:
REMARK  status: ('A' for Active; 'I' for Inactive)
REMARK    1  A    between atoms: N1_2  and  C3_4 
REMARK    2  A    between atoms: C4_5  and  N3_10 
REMARK    3  A    between atoms: N3_10  and  C8_11 
ROOT
ATOM      1  N3  <0> d           0.033  -2.797   0.205  0.00  0.00    -0.377 N 
ATOM      2  H11 <0> d           0.867  -2.305   0.272  0.00  0.00     0.160 HD
ENDROOT
BRANCH   1   3
ATOM      3  C4  <0> d          -1.181  -2.105   0.113  0.00  0.00     0.073 A 
ATOM      4  C3  <0> d          -1.200  -0.709   0.059  0.00  0.00     0.129 A 
ATOM      5  N2  <0> d          -2.347  -0.056  -0.024  0.00  0.00    -0.351 N 
ATOM      6  C7  <0> d          -3.505  -0.690  -0.069  0.00  0.00     0.090 A 
ATOM      7  H20 <0> d          -2.337   0.913  -0.055  0.00  0.00     0.166 HD
ATOM      8  C6  <0> d          -3.563  -2.068  -0.020  0.00  0.00     0.019 A 
ATOM      9  C5  <0> d          -2.384  -2.796   0.072  0.00  0.00     0.034 A 
BRANCH   4  10
ATOM     10  N1  <0> d          -0.002   0.001   0.098  0.00  0.00    -0.374 N 
ATOM     11  C1  <0> d           0.546   0.442   1.383  0.00  0.00     0.150 C 
ATOM     12  C2  <0> d           0.710   0.305  -1.145  0.00  0.00     0.150 C 
ENDBRANCH   4  10
ENDBRANCH   1   3
BRANCH   1  13
ATOM     13  C8  <0> d           0.044  -4.261   0.201  0.00  0.00     0.125 C 
ATOM     14  C12 <0> d           1.261  -4.734   0.944  0.00  0.00    -0.028 A 
ATOM     15  C11 <0> d           2.053  -5.806   0.633  0.00  0.00    -0.041 A 
ATOM     16  C13 <0> d           1.579  -3.971   2.073  0.00  0.00     0.010 A 
ATOM     17  C10 <0> d           1.873  -6.718  -0.556  0.00  0.00     0.113 C 
ATOM     18  C16 <0> d           3.139  -6.122   1.452  0.00  0.00     0.008 A 
ATOM     19  S1  <0> d           0.196  -6.553  -1.226  0.00  0.00    -0.162 SA
ATOM     20  C9  <0> d          -0.017  -4.744  -1.241  0.00  0.00     0.104 C 
ATOM     21  C15 <0> d           3.444  -5.372   2.558  0.00  0.00     0.001 A 
ATOM     22  C14 <0> d           2.654  -4.281   2.872  0.00  0.00     0.001 A 
ENDBRANCH   1  13
TORSDOF 3
