REMARK  9 active torsions:
REMARK  status: ('A' for Active; 'I' for Inactive)
REMARK    1  A    between atoms: C2_2  and  S1_4 
REMARK    2  A    between atoms: S1_4  and  C4_7 
REMARK    3  A    between atoms: C7_10  and  C11_16 
REMARK    4  A    between atoms: C8_11  and  O4_14 
REMARK    5  A    between atoms: C9_12  and  O3_13 
REMARK    6  A    between atoms: C11_16  and  C12_17 
REMARK    7  A    between atoms: C11_16  and  N1_20 
REMARK    8  A    between atoms: C12_17  and  C13_18 
REMARK    9  A    between atoms: N1_20  and  C14_21 
ROOT
ATOM      1  C4  <0> d           0.267   0.545   2.764  0.00  0.00     0.095 A 
ATOM      2  C5  <0> d          -0.334  -0.466   3.492  0.00  0.00     0.027 A 
ATOM      3  C6  <0> d          -1.276  -0.161   4.456  0.00  0.00     0.014 A 
ATOM      4  C7  <0> d          -1.622   1.156   4.697  0.00  0.00     0.001 A 
ATOM      5  C8  <0> d          -1.024   2.173   3.972  0.00  0.00     0.111 A 
ATOM      6  C9  <0> d          -0.071   1.867   3.005  0.00  0.00     0.121 A 
ENDROOT
BRANCH   4   7
ATOM      7  C11 <0> d          -2.651   1.484   5.749  0.00  0.00     0.126 C 
BRANCH   7   8
ATOM      8  C12 <0> d          -2.851   0.273   6.662  0.00  0.00     0.099 C 
BRANCH   8   9
ATOM      9  C13 <0> d          -3.800   0.635   7.776  0.00  0.00     0.233 C 
ATOM     10  O5  <0> d          -4.791  -0.027   7.963  0.00  0.00    -0.307 OA
ENDBRANCH   8   9
ENDBRANCH   7   8
BRANCH   7  11
ATOM     11  N1  <0> d          -3.920   1.823   5.101  0.00  0.00    -0.359 N 
ATOM     12  H18 <0> d          -4.195   1.354   4.297  0.00  0.00     0.162 HD
BRANCH  11  13
ATOM     13  C14 <0> d          -4.707   2.786   5.621  0.00  0.00     0.349 C 
ATOM     14  O6  <0> d          -4.363   3.372   6.626  0.00  0.00    -0.284 OA
ENDBRANCH  11  13
ENDBRANCH   7  11
ENDBRANCH   4   7
BRANCH   5  15
ATOM     15  O4  <0> d          -1.363   3.469   4.207  0.00  0.00    -0.352 OA
ATOM     16  C10 <0> d          -0.531   4.205   5.106  0.00  0.00     0.210 C 
ENDBRANCH   5  15
BRANCH   6  17
ATOM     17  O3  <0> d           0.523   2.862   2.294  0.00  0.00    -0.357 OA
ATOM     18  H11 <0> d           0.016   3.152   1.524  0.00  0.00     0.218 HD
ENDBRANCH   6  17
BRANCH   1  19
ATOM     19  S1  <0> d           1.468   0.152   1.536  0.00  0.00     0.181 S 
ATOM     20  O1  <0> d           1.039   0.849   0.374  0.00  0.00    -0.222 OA
ATOM     21  O2  <0> d           1.543  -1.267   1.543  0.00  0.00    -0.222 OA
BRANCH  19  22
ATOM     22  C2  <0> d           3.018   0.863   2.155  0.00  0.00     0.105 C 
ATOM     23  C1  <0> d           3.346   0.257   3.521  0.00  0.00     0.026 C 
ATOM     24  C3  <0> d           4.149   0.551   1.173  0.00  0.00     0.026 C 
ENDBRANCH  19  22
ENDBRANCH   1  19
TORSDOF 9
