REMARK  5 active torsions:
REMARK  status: ('A' for Active; 'I' for Inactive)
REMARK    1  A    between atoms: N1_7  and  C7_8 
REMARK    2  A    between atoms: C7_8  and  C8_9 
REMARK    3  A    between atoms: C8_9  and  N2_10 
REMARK       I    between atoms: N2_10  and  C9_11 
REMARK       I    between atoms: C9_11  and  N3_13 
REMARK    4  A    between atoms: N3_13  and  C10_14 
REMARK    5  A    between atoms: C10_14  and  C11_15 
ROOT
ATOM      1  N2  <0> d           4.113   0.250   2.546  0.00  0.00    -0.342 N 
ATOM      2  C9  <0> d           4.919   0.025   3.602  0.00  0.00     0.316 C 
ATOM      3  O1  <0> d           4.527  -0.653   4.532  0.00  0.00    -0.247 OA
ATOM      4  N3  <0> d           6.160   0.550   3.627  0.00  0.00    -0.338 N 
ATOM      5  H17 <0> d           4.426   0.791   1.803  0.00  0.00     0.164 HD
ATOM      6  H18 <0> d           6.473   1.091   2.885  0.00  0.00     0.164 HD
ENDROOT
BRANCH   1   7
ATOM      7  C8  <0> d           2.764  -0.321   2.518  0.00  0.00     0.152 C 
BRANCH   7   8
ATOM      8  C7  <0> d           2.066   0.083   1.218  0.00  0.00     0.255 C 
BRANCH   8   9
ATOM      9  N1  <0> d           0.713  -0.490   1.191  0.00  0.00    -0.066 N 
ATOM     10  C2  <0> d           0.002  -0.004   0.002  0.00  0.00     0.184 C 
ATOM     11  C1  <0> d          -0.019   1.526   0.010  0.00  0.00     0.040 C 
ATOM     12  C3  <0> d          -1.434  -0.533   0.011  0.00  0.00     0.033 C 
ATOM     13  C4  <0> d          -1.408  -2.064   0.003  0.00  0.00     0.004 C 
ATOM     14  C5  <0> d          -0.600  -2.558   1.206  0.00  0.00     0.028 C 
ATOM     15  C6  <0> d           0.805  -1.954   1.152  0.00  0.00     0.235 C 
ATOM     16  H23 <0> d           0.213  -0.206   2.020  0.00  0.00     0.280 HD
ENDBRANCH   8   9
ENDBRANCH   7   8
ENDBRANCH   1   7
BRANCH   4  17
ATOM     17  C10 <0> d           7.036   0.305   4.776  0.00  0.00     0.170 C 
BRANCH  17  18
ATOM     18  C11 <0> d           8.356   0.999   4.558  0.00  0.00     0.001 A 
ATOM     19  S1  <0> d           9.836   0.378   3.775  0.00  0.00    -0.103 SA
ATOM     20  C14 <0> d          10.850   1.835   3.960  0.00  0.00     0.069 A 
ATOM     21  C13 <0> d          10.008   2.682   4.604  0.00  0.00     0.018 A 
ATOM     22  C12 <0> d           8.730   2.253   4.910  0.00  0.00     0.035 A 
ATOM     23 Br1  <0> d          10.574   4.424   5.074  0.00  0.00    -0.051 Br
ENDBRANCH  17  18
ENDBRANCH   4  17
TORSDOF 5
