REMARK  3 active torsions:
REMARK  status: ('A' for Active; 'I' for Inactive)
REMARK    1  A    between atoms: C3_3  and  S1_9 
REMARK    2  A    between atoms: S1_9  and  N3_12 
REMARK    3  A    between atoms: C9_16  and  C10_17 
ROOT
ATOM      1  N3  <0> d           1.756   0.114  -3.408  0.00  0.00    -0.301 N 
ATOM      2  C6  <0> d           2.753   1.200  -3.399  0.00  0.00     0.136 C 
ATOM      3  C7  <0> d           4.109   0.491  -3.157  0.00  0.00     0.023 C 
ATOM      4  C8  <0> d           3.926  -0.819  -3.969  0.00  0.00     0.028 C 
ATOM      5  C9  <0> d           2.431  -1.143  -3.764  0.00  0.00     0.100 C 
ENDROOT
BRANCH   1   6
ATOM      6  S1  <0> d           0.144   0.280  -3.067  0.00  0.00     0.265 S 
ATOM      7  O1  <0> d          -0.532  -0.737  -3.793  0.00  0.00    -0.200 OA
ATOM      8  O2  <0> d          -0.163   1.659  -3.220  0.00  0.00    -0.200 OA
BRANCH   6   9
ATOM      9  C3  <0> d          -0.068  -0.096  -1.358  0.00  0.00     0.129 A 
ATOM     10  C2  <0> d          -0.002   0.787  -0.335  0.00  0.00     0.049 A 
ATOM     11  C1  <0> d           0.267   2.265  -0.452  0.00  0.00     0.071 C 
ATOM     12  N2  <0> d          -0.214   0.105   0.810  0.00  0.00    -0.281 N 
ATOM     13  N1  <0> d          -0.426  -1.239   0.479  0.00  0.00    -0.178 NA
ATOM     14  H1  <0> d          -0.221   0.481   1.705  0.00  0.00     0.189 HD
ATOM     15  C4  <0> d          -0.335  -1.359  -0.821  0.00  0.00     0.076 A 
ATOM     16  C5  <0> d          -0.492  -2.637  -1.603  0.00  0.00     0.074 C 
ENDBRANCH   6   9
ENDBRANCH   1   6
BRANCH   5  17
ATOM     17  C10 <0> d           1.841  -1.702  -5.060  0.00  0.00     0.012 C 
ATOM     18  C14 <0> d           1.969  -0.659  -6.173  0.00  0.00     0.034 C 
ATOM     19  C13 <0> d           1.450  -1.253  -7.484  0.00  0.00     0.232 C 
ATOM     20  N4  <0> d           2.237  -2.442  -7.832  0.00  0.00    -0.075 N 
ATOM     21  C12 <0> d           2.061  -3.474  -6.804  0.00  0.00     0.232 C 
ATOM     22  H20 <0> d           3.212  -2.192  -7.894  0.00  0.00     0.277 HD
ATOM     23  H25 <0> d           1.927  -2.800  -8.723  0.00  0.00     0.277 HD
ATOM     24  C11 <0> d           2.604  -2.966  -5.467  0.00  0.00     0.034 C 
ENDBRANCH   5  17
TORSDOF 3
