REMARK  4 active torsions:
REMARK  status: ('A' for Active; 'I' for Inactive)
REMARK    1  A    between atoms: C6_7  and  C16_20 
REMARK    2  A    between atoms: C7_8  and  N2_19 
REMARK    3  A    between atoms: C8_9  and  C9_10 
REMARK    4  A    between atoms: C9_10  and  C10_12 
REMARK       I    between atoms: C16_20  and  N3_22 
ROOT
ATOM      1  C1  <0> d          -0.050   1.079  -0.009  0.00  0.00     0.004 A 
ATOM      2  C2  <0> d           1.155   1.793  -0.023  0.00  0.00     0.018 A 
ATOM      3  C3  <0> d           1.144   3.146  -0.011  0.00  0.00     0.098 A 
ATOM      4  N1  <0> d          -0.031   3.834   0.015  0.00  0.00    -0.316 N 
ATOM      5  C4  <0> d          -1.219   3.162   0.029  0.00  0.00     0.057 A 
ATOM      6  C5  <0> d          -1.233   1.762   0.011  0.00  0.00     0.031 A 
ATOM      7  C6  <0> d          -2.266   4.112   0.054  0.00  0.00     0.087 A 
ATOM      8  C7  <0> d          -1.669   5.388   0.055  0.00  0.00     0.075 A 
ATOM      9  C8  <0> d          -0.288   5.198   0.031  0.00  0.00     0.118 A 
ENDROOT
BRANCH   9  10
ATOM     10  C9  <0> d           0.683   6.218   0.024  0.00  0.00     0.211 C 
ATOM     11  O1  <0> d           1.029   6.723  -1.030  0.00  0.00    -0.285 OA
BRANCH  10  12
ATOM     12  C10 <0> d           1.283   6.676   1.297  0.00  0.00     0.016 A 
ATOM     13  C15 <0> d           2.160   7.762   1.307  0.00  0.00     0.017 A 
ATOM     14  C14 <0> d           2.716   8.185   2.496  0.00  0.00     0.020 A 
ATOM     15  C13 <0> d           2.406   7.535   3.678  0.00  0.00     0.011 A 
ATOM     16  C12 <0> d           1.536   6.457   3.675  0.00  0.00     0.020 A 
ATOM     17 Br1  <0> d           3.173   8.120   5.304  0.00  0.00    -0.051 Br
ATOM     18  C11 <0> d           0.970   6.028   2.492  0.00  0.00     0.017 A 
ENDBRANCH  10  12
ENDBRANCH   9  10
BRANCH   8  19
ATOM     19  N2  <0> d          -2.330   6.605   0.076  0.00  0.00    -0.396 N 
ATOM     20  H9  <0> d          -3.298   6.632   0.018  0.00  0.00     0.156 HD
ATOM     21  H10 <0> d          -1.825   7.430   0.150  0.00  0.00     0.156 HD
ENDBRANCH   8  19
BRANCH   7  22
ATOM     22  C16 <0> d          -3.700   3.825   0.075  0.00  0.00     0.254 C 
ATOM     23  O2  <0> d          -4.279   3.696   1.139  0.00  0.00    -0.268 OA
ATOM     24  N3  <0> d          -4.380   3.702  -1.082  0.00  0.00    -0.366 N 
ATOM     25  H11 <0> d          -3.919   3.805  -1.929  0.00  0.00     0.159 HD
ATOM     26  H12 <0> d          -5.331   3.511  -1.068  0.00  0.00     0.159 HD
ENDBRANCH   7  22
TORSDOF 4
