REMARK  9 active torsions:
REMARK  status: ('A' for Active; 'I' for Inactive)
REMARK    1  A    between atoms: N1_2  and  C2_3 
REMARK    2  A    between atoms: N1_2  and  C13_16 
REMARK    3  A    between atoms: C2_3  and  C3_4 
REMARK    4  A    between atoms: C3_4  and  O1_5 
REMARK    5  A    between atoms: O1_5  and  C4_6 
REMARK    6  A    between atoms: C8_10  and  C10_12 
REMARK    7  A    between atoms: C11_13  and  C12_14 
REMARK    8  A    between atoms: C12_14  and  O2_15 
REMARK    9  A    between atoms: C13_16  and  C14_17 
REMARK       I    between atoms: C14_17  and  N2_19 
ROOT
ATOM      1  O1  <0> d          -2.224   1.522   1.187  0.00  0.00    -0.349 OA
ENDROOT
BRANCH   1   2
ATOM      2  C3  <0> d          -2.109   0.099   1.239  0.00  0.00     0.203 C 
BRANCH   2   3
ATOM      3  C2  <0> d          -1.411  -0.404  -0.026  0.00  0.00     0.261 C 
BRANCH   3   4
ATOM      4  N1  <0> d          -0.033   0.103  -0.060  0.00  0.00    -0.065 N 
ATOM      5  C1  <0> d           0.587  -0.249  -1.344  0.00  0.00     0.270 C 
ATOM      6  H19 <0> d          -0.041   1.107   0.046  0.00  0.00     0.280 HD
BRANCH   4   7
ATOM      7  C13 <0> d           0.737  -0.499   1.037  0.00  0.00     0.336 C 
BRANCH   7   8
ATOM      8  C14 <0> d           2.114   0.112   1.078  0.00  0.00     0.241 C 
ATOM      9  O3  <0> d           2.424   0.965   0.273  0.00  0.00    -0.272 OA
ATOM     10  N2  <0> d           3.002  -0.289   2.010  0.00  0.00    -0.369 N 
ATOM     11  H17 <0> d           2.754  -0.971   2.653  0.00  0.00     0.159 HD
ATOM     12  H18 <0> d           3.888   0.104   2.036  0.00  0.00     0.159 HD
ENDBRANCH   7   8
ENDBRANCH   4   7
ENDBRANCH   3   4
ENDBRANCH   2   3
ENDBRANCH   1   2
BRANCH   1  13
ATOM     13  C4  <0> d          -2.824   2.132   2.242  0.00  0.00     0.070 A 
ATOM     14  C9  <0> d          -2.968   3.509   2.255  0.00  0.00     0.057 A 
ATOM     15  C8  <0> d          -3.590   4.131   3.338  0.00  0.00     0.020 A 
ATOM     16  C7  <0> d          -4.054   3.362   4.406  0.00  0.00     0.021 A 
ATOM     17  C6  <0> d          -3.900   1.990   4.386  0.00  0.00     0.004 A 
ATOM     18  C5  <0> d          -3.288   1.375   3.309  0.00  0.00     0.037 A 
BRANCH  15  19
ATOM     19  C10 <0> d          -3.748   5.554   3.356  0.00  0.00    -0.065 C 
ATOM     20  C11 <0> d          -3.877   6.721   3.371  0.00  0.00    -0.075 C 
BRANCH  20  21
ATOM     21  C12 <0> d          -4.039   8.184   3.389  0.00  0.00     0.258 C 
BRANCH  21  22
ATOM     22  O2  <0> d          -3.489   8.739   2.193  0.00  0.00    -0.389 OA
ATOM     23  H14 <0> d          -3.561   9.702   2.138  0.00  0.00     0.210 HD
ENDBRANCH  21  22
ENDBRANCH  20  21
ENDBRANCH  15  19
ENDBRANCH   1  13
TORSDOF 9
