REMARK  4 active torsions:
REMARK  status: ('A' for Active; 'I' for Inactive)
REMARK    1  A    between atoms: C4_4  and  N1_12 
REMARK       I    between atoms: N1_12  and  C11_13 
REMARK    2  A    between atoms: C11_13  and  C12_15 
REMARK    3  A    between atoms: C15_18  and  C18_21 
REMARK    4  A    between atoms: C18_21  and  N2_22 
ROOT
ATOM      1  N1  <0> d           3.403   2.136   0.902  0.00  0.00    -0.348 N 
ATOM      2  C11 <0> d           4.070   3.233   0.494  0.00  0.00     0.252 C 
ATOM      3  O2  <0> d           3.926   3.645  -0.641  0.00  0.00    -0.268 OA
ATOM      4  H11 <0> d           3.534   1.763   1.929  0.00  0.00     0.163 HD
ENDROOT
BRANCH   1   5
ATOM      5  C4  <0> d           2.504   1.438  -0.021  0.00  0.00     0.123 C 
ATOM      6  C3  <0> d           2.371  -0.025   0.406  0.00  0.00     0.068 C 
ATOM      7  C2  <0> d           1.215  -0.653  -0.383  0.00  0.00     0.063 C 
ATOM      8  C1  <0> d           1.124  -2.147  -0.063  0.00  0.00     0.046 C 
ATOM      9  O1  <0> d           0.002  -0.004   0.002  0.00  0.00    -0.340 OA
ATOM     10  C20 <0> d           1.449  -0.460  -1.883  0.00  0.00     0.046 C 
ATOM     11  C10 <0> d          -0.016   1.354   0.009  0.00  0.00     0.078 A 
ATOM     12  C5  <0> d           1.149   2.099   0.002  0.00  0.00    -0.002 A 
ATOM     13  C9  <0> d          -1.248   2.001   0.031  0.00  0.00     0.037 A 
ATOM     14  C6  <0> d           1.083   3.483   0.015  0.00  0.00     0.012 A 
ATOM     15  C7  <0> d          -0.141   4.122   0.033  0.00  0.00     0.001 A 
ATOM     16  C8  <0> d          -1.308   3.380   0.038  0.00  0.00     0.003 A 
ENDBRANCH   1   5
BRANCH   2  17
ATOM     17  C12 <0> d           4.977   3.937   1.425  0.00  0.00     0.032 A 
ATOM     18  C17 <0> d           5.669   5.074   1.006  0.00  0.00     0.017 A 
ATOM     19  C16 <0> d           6.513   5.726   1.880  0.00  0.00     0.010 A 
ATOM     20  C15 <0> d           6.675   5.255   3.171  0.00  0.00    -0.038 A 
ATOM     21  C14 <0> d           5.992   4.128   3.594  0.00  0.00     0.010 A 
ATOM     22  C13 <0> d           5.140   3.470   2.731  0.00  0.00     0.017 A 
BRANCH  20  23
ATOM     23  C18 <0> d           7.599   5.972   4.121  0.00  0.00     0.192 C 
BRANCH  23  24
ATOM     24  N2  <0> d           6.850   6.998   4.850  0.00  0.00    -0.238 N 
ATOM     25  N5  <0> d           6.152   7.951   4.331  0.00  0.00    -0.044 NA
ATOM     26  N4  <0> d           5.636   8.652   5.280  0.00  0.00    -0.024 NA
ATOM     27  N3  <0> d           6.001   8.168   6.417  0.00  0.00    -0.122 NA
ATOM     28  C19 <0> d           6.765   7.127   6.187  0.00  0.00     0.256 A 
ENDBRANCH  23  24
ENDBRANCH  20  23
ENDBRANCH   2  17
TORSDOF 4
