REMARK  7 active torsions:
REMARK  status: ('A' for Active; 'I' for Inactive)
REMARK    1  A    between atoms: C6_6  and  N1_8 
REMARK       I    between atoms: N1_8  and  C8_9 
REMARK    2  A    between atoms: C8_9  and  C9_11 
REMARK       I    between atoms: C9_11  and  N2_13 
REMARK    3  A    between atoms: N2_13  and  C10_14 
REMARK    4  A    between atoms: C10_14  and  C11_15 
REMARK    5  A    between atoms: C11_15  and  C12_16 
REMARK    6  A    between atoms: C11_15  and  N4_25 
REMARK    7  A    between atoms: C15_19  and  N3_22 
ROOT
ATOM      1  C11 <0> d           3.618  10.106   0.421  0.00  0.00     0.273 C 
ENDROOT
BRANCH   1   2
ATOM      2  C10 <0> d           2.280   9.576  -0.095  0.00  0.00     0.164 C 
BRANCH   2   3
ATOM      3  N2  <0> d           2.249   8.117   0.036  0.00  0.00    -0.350 N 
ATOM      4  C9  <0> d           1.201   7.419  -0.444  0.00  0.00     0.309 C 
ATOM      5  O2  <0> d           0.283   7.998  -0.986  0.00  0.00    -0.262 OA
ATOM      6  H10 <0> d           3.082   7.591   0.527  0.00  0.00     0.162 HD
BRANCH   4   7
ATOM      7  C8  <0> d           1.170   5.931  -0.310  0.00  0.00     0.313 C 
ATOM      8  N1  <0> d           0.122   5.233  -0.790  0.00  0.00    -0.319 N 
ATOM      9  H9  <0> d          -0.681   5.752  -1.335  0.00  0.00     0.169 HD
ATOM     10  O1  <0> d           2.089   5.352   0.232  0.00  0.00    -0.262 OA
BRANCH   8  11
ATOM     11  C6  <0> d           0.056   3.851  -0.597  0.00  0.00     0.035 A 
ATOM     12  C5  <0> d          -0.493   3.036  -1.579  0.00  0.00     0.029 A 
ATOM     13  C4  <0> d          -0.557   1.670  -1.385  0.00  0.00     0.003 A 
ATOM     14  C3  <0> d          -0.074   1.114  -0.214  0.00  0.00     0.007 A 
ATOM     15  C2  <0> d           0.469   1.923   0.767  0.00  0.00    -0.060 A 
ATOM     16  C1  <0> d           0.987   1.312   2.044  0.00  0.00     0.048 C 
ATOM     17  C7  <0> d           0.540   3.288   0.578  0.00  0.00     0.036 A 
ENDBRANCH   8  11
ENDBRANCH   4   7
ENDBRANCH   2   3
ENDBRANCH   1   2
BRANCH   1  18
ATOM     18  C12 <0> d           3.637  11.610   0.315  0.00  0.00    -0.023 A 
ATOM     19  C17 <0> d           3.926  12.376   1.429  0.00  0.00     0.011 A 
ATOM     20  C16 <0> d           3.945  13.754   1.336  0.00  0.00     0.030 A 
ATOM     21  C15 <0> d           3.672  14.370   0.121  0.00  0.00     0.029 A 
ATOM     22  C14 <0> d           3.382  13.597  -0.997  0.00  0.00     0.030 A 
ATOM     23  C13 <0> d           3.371  12.219  -0.897  0.00  0.00     0.011 A 
BRANCH  21  24
ATOM     24  N3  <0> d           3.690  15.763   0.022  0.00  0.00    -0.390 N 
ATOM     25  C18 <0> d           3.997  16.576   1.201  0.00  0.00     0.149 C 
ATOM     26  C19 <0> d           3.402  16.410  -1.260  0.00  0.00     0.149 C 
ENDBRANCH  21  24
ENDBRANCH   1  18
BRANCH   1  27
ATOM     27  N4  <0> d           4.711   9.545  -0.384  0.00  0.00     0.102 N 
ATOM     28  C23 <0> d           4.289   9.342  -1.777  0.00  0.00     0.301 C 
ATOM     29  C22 <0> d           5.426   8.684  -2.561  0.00  0.00     0.264 C 
ATOM     30  N5  <0> d           6.621   9.537  -2.495  0.00  0.00    -0.072 N 
ATOM     31  C21 <0> d           7.043   9.740  -1.103  0.00  0.00     0.264 C 
ATOM     32  C24 <0> d           7.714   8.975  -3.300  0.00  0.00     0.269 C 
ATOM     33  H34 <0> d           6.361  10.518  -2.918  0.00  0.00     0.279 HD
ATOM     34  C20 <0> d           5.906  10.398  -0.318  0.00  0.00     0.301 C 
ENDBRANCH   1  27
TORSDOF 7
