REMARK  4 active torsions:
REMARK  status: ('A' for Active; 'I' for Inactive)
REMARK    1  A    between atoms: C5_6  and  C9_14 
REMARK    2  A    between atoms: C9_14  and  C10_15 
REMARK    3  A    between atoms: C10_15  and  N4_16 
REMARK    4  A    between atoms: N4_16  and  C11_17 
ROOT
ATOM      1  C1  <0> d          -0.019   1.526   0.010  0.00  0.00     0.016 C 
ATOM      2  C2  <0> d           0.002  -0.004   0.002  0.00  0.00    -0.026 C 
ATOM      3  C3  <0> d          -1.415  -0.504  -0.091  0.00  0.00     0.070 C 
ATOM      4  C4  <0> d          -1.504  -1.952  -0.453  0.00  0.00     0.043 A 
ATOM      5  N1  <0> d          -2.503  -2.508  -1.187  0.00  0.00    -0.347 N 
ATOM      6  C5  <0> d          -2.253  -3.837  -1.289  0.00  0.00     0.083 A 
ATOM      7  N2  <0> d          -1.148  -4.105  -0.662  0.00  0.00    -0.340 N 
ATOM      8  C6  <0> d          -0.640  -2.952  -0.132  0.00  0.00     0.124 A 
ATOM      9  H1  <0> d          -3.261  -2.038  -1.569  0.00  0.00     0.167 HD
ATOM     10  C7  <0> d           0.614  -2.886   0.615  0.00  0.00     0.270 C 
ATOM     11  O1  <0> d           1.195  -3.945   0.759  0.00  0.00    -0.266 OA
ATOM     12  N3  <0> d           1.199  -1.841   1.152  0.00  0.00    -0.355 N 
ATOM     13  C8  <0> d           0.733  -0.482   1.227  0.00  0.00     0.132 C 
ATOM     14  C16 <0> d           0.766  -0.475  -1.238  0.00  0.00     0.016 C 
ATOM     15  H7  <0> d           2.065  -2.008   1.554  0.00  0.00     0.162 HD
ATOM     16  H22 <0> d          -0.747  -4.985  -0.582  0.00  0.00     0.167 HD
ENDROOT
BRANCH   6  17
ATOM     17  C9  <0> d          -3.116  -4.838  -2.011  0.00  0.00     0.096 C 
BRANCH  17  18
ATOM     18  C10 <0> d          -2.664  -4.944  -3.469  0.00  0.00     0.127 C 
BRANCH  18  19
ATOM     19  N4  <0> d          -3.504  -5.918  -4.171  0.00  0.00    -0.388 N 
ATOM     20  H14 <0> d          -4.215  -6.376  -3.697  0.00  0.00     0.159 HD
BRANCH  19  21
ATOM     21  C11 <0> d          -3.280  -6.186  -5.524  0.00  0.00     0.045 A 
ATOM     22  C15 <0> d          -2.264  -5.536  -6.213  0.00  0.00     0.145 A 
ATOM     23  N5  <0> d          -2.046  -5.791  -7.488  0.00  0.00    -0.271 NA
ATOM     24  C14 <0> d          -2.781  -6.655  -8.159  0.00  0.00     0.116 A 
ATOM     25  C13 <0> d          -3.814  -7.338  -7.544  0.00  0.00     0.021 A 
ATOM     26  C12 <0> d          -4.075  -7.106  -6.203  0.00  0.00     0.032 A 
ENDBRANCH  19  21
ENDBRANCH  18  19
ENDBRANCH  17  18
ENDBRANCH   6  17
TORSDOF 4
