REMARK  5 active torsions:
REMARK  status: ('A' for Active; 'I' for Inactive)
REMARK    1  A    between atoms: C7_7  and  N1_8 
REMARK       I    between atoms: N1_8  and  C8_9 
REMARK       I    between atoms: C8_9  and  N2_11 
REMARK    2  A    between atoms: N2_11  and  C9_12 
REMARK    3  A    between atoms: C9_12  and  C10_13 
REMARK    4  A    between atoms: C10_13  and  C11_14 
REMARK    5  A    between atoms: C10_13  and  N3_19 
ROOT
ATOM      1  N1  <0> d          -2.566  -3.130   5.105  0.00  0.00    -0.308 N 
ATOM      2  C8  <0> d          -1.377  -2.496   5.136  0.00  0.00     0.320 C 
ATOM      3  O1  <0> d          -0.562  -2.689   4.255  0.00  0.00    -0.247 OA
ATOM      4  N2  <0> d          -1.093  -1.648   6.144  0.00  0.00    -0.341 N 
ATOM      5  H8  <0> d          -3.244  -2.924   5.767  0.00  0.00     0.170 HD
ATOM      6  H9  <0> d          -1.743  -1.494   6.847  0.00  0.00     0.164 HD
ENDROOT
BRANCH   4   7
ATOM      7  C9  <0> d           0.199  -0.958   6.179  0.00  0.00     0.163 C 
BRANCH   7   8
ATOM      8  C10 <0> d           0.318  -0.162   7.480  0.00  0.00     0.245 C 
BRANCH   8   9
ATOM      9  C11 <0> d           0.345  -1.112   8.649  0.00  0.00     0.015 A 
ATOM     10  S1  <0> d           1.708  -2.073   9.286  0.00  0.00    -0.104 SA
ATOM     11  C14 <0> d           0.847  -2.871  10.632  0.00  0.00     0.050 A 
ATOM     12  C13 <0> d          -0.404  -2.364  10.503  0.00  0.00     0.008 A 
ATOM     13  C12 <0> d          -0.661  -1.463   9.487  0.00  0.00     0.017 A 
ENDBRANCH   8   9
BRANCH   8  14
ATOM     14  N3  <0> d           1.558   0.626   7.460  0.00  0.00    -0.061 N 
ATOM     15  C18 <0> d           1.732   1.334   8.747  0.00  0.00     0.236 C 
ATOM     16  C17 <0> d           2.378   2.695   8.430  0.00  0.00     0.029 C 
ATOM     17  C16 <0> d           2.527   2.723   6.891  0.00  0.00     0.029 C 
ATOM     18  C15 <0> d           1.475   1.686   6.423  0.00  0.00     0.236 C 
ATOM     19  H23 <0> d           2.349   0.025   7.284  0.00  0.00     0.280 HD
ENDBRANCH   8  14
ENDBRANCH   7   8
ENDBRANCH   4   7
BRANCH   1  20
ATOM     20  C7  <0> d          -2.822  -4.088   4.116  0.00  0.00     0.042 A 
ATOM     21  C2  <0> d          -3.618  -5.189   4.404  0.00  0.00    -0.034 A 
ATOM     22  C1  <0> d          -4.207  -5.354   5.781  0.00  0.00     0.050 C 
ATOM     23  C3  <0> d          -3.873  -6.129   3.425  0.00  0.00     0.028 A 
ATOM     24  C4  <0> d          -3.333  -5.978   2.160  0.00  0.00     0.011 A 
ATOM     25  C5  <0> d          -2.535  -4.884   1.873  0.00  0.00     0.021 A 
ATOM     26 Br1  <0> d          -3.685  -7.267   0.823  0.00  0.00    -0.051 Br
ATOM     27  C6  <0> d          -2.276  -3.941   2.848  0.00  0.00     0.031 A 
ENDBRANCH   1  20
TORSDOF 5
