REMARK  4 active torsions:
REMARK  status: ('A' for Active; 'I' for Inactive)
REMARK    1  A    between atoms: C2_2  and  C3_3 
REMARK    2  A    between atoms: C4_6  and  C5_8 
REMARK       I    between atoms: N4_12  and  C10_14 
REMARK    3  A    between atoms: C10_14  and  C11_16 
REMARK    4  A    between atoms: C11_16  and  C12_17 
ROOT
ATOM      1  C5  <0> d          -3.729  -2.654  -1.227  0.00  0.00     0.048 C 
ATOM      2  C6  <0> d          -5.259  -2.624  -1.237  0.00  0.00     0.011 C 
ATOM      3  C7  <0> d          -5.776  -3.305  -2.506  0.00  0.00     0.020 C 
ATOM      4  C8  <0> d          -5.321  -4.768  -2.516  0.00  0.00     0.126 C 
ATOM      5  N4  <0> d          -3.861  -4.811  -2.361  0.00  0.00    -0.351 N 
ATOM      6  C9  <0> d          -3.250  -4.110  -1.223  0.00  0.00     0.134 C 
ATOM      7  C10 <0> d          -3.095  -5.481  -3.245  0.00  0.00     0.223 C 
ATOM      8  O1  <0> d          -1.891  -5.508  -3.105  0.00  0.00    -0.273 OA
ENDROOT
BRANCH   7   9
ATOM      9  C11 <0> d          -3.736  -6.195  -4.407  0.00  0.00     0.139 C 
BRANCH   9  10
ATOM     10  C12 <0> d          -2.669  -6.860  -5.238  0.00  0.00    -0.041 A 
ATOM     11  C19 <0> d          -1.851  -6.228  -6.342  0.00  0.00     0.155 A 
ATOM     12  N5  <0> d          -0.956  -7.281  -6.833  0.00  0.00    -0.385 N 
ATOM     13  C18 <0> d          -1.188  -8.378  -6.153  0.00  0.00     0.038 A 
ATOM     14  H26 <0> d          -0.303  -7.184  -7.544  0.00  0.00     0.160 HD
ATOM     15  C13 <0> d          -2.253  -8.144  -5.151  0.00  0.00    -0.005 A 
ATOM     16  C17 <0> d          -0.612  -9.676  -6.224  0.00  0.00     0.030 A 
ATOM     17  C14 <0> d          -2.653  -9.263  -4.289  0.00  0.00     0.014 A 
ATOM     18  C15 <0> d          -2.039 -10.459  -4.440  0.00  0.00     0.001 A 
ATOM     19  C16 <0> d          -1.033 -10.656  -5.396  0.00  0.00     0.002 A 
ENDBRANCH   9  10
ENDBRANCH   7   9
BRANCH   1  20
ATOM     20  C4  <0> d          -3.212  -1.944   0.026  0.00  0.00     0.206 A 
ATOM     21  N2  <0> d          -3.632  -0.531   0.030  0.00  0.00    -0.289 N 
ATOM     22  N1  <0> d          -2.452   0.224   0.021  0.00  0.00    -0.164 NA
ATOM     23  H8  <0> d          -4.541  -0.193   0.037  0.00  0.00     0.184 HD
ATOM     24  C3  <0> d          -1.412  -0.526   0.013  0.00  0.00     0.121 A 
ATOM     25  N3  <0> d          -1.741  -1.873   0.009  0.00  0.00    -0.354 N 
ATOM     26  H9  <0> d          -1.124  -2.621  -0.002  0.00  0.00     0.163 HD
BRANCH  24  27
ATOM     27  C2  <0> d           0.002  -0.004   0.002  0.00  0.00     0.075 C 
ATOM     28  C1  <0> d          -0.019   1.526   0.010  0.00  0.00     0.013 C 
ENDBRANCH  24  27
ENDBRANCH   1  20
TORSDOF 4
