REMARK  2 active torsions:
REMARK  status: ('A' for Active; 'I' for Inactive)
REMARK    1  A    between atoms: C13_14  and  O4_18 
REMARK    2  A    between atoms: C14_15  and  O3_17 
ROOT
ATOM      1  C1  <0> d          -0.019   1.526   0.010  0.00  0.00     0.046 C 
ATOM      2  C2  <0> d           0.002  -0.004   0.002  0.00  0.00     0.066 C 
ATOM      3  C3  <0> d          -1.445  -0.584   0.004  0.00  0.00     0.051 C 
ATOM      4  C4  <0> d          -1.131  -1.982  -0.574  0.00  0.00     0.085 C 
ATOM      5  C5  <0> d           0.076  -2.530   0.275  0.00  0.00     0.139 C 
ATOM      6  C6  <0> d           0.052  -1.965   1.616  0.00  0.00     0.023 C 
ATOM      7  C7  <0> d           0.719  -0.535   1.202  0.00  0.00     0.027 C 
ATOM      8  C8  <0> d           0.903   0.167   2.510  0.00  0.00     0.017 C 
ATOM      9  C9  <0> d           1.215  -0.977   3.519  0.00  0.00    -0.047 C 
ATOM     10  C10 <0> d           1.006  -2.388   2.729  0.00  0.00     0.016 C 
ATOM     11  C11 <0> d           2.646  -0.842   4.043  0.00  0.00     0.015 C 
ATOM     12  C12 <0> d           0.222  -0.940   4.682  0.00  0.00     0.015 C 
ATOM     13  O1  <0> d           0.515  -3.627  -0.449  0.00  0.00    -0.350 OA
ATOM     14  C13 <0> d           0.783  -2.918  -1.720  0.00  0.00     0.320 C 
ATOM     15  C14 <0> d          -0.142  -1.661  -1.740  0.00  0.00     0.219 C 
ATOM     16  O2  <0> d           0.577  -0.510  -1.232  0.00  0.00    -0.339 OA
ENDROOT
BRANCH  15  17
ATOM     17  O3  <0> d          -0.790  -1.440  -2.994  0.00  0.00    -0.361 OA
ATOM     18  H21 <0> d          -0.183  -1.241  -3.720  0.00  0.00     0.213 HD
ENDBRANCH  15  17
BRANCH  14  19
ATOM     19  O4  <0> d           2.156  -2.528  -1.783  0.00  0.00    -0.366 OA
ATOM     20  H22 <0> d           2.777  -3.269  -1.760  0.00  0.00     0.212 HD
ENDBRANCH  14  19
TORSDOF 2
