REMARK  4 active torsions:
REMARK  status: ('A' for Active; 'I' for Inactive)
REMARK    1  A    between atoms: C4_5  and  N3_17 
REMARK    2  A    between atoms: C5_6  and  S1_7 
REMARK    3  A    between atoms: S1_7  and  N2_10 
REMARK    4  A    between atoms: N3_17  and  N4_18 
ROOT
ATOM      1  C1  <0> d           0.964  -0.207  -0.977  0.00  0.00     0.050 A 
ATOM      2  C2  <0> d           2.168   0.478  -0.875  0.00  0.00     0.030 A 
ATOM      3  C3  <0> d           2.310   1.455   0.091  0.00  0.00     0.138 A 
ATOM      4  N1  <0> d           1.318   1.743   0.912  0.00  0.00    -0.239 NA
ATOM      5  C4  <0> d           0.156   1.113   0.846  0.00  0.00     0.161 A 
ATOM      6  C5  <0> d          -0.057   0.117  -0.102  0.00  0.00     0.127 A 
ATOM      7 Br1  <0> d           3.599   0.076  -2.044  0.00  0.00    -0.050 Br
ENDROOT
BRANCH   6   8
ATOM      8  S1  <0> d          -1.605  -0.719  -0.187  0.00  0.00     0.264 S 
ATOM      9  O1  <0> d          -1.589  -1.709   0.832  0.00  0.00    -0.200 OA
ATOM     10  O2  <0> d          -2.607   0.287  -0.255  0.00  0.00    -0.200 OA
BRANCH   8  11
ATOM     11  N2  <0> d          -1.647  -1.527  -1.632  0.00  0.00    -0.305 N 
ATOM     12  C9  <0> d          -1.277  -2.942  -1.680  0.00  0.00     0.148 C 
ATOM     13  C8  <0> d          -2.513  -3.776  -2.058  0.00  0.00     0.129 C 
ATOM     14  S2  <0> d          -3.152  -3.176  -3.651  0.00  0.00     0.018 S 
ATOM     15  C7  <0> d          -3.370  -1.394  -3.365  0.00  0.00     0.129 C 
ATOM     16  O3  <0> d          -4.416  -3.772  -3.909  0.00  0.00    -0.258 OA
ATOM     17  C6  <0> d          -2.048  -0.815  -2.847  0.00  0.00     0.148 C 
ENDBRANCH   8  11
ENDBRANCH   6   8
BRANCH   5  18
ATOM     18  N3  <0> d          -0.861   1.448   1.733  0.00  0.00    -0.307 N 
ATOM     19  H11 <0> d          -1.708   0.977   1.700  0.00  0.00     0.182 HD
BRANCH  18  20
ATOM     20  N4  <0> d          -0.668   2.442   2.650  0.00  0.00    -0.248 NA
ATOM     21  H12 <0> d          -0.402   3.304   2.198  0.00  0.00     0.143 HD
ATOM     22  H13 <0> d          -1.490   2.572   3.221  0.00  0.00     0.143 HD
ENDBRANCH  18  20
ENDBRANCH   5  18
TORSDOF 4
