REMARK  4 active torsions:
REMARK  status: ('A' for Active; 'I' for Inactive)
REMARK    1  A    between atoms: C2_2  and  C3_3 
REMARK    2  A    between atoms: C2_2  and  N1_9 
REMARK    3  A    between atoms: N1_9  and  S2_10 
REMARK    4  A    between atoms: S2_10  and  C7_13 
ROOT
ATOM      1  S2  <0> d          -0.188  -0.875  -2.551  0.00  0.00     0.233 S 
ATOM      2  O1  <0> d           0.781  -1.306  -3.498  0.00  0.00    -0.205 OA
ATOM      3  O2  <0> d          -1.190  -1.767  -2.083  0.00  0.00    -0.205 OA
ENDROOT
BRANCH   1   4
ATOM      4  N1  <0> d           0.688  -0.476  -1.203  0.00  0.00    -0.310 N 
ATOM      5  H8  <0> d           1.655  -0.556  -1.212  0.00  0.00     0.172 HD
BRANCH   4   6
ATOM      6  C2  <0> d           0.002  -0.004   0.002  0.00  0.00     0.128 C 
ATOM      7  C1  <0> d          -0.019   1.526   0.010  0.00  0.00     0.038 C 
BRANCH   6   8
ATOM      8  C3  <0> d           0.731  -0.503   1.223  0.00  0.00     0.007 A 
ATOM      9  S1  <0> d           2.489  -0.629   1.510  0.00  0.00    -0.080 SA
ATOM     10  C6  <0> d           2.427  -1.297   3.164  0.00  0.00     0.075 A 
ATOM     11  C5  <0> d           1.091  -1.386   3.381  0.00  0.00     0.032 A 
ATOM     12 Cl1  <0> d           3.737  -1.728   4.219  0.00  0.00    -0.076 Cl
ATOM     13  C4  <0> d           0.222  -0.979   2.385  0.00  0.00     0.019 A 
ENDBRANCH   6   8
ENDBRANCH   4   6
ENDBRANCH   1   4
BRANCH   1  14
ATOM     14  C7  <0> d          -0.942   0.683  -3.095  0.00  0.00     0.154 C 
ATOM     15  C11 <0> d          -1.782   0.434  -4.349  0.00  0.00     0.254 C 
ATOM     16  N2  <0> d          -2.391   1.694  -4.793  0.00  0.00    -0.074 N 
ATOM     17  C10 <0> d          -1.342   2.648  -5.171  0.00  0.00     0.232 C 
ATOM     18  H15 <0> d          -2.942   2.081  -4.042  0.00  0.00     0.277 HD
ATOM     19  H18 <0> d          -2.986   1.516  -5.588  0.00  0.00     0.277 HD
ATOM     20  C9  <0> d          -0.486   2.983  -3.947  0.00  0.00     0.029 C 
ATOM     21  C8  <0> d           0.158   1.699  -3.416  0.00  0.00     0.025 C 
ENDBRANCH   1  14
TORSDOF 4
