REMARK  5 active torsions:
REMARK  status: ('A' for Active; 'I' for Inactive)
REMARK    1  A    between atoms: C2_2  and  N1_3 
REMARK    2  A    between atoms: C6_7  and  N2_9 
REMARK       I    between atoms: N2_9  and  C8_10 
REMARK       I    between atoms: C8_10  and  N3_12 
REMARK    3  A    between atoms: N3_12  and  N4_13 
REMARK       I    between atoms: N4_13  and  C9_14 
REMARK    4  A    between atoms: C9_14  and  C10_16 
REMARK    5  A    between atoms: C13_19  and  N5_22 
ROOT
ATOM      1  N4  <0> d           1.912  -6.603  -2.199  0.00  0.00    -0.262 N 
ATOM      2  C9  <0> d           2.025  -7.945  -2.151  0.00  0.00     0.270 C 
ATOM      3  O2  <0> d           2.945  -8.499  -2.721  0.00  0.00    -0.266 OA
ATOM      4  H17 <0> d           1.178  -6.161  -1.744  0.00  0.00     0.190 HD
ENDROOT
BRANCH   1   5
ATOM      5  N3  <0> d           2.856  -5.846  -2.905  0.00  0.00    -0.249 N 
ATOM      6  C8  <0> d           2.744  -4.503  -2.952  0.00  0.00     0.335 C 
ATOM      7  N2  <0> d           1.724  -3.890  -2.321  0.00  0.00    -0.336 N 
ATOM      8  O1  <0> d           3.563  -3.846  -3.565  0.00  0.00    -0.246 OA
ATOM      9  H15 <0> d           1.070  -4.414  -1.832  0.00  0.00     0.164 HD
ATOM     10  H16 <0> d           3.590  -6.287  -3.359  0.00  0.00     0.192 HD
BRANCH   7  11
ATOM     11  C6  <0> d           1.601  -2.431  -2.373  0.00  0.00     0.112 C 
ATOM     12  C5  <0> d           0.861  -2.025  -3.650  0.00  0.00     0.028 C 
ATOM     13  C4  <0> d           0.671  -0.505  -3.657  0.00  0.00     0.030 C 
ATOM     14  C3  <0> d          -0.082  -0.085  -2.392  0.00  0.00     0.235 C 
ATOM     15  N1  <0> d           0.690  -0.478  -1.207  0.00  0.00    -0.070 N 
ATOM     16  C7  <0> d           0.815  -1.939  -1.155  0.00  0.00     0.260 C 
ATOM     17  H30 <0> d           1.609  -0.064  -1.253  0.00  0.00     0.279 HD
BRANCH  15  18
ATOM     18  C2  <0> d           0.002  -0.004   0.002  0.00  0.00     0.230 C 
ATOM     19  C1  <0> d          -0.019   1.526   0.010  0.00  0.00     0.034 C 
ENDBRANCH  15  18
ENDBRANCH   7  11
ENDBRANCH   1   5
BRANCH   2  20
ATOM     20  C10 <0> d           1.030  -8.743  -1.407  0.00  0.00     0.033 A 
ATOM     21  C15 <0> d           1.145 -10.135  -1.357  0.00  0.00     0.019 A 
ATOM     22  C14 <0> d           0.218 -10.876  -0.657  0.00  0.00     0.031 A 
ATOM     23  C13 <0> d          -0.837 -10.241  -0.011  0.00  0.00     0.039 A 
ATOM     24  C12 <0> d          -0.958  -8.857  -0.064  0.00  0.00     0.031 A 
ATOM     25  C11 <0> d          -0.032  -8.109  -0.757  0.00  0.00     0.019 A 
BRANCH  23  26
ATOM     26  N5  <0> d          -1.779 -10.997   0.693  0.00  0.00    -0.320 N 
ATOM     27  C19 <0> d          -2.646 -11.901   0.145  0.00  0.00     0.013 A 
ATOM     28  C18 <0> d          -3.390 -12.426   1.140  0.00  0.00     0.027 A 
ATOM     29  C20 <0> d          -2.749 -12.253  -1.316  0.00  0.00     0.068 C 
ATOM     30  C17 <0> d          -2.976 -11.820   2.344  0.00  0.00     0.027 A 
ATOM     31  C16 <0> d          -1.991 -10.950   2.042  0.00  0.00     0.013 A 
ATOM     32  C21 <0> d          -1.251 -10.079   3.023  0.00  0.00     0.068 C 
ENDBRANCH  23  26
ENDBRANCH   2  20
TORSDOF 5
