REMARK  5 active torsions:
REMARK  status: ('A' for Active; 'I' for Inactive)
REMARK    1  A    between atoms: C5_6  and  C10_12 
REMARK    2  A    between atoms: C10_12  and  N3_13 
REMARK    3  A    between atoms: N3_13  and  C12_15 
REMARK    4  A    between atoms: C12_15  and  C13_16 
REMARK    5  A    between atoms: C15_19  and  C16_21 
ROOT
ATOM      1  C13 <0> d          -0.754   6.812  -8.423  0.00  0.00     0.278 C 
ATOM      2  C14 <0> d          -0.982   7.340  -9.856  0.00  0.00     0.155 C 
ATOM      3  O1  <0> d          -1.621   8.621  -9.651  0.00  0.00    -0.346 OA
ATOM      4  C15 <0> d          -2.503   8.396  -8.530  0.00  0.00     0.393 C 
ATOM      5  N4  <0> d          -1.746   7.532  -7.592  0.00  0.00     0.125 N 
ATOM      6  C23 <0> d           0.353   7.512 -10.584  0.00  0.00     0.042 C 
ATOM      7  H20 <0> d          -2.360   6.885  -7.120  0.00  0.00     0.320 HD
ENDROOT
BRANCH   1   8
ATOM      8  C12 <0> d          -1.004   5.303  -8.364  0.00  0.00     0.273 C 
BRANCH   8   9
ATOM      9  N3  <0> d          -0.938   4.850  -6.969  0.00  0.00    -0.066 N 
ATOM     10  C11 <0> d           0.426   5.037  -6.457  0.00  0.00     0.270 C 
ATOM     11  H28 <0> d          -1.583   5.387  -6.409  0.00  0.00     0.280 HD
BRANCH   9  12
ATOM     12  C10 <0> d          -1.296   3.427  -6.899  0.00  0.00     0.312 C 
BRANCH  12  13
ATOM     13  C5  <0> d          -1.347   2.992  -5.457  0.00  0.00     0.131 A 
ATOM     14  N1  <0> d          -0.320   2.603  -4.759  0.00  0.00    -0.232 NA
ATOM     15  C4  <0> d          -0.718   2.283  -3.500  0.00  0.00     0.086 A 
ATOM     16  C3  <0> d          -0.047   1.821  -2.366  0.00  0.00     0.041 A 
ATOM     17  C6  <0> d          -2.105   2.501  -3.442  0.00  0.00     0.063 A 
ATOM     18  C2  <0> d          -0.742   1.585  -1.213  0.00  0.00    -0.054 A 
ATOM     19  C1  <0> d          -0.013   1.086   0.008  0.00  0.00     0.049 C 
ATOM     20  C8  <0> d          -2.112   1.795  -1.157  0.00  0.00    -0.054 A 
ATOM     21  C7  <0> d          -2.794   2.255  -2.263  0.00  0.00     0.039 A 
ATOM     22  C9  <0> d          -2.859   1.523   0.124  0.00  0.00     0.049 C 
ATOM     23  N2  <0> d          -2.473   2.949  -4.695  0.00  0.00    -0.341 N 
ATOM     24  H8  <0> d          -3.369   3.189  -4.980  0.00  0.00     0.167 HD
ENDBRANCH  12  13
ENDBRANCH   9  12
ENDBRANCH   8   9
ENDBRANCH   1   8
BRANCH   4  25
ATOM     25  C16 <0> d          -2.849   9.705  -7.868  0.00  0.00     0.025 A 
ATOM     26  C21 <0> d          -3.770  10.553  -8.455  0.00  0.00     0.047 A 
ATOM     27  C20 <0> d          -4.093  11.754  -7.849  0.00  0.00     0.064 A 
ATOM     28 Cl1  <0> d          -4.527  10.107  -9.953  0.00  0.00    -0.084 Cl
ATOM     29  C19 <0> d          -3.487  12.114  -6.657  0.00  0.00     0.106 A 
ATOM     30  C18 <0> d          -2.555  11.262  -6.069  0.00  0.00     0.105 A 
ATOM     31  O2  <0> d          -3.623  13.222  -5.871  0.00  0.00    -0.323 OA
ATOM     32  C17 <0> d          -2.240  10.059  -6.678  0.00  0.00     0.053 A 
ATOM     33  O3  <0> d          -2.107  11.836  -4.914  0.00  0.00    -0.323 OA
ATOM     34  C22 <0> d          -3.072  12.855  -4.592  0.00  0.00     0.352 C 
ENDBRANCH   4  25
TORSDOF 5
