REMARK  6 active torsions:
REMARK  status: ('A' for Active; 'I' for Inactive)
REMARK    1  A    between atoms: C5_5  and  N1_9 
REMARK    2  A    between atoms: N1_9  and  C9_10 
REMARK    3  A    between atoms: C9_10  and  N2_12 
REMARK    4  A    between atoms: N2_12  and  N3_13 
REMARK    5  A    between atoms: C13_18  and  O3_28 
REMARK    6  A    between atoms: C14_19  and  O2_26 
ROOT
ATOM      1  N3  <0> d           4.804  -0.163   0.158  0.00  0.00    -0.190 N 
ATOM      2  C10 <0> d           5.488  -0.003   1.312  0.00  0.00     0.281 A 
ATOM      3  O1  <0> d           5.074  -0.477   2.353  0.00  0.00    -0.265 OA
ATOM      4  C11 <0> d           6.746   0.761   1.278  0.00  0.00     0.063 A 
ATOM      5  C12 <0> d           7.507   0.968   2.429  0.00  0.00     0.059 A 
ATOM      6  C13 <0> d           8.680   1.692   2.349  0.00  0.00     0.102 A 
ATOM      7  C14 <0> d           9.103   2.211   1.123  0.00  0.00     0.103 A 
ATOM      8  C15 <0> d           8.352   2.009  -0.023  0.00  0.00     0.070 A 
ATOM      9  C16 <0> d           7.174   1.285   0.045  0.00  0.00     0.053 A 
ATOM     10  N4  <0> d           6.394   1.061  -1.082  0.00  0.00    -0.331 N 
ATOM     11  H1  <0> d           6.675   1.416  -1.940  0.00  0.00     0.168 HD
ATOM     12  C17 <0> d           5.255   0.352  -0.996  0.00  0.00     0.201 A 
ATOM     13  S2  <0> d           4.336   0.101  -2.419  0.00  0.00    -0.038 SA
ENDROOT
BRANCH   1  14
ATOM     14  N2  <0> d           3.605  -0.886   0.166  0.00  0.00    -0.264 N 
ATOM     15  H12 <0> d           3.622  -1.853   0.234  0.00  0.00     0.190 HD
BRANCH  14  16
ATOM     16  C9  <0> d           2.426  -0.237   0.079  0.00  0.00     0.191 C 
ATOM     17  S1  <0> d           0.960  -1.121   0.089  0.00  0.00    -0.039 SA
BRANCH  16  18
ATOM     18  N1  <0> d           2.402   1.107  -0.015  0.00  0.00    -0.332 N 
ATOM     19  H11 <0> d           3.233   1.603  -0.083  0.00  0.00     0.168 HD
BRANCH  18  20
ATOM     20  C5  <0> d           1.180   1.786  -0.015  0.00  0.00     0.040 A 
ATOM     21  C4  <0> d           0.142   1.353  -0.830  0.00  0.00     0.030 A 
ATOM     22  C3  <0> d          -1.062   2.029  -0.832  0.00  0.00     0.009 A 
ATOM     23  C2  <0> d          -1.238   3.131  -0.015  0.00  0.00    -0.061 A 
ATOM     24  C1  <0> d          -2.555   3.864  -0.016  0.00  0.00     0.048 C 
ATOM     25  C7  <0> d          -0.208   3.565   0.798  0.00  0.00     0.015 A 
ATOM     26  C6  <0> d           1.001   2.896   0.801  0.00  0.00    -0.035 A 
ATOM     27  C8  <0> d           2.123   3.370   1.688  0.00  0.00     0.050 C 
ENDBRANCH  18  20
ENDBRANCH  16  18
ENDBRANCH  14  16
ENDBRANCH   1  14
BRANCH   6  28
ATOM     28  O3  <0> d           9.427   1.899   3.467  0.00  0.00    -0.353 OA
ATOM     29  C19 <0> d           8.936   1.340   4.687  0.00  0.00     0.210 C 
ENDBRANCH   6  28
BRANCH   7  30
ATOM     30  O2  <0> d          10.259   2.921   1.055  0.00  0.00    -0.353 OA
ATOM     31  C18 <0> d          10.636   3.426  -0.227  0.00  0.00     0.210 C 
ENDBRANCH   7  30
TORSDOF 6
