REMARK  5 active torsions:
REMARK  status: ('A' for Active; 'I' for Inactive)
REMARK    1  A    between atoms: C7_7  and  C12_15 
REMARK    2  A    between atoms: C12_15  and  C13_16 
REMARK    3  A    between atoms: C13_16  and  N2_17 
REMARK    4  A    between atoms: N2_17  and  C14_18 
REMARK    5  A    between atoms: N3_20  and  C15_21 
ROOT
ATOM      1  C12 <0> d           2.919   3.125  -0.043  0.00  0.00     0.064 C 
ENDROOT
BRANCH   1   2
ATOM      2  C7  <0> d           1.860   2.054  -0.075  0.00  0.00     0.012 A 
ATOM      3  C6  <0> d           0.557   2.385   0.103  0.00  0.00     0.026 A 
ATOM      4  C5  <0> d          -0.447   1.321   0.065  0.00  0.00    -0.008 A 
ATOM      5  C4  <0> d          -1.806   1.601   0.242  0.00  0.00     0.014 A 
ATOM      6  C9  <0> d          -0.028  -0.004  -0.159  0.00  0.00     0.051 A 
ATOM      7  C3  <0> d          -2.718   0.585   0.201  0.00  0.00     0.008 A 
ATOM      8  C2  <0> d          -2.308  -0.724  -0.014  0.00  0.00    -0.054 A 
ATOM      9  C1  <0> d          -3.332  -1.829  -0.054  0.00  0.00     0.049 C 
ATOM     10  C10 <0> d          -0.975  -1.024  -0.190  0.00  0.00    -0.028 A 
ATOM     11  C11 <0> d          -0.544  -2.449  -0.422  0.00  0.00     0.051 C 
ATOM     12  N1  <0> d           1.312  -0.276  -0.328  0.00  0.00    -0.322 N 
ATOM     13  C8  <0> d           2.228   0.708  -0.291  0.00  0.00     0.252 A 
ATOM     14  H1  <0> d           1.609  -1.219  -0.479  0.00  0.00     0.169 HD
ATOM     15  O1  <0> d           3.404   0.432  -0.449  0.00  0.00    -0.268 OA
ENDBRANCH   1   2
BRANCH   1  16
ATOM     16  C13 <0> d           3.512   3.214   1.364  0.00  0.00     0.127 C 
BRANCH  16  17
ATOM     17  N2  <0> d           4.542   4.256   1.395  0.00  0.00    -0.367 N 
ATOM     18  H15 <0> d           4.746   4.761   0.592  0.00  0.00     0.161 HD
BRANCH  17  19
ATOM     19  C14 <0> d           5.205   4.513   2.539  0.00  0.00     0.172 C 
ATOM     20  S1  <0> d           4.846   3.623   3.957  0.00  0.00    -0.041 SA
ATOM     21  N3  <0> d           6.152   5.472   2.568  0.00  0.00    -0.333 N 
ATOM     22  H16 <0> d           6.400   5.934   1.752  0.00  0.00     0.168 HD
BRANCH  21  23
ATOM     23  C15 <0> d           6.779   5.800   3.775  0.00  0.00     0.037 A 
ATOM     24  C20 <0> d           7.227   4.796   4.622  0.00  0.00     0.071 A 
ATOM     25  C19 <0> d           7.846   5.124   5.815  0.00  0.00     0.118 A 
ATOM     26  C18 <0> d           8.018   6.453   6.163  0.00  0.00     0.042 A 
ATOM     27  F1  <0> d           8.283   4.148   6.640  0.00  0.00    -0.206 F 
ATOM     28  C17 <0> d           7.573   7.455   5.320  0.00  0.00     0.005 A 
ATOM     29  C16 <0> d           6.959   7.133   4.125  0.00  0.00     0.029 A 
ENDBRANCH  21  23
ENDBRANCH  17  19
ENDBRANCH  16  17
ENDBRANCH   1  16
TORSDOF 5
