REMARK  3 active torsions:
REMARK  status: ('A' for Active; 'I' for Inactive)
REMARK    1  A    between atoms: N1_4  and  C7_9 
REMARK    2  A    between atoms: C7_9  and  C8_10 
REMARK    3  A    between atoms: C15_19  and  O4_21 
ROOT
ATOM      1  C8  <0> d          -2.696  -4.052  -0.132  0.00  0.00    -0.011 A 
ATOM      2  C9  <0> d          -2.752  -4.883   0.942  0.00  0.00     0.092 A 
ATOM      3  C10 <0> d          -2.683  -6.278   0.753  0.00  0.00     0.288 A 
ATOM      4  O2  <0> d          -2.735  -7.012   1.724  0.00  0.00    -0.260 OA
ATOM      5  O3  <0> d          -2.564  -6.819  -0.470  0.00  0.00    -0.275 OA
ATOM      6  C11 <0> d          -2.503  -6.050  -1.578  0.00  0.00     0.093 A 
ATOM      7  C12 <0> d          -2.571  -4.649  -1.463  0.00  0.00     0.008 A 
ATOM      8  C13 <0> d          -2.513  -3.848  -2.609  0.00  0.00     0.041 A 
ATOM      9  C14 <0> d          -2.396  -4.431  -3.839  0.00  0.00     0.068 A 
ATOM     10  C15 <0> d          -2.334  -5.819  -3.959  0.00  0.00     0.090 A 
ATOM     11  C16 <0> d          -2.379  -6.625  -2.834  0.00  0.00     0.076 A 
ATOM     12 Cl1  <0> d          -2.325  -3.438  -5.261  0.00  0.00    -0.081 Cl
ENDROOT
BRANCH   1  13
ATOM     13  C7  <0> d          -2.768  -2.557   0.042  0.00  0.00     0.312 C 
BRANCH  13  14
ATOM     14  N1  <0> d          -1.407  -2.003   0.085  0.00  0.00     0.097 N 
ATOM     15  C3  <0> d          -1.434  -0.535   0.015  0.00  0.00     0.304 C 
ATOM     16  C2  <0> d           0.002  -0.004   0.002  0.00  0.00     0.146 C 
ATOM     17  C1  <0> d          -0.019   1.526   0.010  0.00  0.00     0.041 C 
ATOM     18  O1  <0> d           0.692  -0.479   1.161  0.00  0.00    -0.378 OA
ATOM     19  C5  <0> d           0.736  -1.905   1.261  0.00  0.00     0.146 C 
ATOM     20  C4  <0> d          -0.692  -2.455   1.287  0.00  0.00     0.304 C 
ATOM     21  C6  <0> d           1.483  -2.478   0.055  0.00  0.00     0.041 C 
ENDBRANCH  13  14
ENDBRANCH   1  13
BRANCH  10  22
ATOM     22  O4  <0> d          -2.218  -6.384  -5.188  0.00  0.00    -0.359 OA
ATOM     23  H18 <0> d          -1.305  -6.514  -5.477  0.00  0.00     0.217 HD
ENDBRANCH  10  22
TORSDOF 3
