REMARK  6 active torsions:
REMARK  status: ('A' for Active; 'I' for Inactive)
REMARK    1  A    between atoms: N3_10  and  C14_21 
REMARK    2  A    between atoms: C6_11  and  C7_12 
REMARK    3  A    between atoms: C10_15  and  O3_20 
REMARK    4  A    between atoms: C11_16  and  O2_18 
REMARK    5  A    between atoms: C14_21  and  C15_22 
REMARK    6  A    between atoms: C15_22  and  C16_23 
ROOT
ATOM      1  C1  <0> d          -0.018   1.503   0.010  0.00  0.00     0.070 C 
ATOM      2  C2  <0> d           0.002  -0.004   0.002  0.00  0.00     0.035 A 
ATOM      3  C3  <0> d           0.008  -0.797  -1.084  0.00  0.00     0.029 A 
ATOM      4  C4  <0> d           0.028  -2.127  -0.596  0.00  0.00     0.155 A 
ATOM      5  N1  <0> d           0.033  -2.046   0.718  0.00  0.00    -0.169 NA
ATOM      6  N2  <0> d           0.024  -0.813   1.085  0.00  0.00    -0.281 N 
ATOM      7  H1  <0> d           0.029  -0.508   2.006  0.00  0.00     0.189 HD
ATOM      8  C5  <0> d           0.036  -3.034  -1.757  0.00  0.00     0.275 A 
ATOM      9  O1  <0> d           0.052  -4.248  -1.688  0.00  0.00    -0.266 OA
ATOM     10  N3  <0> d           0.021  -2.332  -2.902  0.00  0.00    -0.333 N 
ATOM     11  C6  <0> d           0.002  -0.899  -2.585  0.00  0.00     0.159 A 
ENDROOT
BRANCH  10  12
ATOM     12  C14 <0> d           0.024  -2.904  -4.251  0.00  0.00     0.132 C 
BRANCH  12  13
ATOM     13  C15 <0> d          -1.417  -3.123  -4.715  0.00  0.00     0.061 C 
BRANCH  13  14
ATOM     14  C16 <0> d          -1.414  -3.711  -6.102  0.00  0.00    -0.029 A 
ATOM     15  C19 <0> d          -1.293  -5.130  -6.447  0.00  0.00    -0.002 A 
ATOM     16  C18 <0> d          -1.344  -5.195  -7.851  0.00  0.00     0.042 A 
ATOM     17  C20 <0> d          -1.155  -6.301  -5.700  0.00  0.00     0.014 A 
ATOM     18  N4  <0> d          -1.476  -3.904  -8.313  0.00  0.00    -0.365 N 
ATOM     19  C23 <0> d          -1.257  -6.433  -8.480  0.00  0.00     0.030 A 
ATOM     20  C17 <0> d          -1.516  -3.035  -7.257  0.00  0.00     0.096 A 
ATOM     21  H3  <0> d          -1.532  -3.650  -9.247  0.00  0.00     0.165 HD
ATOM     22  C22 <0> d          -1.111  -7.575  -7.724  0.00  0.00     0.002 A 
ATOM     23  C21 <0> d          -1.066  -7.506  -6.339  0.00  0.00     0.001 A 
ENDBRANCH  13  14
ENDBRANCH  12  13
ENDBRANCH  10  12
BRANCH  11  24
ATOM     24  C7  <0> d           1.226  -0.228  -3.154  0.00  0.00    -0.028 A 
ATOM     25  C12 <0> d           1.127   1.038  -3.700  0.00  0.00     0.049 A 
ATOM     26  C11 <0> d           2.252   1.659  -4.219  0.00  0.00     0.101 A 
ATOM     27  C10 <0> d           3.478   1.000  -4.198  0.00  0.00     0.099 A 
ATOM     28  C9  <0> d           3.569  -0.270  -3.653  0.00  0.00     0.040 A 
ATOM     29  C8  <0> d           2.444  -0.882  -3.133  0.00  0.00     0.012 A 
BRANCH  26  30
ATOM     30  O2  <0> d           2.158   2.906  -4.753  0.00  0.00    -0.353 OA
ATOM     31  C13 <0> d           0.867   3.520  -4.741  0.00  0.00     0.210 C 
ENDBRANCH  26  30
BRANCH  27  32
ATOM     32  O3  <0> d           4.584   1.603  -4.710  0.00  0.00    -0.358 OA
ATOM     33  H13 <0> d           4.730   1.426  -5.649  0.00  0.00     0.217 HD
ENDBRANCH  27  32
ENDBRANCH  11  24
TORSDOF 6
