REMARK  7 active torsions:
REMARK  status: ('A' for Active; 'I' for Inactive)
REMARK       I    between atoms: N1_2  and  C2_3 
REMARK    1  A    between atoms: C2_3  and  C3_5 
REMARK    2  A    between atoms: C7_9  and  N2_11 
REMARK       I    between atoms: N2_11  and  C9_12 
REMARK    3  A    between atoms: C9_12  and  C10_14 
REMARK       I    between atoms: C10_14  and  N3_16 
REMARK    4  A    between atoms: N3_16  and  C11_17 
REMARK    5  A    between atoms: C11_17  and  C12_18 
REMARK    6  A    between atoms: C12_18  and  C13_19 
REMARK    7  A    between atoms: C12_18  and  N4_24 
ROOT
ATOM      1  N2  <0> d           1.758  -5.006  -3.021  0.00  0.00    -0.319 N 
ATOM      2  C9  <0> d           1.903  -6.345  -2.992  0.00  0.00     0.313 C 
ATOM      3  O2  <0> d           1.454  -6.984  -2.062  0.00  0.00    -0.262 OA
ATOM      4  H10 <0> d           2.052  -4.503  -3.796  0.00  0.00     0.169 HD
ENDROOT
BRANCH   2   5
ATOM      5  C10 <0> d           2.617  -7.043  -4.103  0.00  0.00     0.309 C 
ATOM      6  O3  <0> d           3.066  -6.404  -5.032  0.00  0.00    -0.262 OA
ATOM      7  N3  <0> d           2.762  -8.383  -4.073  0.00  0.00    -0.351 N 
ATOM      8  H11 <0> d           2.403  -8.894  -3.331  0.00  0.00     0.162 HD
BRANCH   7   9
ATOM      9  C11 <0> d           3.462  -9.068  -5.163  0.00  0.00     0.163 C 
BRANCH   9  10
ATOM     10  C12 <0> d           3.398 -10.580  -4.940  0.00  0.00     0.261 C 
BRANCH  10  11
ATOM     11  C13 <0> d           1.965 -11.040  -5.025  0.00  0.00     0.085 A 
ATOM     12  O4  <0> d           1.049 -10.942  -4.048  0.00  0.00    -0.325 OA
ATOM     13  C16 <0> d          -0.118 -11.449  -4.477  0.00  0.00     0.142 A 
ATOM     14  C15 <0> d           0.046 -11.887  -5.737  0.00  0.00     0.027 A 
ATOM     15  C14 <0> d           1.389 -11.624  -6.091  0.00  0.00     0.037 A 
ENDBRANCH  10  11
BRANCH  10  16
ATOM     16  N4  <0> d           3.937 -10.902  -3.612  0.00  0.00    -0.067 N 
ATOM     17  C17 <0> d           3.910 -12.357  -3.412  0.00  0.00     0.270 C 
ATOM     18  C18 <0> d           5.322 -10.420  -3.515  0.00  0.00     0.270 C 
ATOM     19  H23 <0> d           3.375 -10.455  -2.903  0.00  0.00     0.280 HD
ENDBRANCH  10  16
ENDBRANCH   9  10
ENDBRANCH   7   9
ENDBRANCH   2   5
BRANCH   1  20
ATOM     20  C7  <0> d           1.183  -4.341  -1.934  0.00  0.00     0.036 A 
ATOM     21  C6  <0> d           0.415  -3.201  -2.143  0.00  0.00     0.029 A 
ATOM     22  C5  <0> d          -0.156  -2.541  -1.071  0.00  0.00     0.003 A 
ATOM     23  C4  <0> d           0.032  -3.009   0.213  0.00  0.00     0.017 A 
ATOM     24  C3  <0> d           0.802  -4.153   0.434  0.00  0.00     0.034 A 
ATOM     25  C8  <0> d           1.383  -4.816  -0.646  0.00  0.00     0.046 A 
BRANCH  24  26
ATOM     26  C2  <0> d           1.006  -4.656   1.810  0.00  0.00     0.251 C 
ATOM     27  N1  <0> d           0.443  -4.013   2.852  0.00  0.00    -0.361 N 
ATOM     28  C1  <0> d           0.644  -4.511   4.215  0.00  0.00     0.149 C 
ATOM     29  H5  <0> d          -0.096  -3.221   2.700  0.00  0.00     0.162 HD
ATOM     30  O1  <0> d           1.680  -5.649   2.000  0.00  0.00    -0.268 OA
ENDBRANCH  24  26
ENDBRANCH   1  20
TORSDOF 7
