REMARK  6 active torsions:
REMARK  status: ('A' for Active; 'I' for Inactive)
REMARK    1  A    between atoms: C2_2  and  N1_4 
REMARK    2  A    between atoms: C4_5  and  C6_10 
REMARK    3  A    between atoms: C6_10  and  N4_11 
REMARK       I    between atoms: N4_11  and  C7_12 
REMARK    4  A    between atoms: C7_12  and  C8_14 
REMARK    5  A    between atoms: C11_17  and  C14_20 
REMARK    6  A    between atoms: C14_20  and  N5_21 
ROOT
ATOM      1  N4  <0> d          -2.185  -2.636  -2.966  0.00  0.00    -0.350 N 
ATOM      2  C7  <0> d          -1.786  -3.195  -4.126  0.00  0.00     0.252 C 
ATOM      3  O1  <0> d          -0.653  -3.017  -4.528  0.00  0.00    -0.268 OA
ATOM      4  H11 <0> d          -3.089  -2.778  -2.645  0.00  0.00     0.163 HD
ENDROOT
BRANCH   2   5
ATOM      5  C8  <0> d          -2.727  -4.025  -4.908  0.00  0.00     0.032 A 
ATOM      6  C13 <0> d          -2.317  -4.606  -6.109  0.00  0.00     0.017 A 
ATOM      7  C12 <0> d          -3.197  -5.384  -6.832  0.00  0.00     0.010 A 
ATOM      8  C11 <0> d          -4.488  -5.580  -6.374  0.00  0.00    -0.038 A 
ATOM      9  C10 <0> d          -4.903  -5.002  -5.187  0.00  0.00     0.010 A 
ATOM     10  C9  <0> d          -4.030  -4.227  -4.452  0.00  0.00     0.017 A 
BRANCH   8  11
ATOM     11  C14 <0> d          -5.447  -6.426  -7.172  0.00  0.00     0.189 C 
BRANCH  11  12
ATOM     12  N5  <0> d          -6.173  -5.578  -8.121  0.00  0.00    -0.277 N 
ATOM     13  N6  <0> d          -6.916  -4.434  -7.803  0.00  0.00    -0.185 NA
ATOM     14  C17 <0> d          -7.412  -3.947  -8.912  0.00  0.00     0.140 A 
ATOM     15  C16 <0> d          -7.008  -4.770  -9.969  0.00  0.00     0.040 A 
ATOM     16  C15 <0> d          -6.248  -5.765  -9.456  0.00  0.00     0.114 A 
ENDBRANCH  11  12
ENDBRANCH   8  11
ENDBRANCH   2   5
BRANCH   1  17
ATOM     17  C6  <0> d          -1.253  -1.813  -2.191  0.00  0.00     0.203 C 
BRANCH  17  18
ATOM     18  C4  <0> d          -1.941  -1.311  -0.948  0.00  0.00     0.147 A 
ATOM     19  N1  <0> d          -1.372  -0.511   0.012  0.00  0.00    -0.304 N 
ATOM     20  C5  <0> d          -2.293  -0.277   0.969  0.00  0.00     0.196 A 
ATOM     21  N3  <0> d          -3.425  -0.915   0.605  0.00  0.00    -0.251 N 
ATOM     22  S1  <0> d          -2.068   0.661   2.384  0.00  0.00    -0.039 SA
ATOM     23  N2  <0> d          -3.165  -1.562  -0.611  0.00  0.00    -0.157 NA
ATOM     24  H8  <0> d          -4.261  -0.927   1.096  0.00  0.00     0.191 HD
BRANCH  19  25
ATOM     25  C2  <0> d           0.002  -0.004   0.002  0.00  0.00     0.086 C 
ATOM     26  C1  <0> d          -0.019   1.526   0.010  0.00  0.00     0.032 C 
ATOM     27  C3  <0> d           0.742  -0.511   1.242  0.00  0.00     0.032 C 
ENDBRANCH  19  25
ENDBRANCH  17  18
ENDBRANCH   1  17
TORSDOF 6
