REMARK  3 active torsions:
REMARK  status: ('A' for Active; 'I' for Inactive)
REMARK    1  A    between atoms: C5_5  and  N1_9 
REMARK    2  A    between atoms: N1_9  and  C10_11 
REMARK    3  A    between atoms: C13_16  and  N3_20 
ROOT
ATOM      1  C10 <0> d          -1.134  -4.877  -0.019  0.00  0.00     0.173 A 
ATOM      2  N2  <0> d          -2.363  -4.410  -0.016  0.00  0.00    -0.228 NA
ATOM      3  C11 <0> d          -3.422  -5.217  -0.015  0.00  0.00     0.052 A 
ATOM      4  C12 <0> d          -3.130  -6.542  -0.017  0.00  0.00     0.041 A 
ATOM      5  S1  <0> d          -1.359  -6.548  -0.027  0.00  0.00    -0.052 SA
ATOM      6  C13 <0> d          -4.086  -7.686  -0.019  0.00  0.00     0.225 C 
ATOM      7  C14 <0> d          -5.478  -7.148  -0.387  0.00  0.00     0.038 C 
ATOM      8  C15 <0> d          -5.761  -5.897   0.450  0.00  0.00     0.008 C 
ATOM      9  C16 <0> d          -4.868  -4.743  -0.010  0.00  0.00     0.060 C 
ENDROOT
BRANCH   1  10
ATOM     10  N1  <0> d           0.058  -4.168  -0.021  0.00  0.00    -0.330 N 
ATOM     11  C9  <0> d           1.336  -4.884  -0.031  0.00  0.00     0.158 C 
BRANCH  10  12
ATOM     12  C5  <0> d           0.040  -2.771  -0.013  0.00  0.00     0.042 A 
ATOM     13  C4  <0> d           0.024  -2.068  -1.212  0.00  0.00     0.031 A 
ATOM     14  C3  <0> d           0.006  -0.688  -1.200  0.00  0.00     0.009 A 
ATOM     15  C2  <0> d           0.002  -0.004   0.002  0.00  0.00    -0.061 A 
ATOM     16  C1  <0> d          -0.018   1.503   0.010  0.00  0.00     0.048 C 
ATOM     17  C7  <0> d           0.023  -0.700   1.196  0.00  0.00     0.015 A 
ATOM     18  C6  <0> d           0.036  -2.081   1.193  0.00  0.00    -0.035 A 
ATOM     19  C8  <0> d           0.052  -2.839   2.495  0.00  0.00     0.050 C 
ENDBRANCH  10  12
ENDBRANCH   1  10
BRANCH   6  20
ATOM     20  N3  <0> d          -3.662  -8.685  -1.009  0.00  0.00    -0.070 N 
ATOM     21  H20 <0> d          -2.740  -9.020  -0.775  0.00  0.00     0.275 HD
ATOM     22  H21 <0> d          -4.311  -9.457  -1.007  0.00  0.00     0.275 HD
ATOM     23  H22 <0> d          -3.644  -8.263  -1.926  0.00  0.00     0.275 HD
ENDBRANCH   6  20
TORSDOF 3
