REMARK  6 active torsions:
REMARK  status: ('A' for Active; 'I' for Inactive)
REMARK    1  A    between atoms: C3_3  and  N1_4 
REMARK       I    between atoms: N1_4  and  C4_5 
REMARK    2  A    between atoms: C4_5  and  C5_7 
REMARK    3  A    between atoms: C5_7  and  C6_8 
REMARK    4  A    between atoms: C6_8  and  N2_9 
REMARK       I    between atoms: N2_9  and  C7_10 
REMARK    5  A    between atoms: C7_10  and  C8_12 
REMARK    6  A    between atoms: C13_20  and  C14_21 
ROOT
ATOM      1  C1  <0> d           0.018  -1.178  -0.004  0.00  0.00     0.014 C 
ATOM      2  C2  <0> d           0.002  -0.004   0.002  0.00  0.00    -0.098 C 
ATOM      3  C3  <0> d          -0.018   1.468   0.010  0.00  0.00     0.216 C 
ENDROOT
BRANCH   3   4
ATOM      4  N1  <0> d           1.357   1.975  -0.000  0.00  0.00    -0.351 N 
ATOM      5  C4  <0> d           1.585   3.303   0.005  0.00  0.00     0.219 C 
ATOM      6  O1  <0> d           0.652   4.079   0.018  0.00  0.00    -0.274 OA
ATOM      7  H4  <0> d           2.102   1.355  -0.011  0.00  0.00     0.163 HD
BRANCH   5   8
ATOM      8  C5  <0> d           2.999   3.825  -0.006  0.00  0.00     0.122 C 
BRANCH   8   9
ATOM      9  C6  <0> d           2.978   5.355   0.002  0.00  0.00     0.132 C 
BRANCH   9  10
ATOM     10  N2  <0> d           4.352   5.862  -0.008  0.00  0.00    -0.356 N 
ATOM     11  C7  <0> d           4.580   7.190  -0.003  0.00  0.00     0.257 C 
ATOM     12  O2  <0> d           3.645   7.968   0.010  0.00  0.00    -0.267 OA
ATOM     13  H9  <0> d           5.098   5.241  -0.018  0.00  0.00     0.162 HD
BRANCH  11  14
ATOM     14  C8  <0> d           5.956   7.697  -0.013  0.00  0.00     0.098 A 
ATOM     15  C10 <0> d           6.351   9.049  -0.010  0.00  0.00     0.168 A 
ATOM     16  N4  <0> d           7.717   9.059  -0.021  0.00  0.00    -0.214 N 
ATOM     17  N5  <0> d           5.657  10.188   0.003  0.00  0.00    -0.240 NA
ATOM     18  N3  <0> d           8.161   7.732  -0.039  0.00  0.00    -0.177 NA
ATOM     19  C13 <0> d           8.387  10.255  -0.016  0.00  0.00     0.072 A 
ATOM     20  C9  <0> d           7.132   6.927  -0.035  0.00  0.00     0.160 A 
ATOM     21  C12 <0> d           7.655  11.428  -0.011  0.00  0.00     0.052 A 
ATOM     22  C11 <0> d           6.262  11.357   0.004  0.00  0.00     0.121 A 
BRANCH  19  23
ATOM     23  C14 <0> d           9.864  10.291  -0.033  0.00  0.00    -0.007 A 
ATOM     24  C19 <0> d          10.565  10.806   1.059  0.00  0.00     0.014 A 
ATOM     25  C18 <0> d          11.944  10.832   1.039  0.00  0.00     0.001 A 
ATOM     26  C17 <0> d          12.632  10.357  -0.064  0.00  0.00     0.000 A 
ATOM     27  C16 <0> d          11.943   9.850  -1.152  0.00  0.00     0.001 A 
ATOM     28  C15 <0> d          10.564   9.814  -1.143  0.00  0.00     0.014 A 
ENDBRANCH  19  23
ENDBRANCH  11  14
ENDBRANCH   9  10
ENDBRANCH   8   9
ENDBRANCH   5   8
ENDBRANCH   3   4
TORSDOF 6
