REMARK  4 active torsions:
REMARK  status: ('A' for Active; 'I' for Inactive)
REMARK    1  A    between atoms: C2_2  and  C3_3 
REMARK    2  A    between atoms: C3_3  and  N1_4 
REMARK    3  A    between atoms: N1_4  and  C4_5 
REMARK    4  A    between atoms: C10_12  and  N3_14 
ROOT
ATOM      1  C4  <0> d           1.455  -2.357   2.473  0.00  0.00     0.228 C 
ATOM      2  C5  <0> d           1.504  -3.889   2.594  0.00  0.00     0.047 C 
ATOM      3  C6  <0> d           2.494  -4.266   3.698  0.00  0.00    -0.040 C 
ATOM      4  C7  <0> d           3.925  -3.961   3.249  0.00  0.00     0.067 C 
ATOM      5  C8  <0> d           3.989  -2.516   2.773  0.00  0.00     0.027 A 
ATOM      6  C9  <0> d           2.856  -1.847   2.441  0.00  0.00     0.039 A 
ATOM      7  S1  <0> d           3.469  -0.253   1.972  0.00  0.00    -0.054 SA
ATOM      8  C10 <0> d           5.105  -0.561   2.233  0.00  0.00     0.147 A 
ATOM      9  N2  <0> d           5.112  -1.812   2.648  0.00  0.00    -0.339 N 
ATOM     10  C16 <0> d           2.367  -5.759   4.006  0.00  0.00     0.015 C 
ATOM     11  C17 <0> d           2.177  -3.462   4.961  0.00  0.00     0.015 C 
ATOM     12  H31 <0> d           5.958  -2.230   2.869  0.00  0.00     0.168 HD
ENDROOT
BRANCH   1  13
ATOM     13  N1  <0> d           0.762  -1.980   1.234  0.00  0.00    -0.066 N 
ATOM     14  H10 <0> d           1.189  -2.454   0.452  0.00  0.00     0.278 HD
ATOM     15  H30 <0> d           0.831  -0.982   1.100  0.00  0.00     0.278 HD
BRANCH  13  16
ATOM     16  C3  <0> d          -0.653  -2.365   1.327  0.00  0.00     0.232 C 
BRANCH  16  17
ATOM     17  C2  <0> d          -1.401  -1.858   0.092  0.00  0.00     0.023 C 
ATOM     18  C1  <0> d          -2.875  -2.259   0.190  0.00  0.00     0.007 C 
ENDBRANCH  16  17
ENDBRANCH  13  16
ENDBRANCH   1  13
BRANCH   8  19
ATOM     19  N3  <0> d           6.182   0.292   2.053  0.00  0.00    -0.357 N 
ATOM     20  C14 <0> d           6.103   1.683   1.583  0.00  0.00     0.082 C 
ATOM     21  C13 <0> d           7.546   2.226   1.515  0.00  0.00     0.026 C 
ATOM     22  C15 <0> d           5.281   2.519   2.566  0.00  0.00     0.032 C 
ATOM     23  C12 <0> d           8.397   0.933   1.401  0.00  0.00     0.022 C 
ATOM     24  C11 <0> d           7.596  -0.046   2.295  0.00  0.00     0.125 C 
ENDBRANCH   8  19
TORSDOF 4
