REMARK  5 active torsions:
REMARK  status: ('A' for Active; 'I' for Inactive)
REMARK    1  A    between atoms: C3_3  and  C10_12 
REMARK    2  A    between atoms: C10_12  and  C11_14 
REMARK       I    between atoms: C11_14  and  N2_16 
REMARK    3  A    between atoms: N2_16  and  C12_17 
REMARK    4  A    between atoms: C12_17  and  C13_18 
REMARK    5  A    between atoms: C13_18  and  N3_19 
ROOT
ATOM      1  C11 <0> d           0.119   0.873  -3.009  0.00  0.00     0.292 C 
ATOM      2  O2  <0> d           0.323   1.740  -2.184  0.00  0.00    -0.264 OA
ATOM      3  N2  <0> d           0.006   1.196  -4.313  0.00  0.00    -0.353 N 
ATOM      4  H11 <0> d          -0.157   0.504  -4.972  0.00  0.00     0.162 HD
ENDROOT
BRANCH   1   5
ATOM      5  C10 <0> d          -0.006  -0.551  -2.581  0.00  0.00     0.252 C 
ATOM      6  O1  <0> d          -0.113  -1.429  -3.414  0.00  0.00    -0.281 OA
BRANCH   5   7
ATOM      7  C3  <0> d           0.001  -0.889  -1.158  0.00  0.00     0.054 A 
ATOM      8  C2  <0> d          -1.100  -1.061  -0.340  0.00  0.00     0.021 A 
ATOM      9  C1  <0> d          -2.536  -0.926  -0.776  0.00  0.00     0.069 C 
ATOM     10  N1  <0> d          -0.693  -1.360   0.906  0.00  0.00    -0.358 N 
ATOM     11  C9  <0> d           0.686  -1.411   0.972  0.00  0.00     0.043 A 
ATOM     12  H1  <0> d          -1.286  -1.521   1.657  0.00  0.00     0.166 HD
ATOM     13  C4  <0> d           1.185  -1.117  -0.307  0.00  0.00     0.007 A 
ATOM     14  C8  <0> d           1.578  -1.677   2.006  0.00  0.00     0.030 A 
ATOM     15  C5  <0> d           2.558  -1.092  -0.533  0.00  0.00     0.015 A 
ATOM     16  C6  <0> d           3.425  -1.358   0.504  0.00  0.00     0.001 A 
ATOM     17  C7  <0> d           2.935  -1.649   1.768  0.00  0.00     0.002 A 
ENDBRANCH   5   7
ENDBRANCH   1   5
BRANCH   3  18
ATOM     18  C12 <0> d           0.128   2.594  -4.734  0.00  0.00     0.150 C 
BRANCH  18  19
ATOM     19  C13 <0> d          -0.038   2.686  -6.252  0.00  0.00     0.254 C 
BRANCH  19  20
ATOM     20  N3  <0> d           0.085   4.088  -6.674  0.00  0.00    -0.069 N 
ATOM     21  C18 <0> d           0.044   4.162  -8.139  0.00  0.00     0.239 C 
ATOM     22  C17 <0> d           0.253   5.610  -8.587  0.00  0.00     0.008 C 
ATOM     23  C16 <0> d          -0.858   6.485  -8.000  0.00  0.00     0.011 C 
ATOM     24  C19 <0> d           0.208   5.685 -10.115  0.00  0.00     0.011 C 
ATOM     25  C15 <0> d          -0.854   6.343  -6.475  0.00  0.00     0.008 C 
ATOM     26  C14 <0> d          -1.022   4.867  -6.105  0.00  0.00     0.239 C 
ATOM     27  C20 <0> d           0.472   6.862  -5.916  0.00  0.00     0.011 C 
ATOM     28  H28 <0> d           0.962   4.462  -6.343  0.00  0.00     0.280 HD
ENDBRANCH  19  20
ENDBRANCH  18  19
ENDBRANCH   3  18
TORSDOF 5
