REMARK  3 active torsions:
REMARK  status: ('A' for Active; 'I' for Inactive)
REMARK    1  A    between atoms: O1_2  and  C2_3 
REMARK    2  A    between atoms: C4_5  and  O4_20 
REMARK    3  A    between atoms: C8_10  and  C11_14 
ROOT
ATOM      1  C2  <0> d           0.625  -0.618   1.040  0.00  0.00     0.073 A 
ATOM      2  C3  <0> d           1.200   0.149   2.048  0.00  0.00     0.074 A 
ATOM      3  C4  <0> d           1.837  -0.466   3.110  0.00  0.00     0.085 A 
ATOM      4  C5  <0> d           1.898  -1.864   3.163  0.00  0.00     0.081 A 
ATOM      5  C6  <0> d           2.566  -2.560   4.276  0.00  0.00     0.190 A 
ATOM      6  O2  <0> d           3.088  -1.941   5.188  0.00  0.00    -0.287 OA
ATOM      7  C7  <0> d           2.578  -3.976   4.245  0.00  0.00     0.094 A 
ATOM      8  C8  <0> d           1.984  -4.629   3.212  0.00  0.00     0.090 A 
ATOM      9  O3  <0> d           1.379  -3.983   2.203  0.00  0.00    -0.309 OA
ATOM     10  C9  <0> d           1.315  -2.636   2.143  0.00  0.00     0.095 A 
ATOM     11  C10 <0> d           0.677  -2.002   1.089  0.00  0.00     0.075 A 
ENDROOT
BRANCH   8  12
ATOM     12  C11 <0> d           2.008  -6.105   3.198  0.00  0.00    -0.002 A 
ATOM     13  C16 <0> d           1.407  -6.806   2.150  0.00  0.00     0.014 A 
ATOM     14  C15 <0> d           1.438  -8.185   2.139  0.00  0.00     0.001 A 
ATOM     15  C14 <0> d           2.052  -8.874   3.171  0.00  0.00     0.000 A 
ATOM     16  C13 <0> d           2.643  -8.186   4.216  0.00  0.00     0.001 A 
ATOM     17  C12 <0> d           2.625  -6.807   4.235  0.00  0.00     0.014 A 
ENDBRANCH   8  12
BRANCH   3  18
ATOM     18  O4  <0> d           2.400   0.280   4.095  0.00  0.00    -0.360 OA
ATOM     19  H12 <0> d           1.802   0.481   4.827  0.00  0.00     0.217 HD
ENDBRANCH   3  18
BRANCH   1  20
ATOM     20  O1  <0> d           0.002  -0.004   0.002  0.00  0.00    -0.356 OA
ATOM     21  C1  <0> d          -0.017   1.425   0.010  0.00  0.00     0.210 C 
ENDBRANCH   1  20
TORSDOF 3
