REMARK  3 active torsions:
REMARK  status: ('A' for Active; 'I' for Inactive)
REMARK    1  A    between atoms: C7_9  and  N2_10 
REMARK    2  A    between atoms: N2_10  and  C8_11 
REMARK       I    between atoms: N3_13  and  C9_14 
REMARK    3  A    between atoms: C9_14  and  C10_16 
ROOT
ATOM      1  C8  <0> d           4.309  -4.213  -0.166  0.00  0.00     0.203 C 
ATOM      2  S1  <0> d           5.503  -2.987  -0.171  0.00  0.00    -0.038 SA
ATOM      3  N3  <0> d           4.670  -5.506  -0.279  0.00  0.00    -0.298 N 
ATOM      4  C9  <0> d           5.972  -5.835  -0.395  0.00  0.00     0.259 C 
ATOM      5  O1  <0> d           6.820  -4.964  -0.399  0.00  0.00    -0.267 OA
ATOM      6  H6  <0> d           3.993  -6.201  -0.276  0.00  0.00     0.171 HD
ENDROOT
BRANCH   1   7
ATOM      7  N2  <0> d           3.017  -3.887  -0.050  0.00  0.00    -0.195 NA
BRANCH   7   8
ATOM      8  C7  <0> d           2.652  -2.611  -0.045  0.00  0.00     0.174 A 
ATOM      9  N1  <0> d           1.395  -2.082  -0.034  0.00  0.00    -0.334 N 
ATOM     10  C5  <0> d           1.216  -0.710  -0.031  0.00  0.00     0.051 A 
ATOM     11  H1  <0> d           0.624  -2.670  -0.029  0.00  0.00     0.168 HD
ATOM     12  C4  <0> d           2.387   0.063  -0.038  0.00  0.00     0.035 A 
ATOM     13  C6  <0> d           0.000  -0.005  -0.021  0.00  0.00     0.031 A 
ATOM     14  C3  <0> d           2.367   1.437  -0.036  0.00  0.00     0.021 A 
ATOM     15  S2  <0> d           3.682  -1.153  -0.049  0.00  0.00    -0.050 SA
ATOM     16  C2  <0> d           1.155   2.104  -0.026  0.00  0.00     0.002 A 
ATOM     17  C1  <0> d          -0.019   1.369  -0.019  0.00  0.00     0.002 A 
ENDBRANCH   7   8
ENDBRANCH   1   7
BRANCH   4  18
ATOM     18  C10 <0> d           6.368  -7.252  -0.519  0.00  0.00     0.055 A 
ATOM     19  C15 <0> d           7.717  -7.596  -0.640  0.00  0.00     0.049 A 
ATOM     20  C14 <0> d           8.081  -8.924  -0.749  0.00  0.00     0.026 A 
ATOM     21 Cl1  <0> d           8.934  -6.357  -0.646  0.00  0.00    -0.083 Cl
ATOM     22  C13 <0> d           7.112  -9.911  -0.751  0.00  0.00     0.021 A 
ATOM     23  C12 <0> d           5.773  -9.577  -0.637  0.00  0.00     0.012 A 
ATOM     24  C11 <0> d           5.396  -8.255  -0.521  0.00  0.00     0.038 A 
ATOM     25 Br1  <0> d           4.458 -10.936  -0.639  0.00  0.00    -0.051 Br
ENDBRANCH   4  18
TORSDOF 3
