REMARK  2 active torsions:
REMARK  status: ('A' for Active; 'I' for Inactive)
REMARK    1  A    between atoms: C6_6  and  N1_8 
REMARK       I    between atoms: N1_8  and  C8_9 
REMARK    2  A    between atoms: C8_9  and  C9_11 
ROOT
ATOM      1  C9  <0> d           0.280  -2.900   4.854  0.00  0.00     0.225 C 
ATOM      2  C10 <0> d           0.964  -2.036   5.883  0.00  0.00     0.270 C 
ATOM      3  O2  <0> d           0.876  -0.829   5.818  0.00  0.00    -0.269 OA
ATOM      4  N2  <0> d           1.674  -2.610   6.876  0.00  0.00    -0.301 N 
ATOM      5  C11 <0> d           1.859  -3.995   6.874  0.00  0.00     0.165 A 
ATOM      6  C12 <0> d           1.524  -4.724   5.732  0.00  0.00     0.117 A 
ATOM      7  C13 <0> d           1.694  -6.099   5.730  0.00  0.00     0.042 A 
ATOM      8  C14 <0> d           2.211  -6.699   6.871  0.00  0.00     0.022 A 
ATOM      9  C15 <0> d           2.540  -5.914   7.958  0.00  0.00     0.119 A 
ATOM     10  N3  <0> d           2.363  -4.606   7.932  0.00  0.00    -0.240 NA
ATOM     11  O3  <0> d           1.053  -4.082   4.631  0.00  0.00    -0.317 OA
ATOM     12  C16 <0> d           2.246  -1.789   7.946  0.00  0.00     0.161 C 
ATOM     13  C17 <0> d          -1.111  -3.288   5.358  0.00  0.00     0.068 C 
ENDROOT
BRANCH   1  14
ATOM     14  C8  <0> d           0.150  -2.134   3.562  0.00  0.00     0.267 C 
ATOM     15  N1  <0> d           0.052  -2.797   2.393  0.00  0.00    -0.324 N 
ATOM     16  H7  <0> d          -0.003  -3.766   2.387  0.00  0.00     0.169 HD
ATOM     17  O1  <0> d           0.134  -0.922   3.575  0.00  0.00    -0.269 OA
BRANCH  15  18
ATOM     18  C6  <0> d           0.029  -2.088   1.187  0.00  0.00     0.035 A 
ATOM     19  C5  <0> d          -0.598  -0.851   1.118  0.00  0.00     0.036 A 
ATOM     20  C4  <0> d          -0.618  -0.154  -0.073  0.00  0.00    -0.059 A 
ATOM     21  C3  <0> d          -0.015  -0.686  -1.198  0.00  0.00     0.013 A 
ATOM     22  C18 <0> d          -1.298   1.189  -0.148  0.00  0.00     0.048 C 
ATOM     23  C2  <0> d           0.610  -1.918  -1.134  0.00  0.00    -0.059 A 
ATOM     24  C1  <0> d           1.265  -2.495  -2.362  0.00  0.00     0.048 C 
ATOM     25  C7  <0> d           0.629  -2.623   0.054  0.00  0.00     0.036 A 
ENDBRANCH  15  18
ENDBRANCH   1  14
TORSDOF 2
