REMARK  6 active torsions:
REMARK  status: ('A' for Active; 'I' for Inactive)
REMARK    1  A    between atoms: C2_2  and  S1_3 
REMARK    2  A    between atoms: S1_3  and  C3_4 
REMARK    3  A    between atoms: C3_4  and  C4_5 
REMARK    4  A    between atoms: C7_8  and  C10_11 
REMARK       I    between atoms: C10_11  and  N1_13 
REMARK    5  A    between atoms: N1_13  and  N2_14 
REMARK       I    between atoms: N2_14  and  C11_15 
REMARK    6  A    between atoms: C11_15  and  C12_17 
ROOT
ATOM      1  C10 <0> d           3.389  -4.764  -5.906  0.00  0.00     0.270 C 
ATOM      2  O1  <0> d           2.748  -5.019  -6.907  0.00  0.00    -0.266 OA
ATOM      3  N1  <0> d           4.708  -5.035  -5.864  0.00  0.00    -0.263 N 
ATOM      4  H12 <0> d           5.220  -4.832  -5.065  0.00  0.00     0.190 HD
ENDROOT
BRANCH   1   5
ATOM      5  C7  <0> d           2.721  -4.155  -4.736  0.00  0.00     0.033 A 
ATOM      6  C6  <0> d           1.355  -3.873  -4.776  0.00  0.00     0.017 A 
ATOM      7  C5  <0> d           0.738  -3.305  -3.681  0.00  0.00     0.009 A 
ATOM      8  C4  <0> d           1.471  -3.016  -2.543  0.00  0.00    -0.049 A 
ATOM      9  C9  <0> d           2.827  -3.289  -2.498  0.00  0.00     0.009 A 
ATOM     10  C8  <0> d           3.455  -3.861  -3.585  0.00  0.00     0.017 A 
BRANCH   8  11
ATOM     11  C3  <0> d           0.791  -2.397  -1.350  0.00  0.00     0.112 C 
BRANCH  11  12
ATOM     12  S1  <0> d           0.851  -0.589  -1.490  0.00  0.00    -0.165 SA
BRANCH  12  13
ATOM     13  C2  <0> d           0.002  -0.004   0.002  0.00  0.00     0.069 C 
ATOM     14  C1  <0> d          -0.019   1.526   0.010  0.00  0.00     0.016 C 
ENDBRANCH  12  13
ENDBRANCH  11  12
ENDBRANCH   8  11
ENDBRANCH   1   5
BRANCH   3  15
ATOM     15  N2  <0> d           5.341  -5.612  -6.973  0.00  0.00    -0.263 N 
ATOM     16  C11 <0> d           6.660  -5.884  -6.931  0.00  0.00     0.277 C 
ATOM     17  O2  <0> d           7.302  -5.628  -5.929  0.00  0.00    -0.265 OA
ATOM     18  H13 <0> d           4.829  -5.816  -7.771  0.00  0.00     0.190 HD
BRANCH  16  19
ATOM     19  C12 <0> d           7.322  -6.487  -8.091  0.00  0.00     0.080 A 
ATOM     20  S2  <0> d           6.625  -6.957  -9.663  0.00  0.00    -0.096 SA
ATOM     21  C15 <0> d           8.013  -7.549 -10.403  0.00  0.00     0.051 A 
ATOM     22  C14 <0> d           8.980  -7.397  -9.466  0.00  0.00     0.015 A 
ATOM     23  C13 <0> d           8.652  -6.846  -8.250  0.00  0.00    -0.039 A 
ATOM     24  C16 <0> d           9.672  -6.646  -7.159  0.00  0.00     0.050 C 
ENDBRANCH  16  19
ENDBRANCH   3  15
TORSDOF 6
