REMARK  6 active torsions:
REMARK  status: ('A' for Active; 'I' for Inactive)
REMARK    1  A    between atoms: C7_7  and  C8_8 
REMARK    2  A    between atoms: C8_8  and  C9_9 
REMARK    3  A    between atoms: C8_8  and  S1_12 
REMARK    4  A    between atoms: C9_9  and  N1_11 
REMARK    5  A    between atoms: S1_12  and  C11_13 
REMARK    6  A    between atoms: N5_17  and  C12_18 
ROOT
ATOM      1  C8  <0> d          -0.027   0.337   2.329  0.00  0.00     0.118 C 
ENDROOT
BRANCH   1   2
ATOM      2  C7  <0> d          -0.191  -0.509   1.093  0.00  0.00    -0.036 A 
ATOM      3  C2  <0> d          -0.767  -1.762   1.185  0.00  0.00    -0.054 A 
ATOM      4  C1  <0> d          -1.232  -2.282   2.521  0.00  0.00     0.049 C 
ATOM      5  C3  <0> d          -0.923  -2.536   0.050  0.00  0.00     0.007 A 
ATOM      6  C4  <0> d          -0.498  -2.059  -1.176  0.00  0.00     0.001 A 
ATOM      7  C5  <0> d           0.083  -0.808  -1.267  0.00  0.00     0.001 A 
ATOM      8  C6  <0> d           0.238  -0.034  -0.132  0.00  0.00     0.009 A 
ENDBRANCH   1   2
BRANCH   1   9
ATOM      9  C9  <0> d           1.168   1.276   2.150  0.00  0.00     0.198 C 
ATOM     10  C10 <0> d           2.445   0.449   1.987  0.00  0.00     0.041 C 
BRANCH   9  11
ATOM     11  N1  <0> d           1.292   2.142   3.329  0.00  0.00    -0.074 N 
ATOM     12  H13 <0> d           1.417   1.572   4.153  0.00  0.00     0.274 HD
ATOM     13  H14 <0> d           2.089   2.750   3.218  0.00  0.00     0.274 HD
ATOM     14  H20 <0> d           0.456   2.697   3.428  0.00  0.00     0.274 HD
ENDBRANCH   9  11
ENDBRANCH   1   9
BRANCH   1  15
ATOM     15  S1  <0> d          -1.530   1.317   2.595  0.00  0.00    -0.077 SA
BRANCH  15  16
ATOM     16  C11 <0> d          -1.439   1.786   4.291  0.00  0.00     0.210 A 
ATOM     17  N5  <0> d          -2.286   2.617   4.943  0.00  0.00    -0.220 N 
ATOM     18  N4  <0> d          -1.804   2.675   6.262  0.00  0.00    -0.043 NA
ATOM     19  N3  <0> d          -0.757   1.925   6.311  0.00  0.00    -0.022 NA
ATOM     20  N2  <0> d          -0.532   1.398   5.162  0.00  0.00    -0.102 NA
BRANCH  17  21
ATOM     21  C12 <0> d          -3.455   3.307   4.392  0.00  0.00     0.114 A 
ATOM     22  C14 <0> d          -3.462   4.836   4.442  0.00  0.00     0.029 A 
ATOM     23  C13 <0> d          -4.373   4.036   5.374  0.00  0.00     0.029 A 
ENDBRANCH  17  21
ENDBRANCH  15  16
ENDBRANCH   1  15
TORSDOF 6
