REMARK  4 active torsions:
REMARK  status: ('A' for Active; 'I' for Inactive)
REMARK    1  A    between atoms: C3_3  and  S2_6 
REMARK    2  A    between atoms: S2_6  and  C5_9 
REMARK    3  A    between atoms: C5_9  and  C6_10 
REMARK    4  A    between atoms: C6_10  and  N1_11 
ROOT
ATOM      1  C5  <0> d           4.457   2.080   1.723  0.00  0.00     0.176 C 
ENDROOT
BRANCH   1   2
ATOM      2  S2  <0> d           4.001   1.932  -0.026  0.00  0.00     0.183 S 
ATOM      3  O1  <0> d           4.753   0.895  -0.642  0.00  0.00    -0.222 OA
ATOM      4  O2  <0> d           3.919   3.219  -0.622  0.00  0.00    -0.222 OA
BRANCH   2   5
ATOM      5  C3  <0> d           2.343   1.336  -0.013  0.00  0.00     0.099 A 
ATOM      6  C2  <0> d           1.183   2.038   0.002  0.00  0.00     0.031 A 
ATOM      7  C1  <0> d          -0.016   1.351   0.009  0.00  0.00     0.009 A 
ATOM      8  C4  <0> d           0.002  -0.004   0.002  0.00  0.00     0.051 A 
ATOM      9  S1  <0> d           1.754  -0.349  -0.017  0.00  0.00    -0.090 SA
ENDBRANCH   2   5
ENDBRANCH   1   2
BRANCH   1  10
ATOM     10  C6  <0> d           5.893   2.596   1.834  0.00  0.00     0.287 C 
BRANCH  10  11
ATOM     11  N1  <0> d           6.262   2.716   3.251  0.00  0.00     0.092 N 
ATOM     12  C10 <0> d           7.539   3.427   3.404  0.00  0.00     0.300 C 
ATOM     13  C9  <0> d           7.857   3.583   4.892  0.00  0.00     0.262 C 
ATOM     14  N2  <0> d           7.938   2.257   5.518  0.00  0.00    -0.072 N 
ATOM     15  C8  <0> d           6.647   1.569   5.379  0.00  0.00     0.262 C 
ATOM     16  H12 <0> d           8.159   2.360   6.497  0.00  0.00     0.277 HD
ATOM     17  H17 <0> d           8.658   1.715   5.066  0.00  0.00     0.277 HD
ATOM     18  C7  <0> d           6.319   1.396   3.894  0.00  0.00     0.300 C 
ENDBRANCH  10  11
ENDBRANCH   1  10
TORSDOF 4
