REMARK  6 active torsions:
REMARK  status: ('A' for Active; 'I' for Inactive)
REMARK    1  A    between atoms: C6_6  and  C7_7 
REMARK    2  A    between atoms: C7_7  and  N1_8 
REMARK    3  A    between atoms: N1_8  and  S1_9 
REMARK    4  A    between atoms: S1_9  and  C8_12 
REMARK    5  A    between atoms: C8_12  and  C9_13 
REMARK    6  A    between atoms: C9_13  and  C10_14 
ROOT
ATOM      1  S1  <0> d          -2.898  -2.144  -1.682  0.00  0.00     0.226 S 
ATOM      2  O1  <0> d          -3.045  -2.131  -3.095  0.00  0.00    -0.206 OA
ATOM      3  O2  <0> d          -2.462  -3.318  -1.010  0.00  0.00    -0.206 OA
ENDROOT
BRANCH   1   4
ATOM      4  N1  <0> d          -1.726  -1.017  -1.368  0.00  0.00    -0.315 N 
ATOM      5  H8  <0> d          -1.325  -0.518  -2.097  0.00  0.00     0.172 HD
BRANCH   4   6
ATOM      6  C7  <0> d          -1.293  -0.775   0.010  0.00  0.00     0.170 C 
BRANCH   6   7
ATOM      7  C6  <0> d           0.002  -0.004   0.002  0.00  0.00    -0.040 A 
ATOM      8  C1  <0> d          -0.017   1.378   0.010  0.00  0.00     0.010 A 
ATOM      9  C2  <0> d           1.171   2.086   0.002  0.00  0.00     0.019 A 
ATOM     10  C3  <0> d           2.378   1.411  -0.013  0.00  0.00     0.011 A 
ATOM     11  C4  <0> d           2.396   0.027  -0.021  0.00  0.00     0.019 A 
ATOM     12 Br1  <0> d           4.003   2.378  -0.024  0.00  0.00    -0.051 Br
ATOM     13  C5  <0> d           1.208  -0.679  -0.013  0.00  0.00     0.010 A 
ENDBRANCH   6   7
ENDBRANCH   4   6
ENDBRANCH   1   4
BRANCH   1  14
ATOM     14  C8  <0> d          -4.395  -1.491  -0.893  0.00  0.00     0.165 C 
BRANCH  14  15
ATOM     15  C9  <0> d          -5.556  -2.461  -1.120  0.00  0.00     0.049 C 
BRANCH  15  16
ATOM     16  C10 <0> d          -6.819  -1.910  -0.455  0.00  0.00     0.186 C 
ATOM     17  N2  <0> d          -6.626  -1.868   1.000  0.00  0.00    -0.071 N 
ATOM     18  C14 <0> d          -7.803  -1.270   1.641  0.00  0.00     0.232 C 
ATOM     19  H21 <0> d          -6.494  -2.806   1.348  0.00  0.00     0.277 HD
ATOM     20  H22 <0> d          -5.810  -1.314   1.214  0.00  0.00     0.277 HD
ATOM     21  C13 <0> d          -9.028  -2.150   1.388  0.00  0.00     0.027 C 
ATOM     22  C12 <0> d          -9.268  -2.260  -0.120  0.00  0.00     0.004 C 
ATOM     23  C11 <0> d          -8.007  -2.815  -0.788  0.00  0.00     0.033 C 
ENDBRANCH  15  16
ENDBRANCH  14  15
ENDBRANCH   1  14
TORSDOF 6
