REMARK  7 active torsions:
REMARK  status: ('A' for Active; 'I' for Inactive)
REMARK    1  A    between atoms: O1_2  and  C2_3 
REMARK    2  A    between atoms: C9_10  and  C21_29 
REMARK    3  A    between atoms: N1_12  and  N2_13 
REMARK       I    between atoms: N2_13  and  C11_14 
REMARK    4  A    between atoms: C11_14  and  C12_16 
REMARK    5  A    between atoms: C14_18  and  O5_26 
REMARK    6  A    between atoms: C15_19  and  O4_24 
REMARK    7  A    between atoms: C16_20  and  O3_22 
REMARK       I    between atoms: C21_29  and  N3_31 
ROOT
ATOM      1  C2  <0> d           3.659   3.262   0.001  0.00  0.00     0.069 A 
ATOM      2  C3  <0> d           2.541   3.891  -0.535  0.00  0.00     0.039 A 
ATOM      3  C4  <0> d           1.313   3.259  -0.536  0.00  0.00     0.041 A 
ATOM      4  C5  <0> d           1.187   1.988   0.001  0.00  0.00     0.088 A 
ATOM      5  C6  <0> d           2.314   1.345   0.544  0.00  0.00     0.002 A 
ATOM      6  C7  <0> d           3.554   1.994   0.541  0.00  0.00     0.051 A 
ATOM      7  C8  <0> d           2.175  -0.002   1.107  0.00  0.00     0.035 C 
ATOM      8  C9  <0> d           1.014  -0.688   0.838  0.00  0.00     0.085 C 
ATOM      9  C10 <0> d           0.002  -0.004   0.002  0.00  0.00     0.178 C 
ATOM     10  N1  <0> d          -0.846  -0.685  -0.720  0.00  0.00    -0.276 N 
ATOM     11  O6  <0> d          -0.016   1.359   0.009  0.00  0.00    -0.291 OA
ATOM     12  H22 <0> d          -0.816  -1.785  -0.713  0.00  0.00     0.189 HD
ENDROOT
BRANCH  10  13
ATOM     13  N2  <0> d          -1.795  -0.015  -1.504  0.00  0.00    -0.264 N 
ATOM     14  C11 <0> d          -2.671  -0.718  -2.250  0.00  0.00     0.270 C 
ATOM     15  O2  <0> d          -2.637  -1.934  -2.242  0.00  0.00    -0.266 OA
ATOM     16  H8  <0> d          -1.825   1.085  -1.511  0.00  0.00     0.190 HD
BRANCH  14  17
ATOM     17  C12 <0> d          -3.670  -0.012  -3.075  0.00  0.00     0.039 A 
ATOM     18  C17 <0> d          -4.578  -0.739  -3.849  0.00  0.00     0.057 A 
ATOM     19  C16 <0> d          -5.513  -0.076  -4.621  0.00  0.00     0.105 A 
ATOM     20  C15 <0> d          -5.550   1.316  -4.628  0.00  0.00     0.135 A 
ATOM     21  C14 <0> d          -4.647   2.043  -3.858  0.00  0.00     0.105 A 
ATOM     22  C13 <0> d          -3.713   1.384  -3.080  0.00  0.00     0.057 A 
BRANCH  19  23
ATOM     23  O3  <0> d          -6.398  -0.783  -5.374  0.00  0.00    -0.353 OA
ATOM     24  C18 <0> d          -6.303  -2.208  -5.318  0.00  0.00     0.210 C 
ENDBRANCH  19  23
BRANCH  20  25
ATOM     25  O4  <0> d          -6.470   1.966  -5.389  0.00  0.00    -0.351 OA
ATOM     26  C19 <0> d          -7.727   2.260  -4.776  0.00  0.00     0.210 C 
ENDBRANCH  20  25
BRANCH  21  27
ATOM     27  O5  <0> d          -4.686   3.402  -3.868  0.00  0.00    -0.353 OA
ATOM     28  C20 <0> d          -3.730   4.085  -3.054  0.00  0.00     0.210 C 
ENDBRANCH  21  27
ENDBRANCH  14  17
ENDBRANCH  10  13
BRANCH   8  29
ATOM     29  C21 <0> d           0.787  -2.046   1.360  0.00  0.00     0.253 C 
ATOM     30  O7  <0> d           1.636  -2.584   2.045  0.00  0.00    -0.268 OA
ATOM     31  N3  <0> d          -0.362  -2.692   1.080  0.00  0.00    -0.366 N 
ATOM     32  H20 <0> d          -0.532  -3.707   1.470  0.00  0.00     0.159 HD
ATOM     33  H21 <0> d          -1.130  -2.205   0.461  0.00  0.00     0.159 HD
ENDBRANCH   8  29
BRANCH   1  34
ATOM     34  O1  <0> d           4.861   3.897  -0.004  0.00  0.00    -0.356 OA
ATOM     35  C1  <0> d           4.901   5.206  -0.577  0.00  0.00     0.210 C 
ENDBRANCH   1  34
TORSDOF 7
