REMARK  9 active torsions:
REMARK  status: ('A' for Active; 'I' for Inactive)
REMARK    1  A    between atoms: C2_2  and  C5_5 
REMARK    2  A    between atoms: C5_5  and  C6_6 
REMARK    3  A    between atoms: C6_6  and  N1_9 
REMARK    4  A    between atoms: N1_9  and  C9_10 
REMARK    5  A    between atoms: C9_10  and  C10_11 
REMARK    6  A    between atoms: C10_11  and  O1_12 
REMARK    7  A    between atoms: O1_12  and  C11_13 
REMARK    8  A    between atoms: C14_16  and  S1_19 
REMARK    9  A    between atoms: S1_19  and  N2_22 
ROOT
ATOM      1  C10 <0> d           4.396  -0.230  -3.541  0.00  0.00     0.203 C 
ENDROOT
BRANCH   1   2
ATOM      2  C9  <0> d           3.682   0.308  -2.299  0.00  0.00     0.260 C 
BRANCH   2   3
ATOM      3  N1  <0> d           2.333  -0.268  -2.223  0.00  0.00    -0.065 N 
ATOM      4  H18 <0> d           2.400  -1.273  -2.164  0.00  0.00     0.278 HD
ATOM      5  H29 <0> d           1.811  -0.013  -3.047  0.00  0.00     0.278 HD
BRANCH   3   6
ATOM      6  C6  <0> d           1.648   0.248  -1.030  0.00  0.00     0.119 C 
ATOM      7  C7  <0> d           1.346   1.736  -1.220  0.00  0.00     0.046 C 
ATOM      8  C8  <0> d           2.545   0.061   0.195  0.00  0.00     0.046 C 
BRANCH   6   9
ATOM      9  C5  <0> d           0.338  -0.516  -0.825  0.00  0.00     0.046 C 
BRANCH   9  10
ATOM     10  C2  <0> d          -0.310  -0.793  -2.183  0.00  0.00    -0.049 C 
ATOM     11  C1  <0> d           0.519  -1.831  -2.941  0.00  0.00     0.014 C 
ATOM     12  C3  <0> d          -0.368   0.503  -2.994  0.00  0.00     0.014 C 
ATOM     13  C4  <0> d          -1.728  -1.327  -1.972  0.00  0.00     0.014 C 
ENDBRANCH   9  10
ENDBRANCH   6   9
ENDBRANCH   3   6
ENDBRANCH   2   3
ENDBRANCH   1   2
BRANCH   1  14
ATOM     14  O1  <0> d           3.722   0.229  -4.715  0.00  0.00    -0.350 OA
BRANCH  14  15
ATOM     15  C11 <0> d           4.232  -0.161  -5.912  0.00  0.00     0.068 A 
ATOM     16  C16 <0> d           3.628   0.247  -7.092  0.00  0.00     0.038 A 
ATOM     17  C15 <0> d           4.152  -0.146  -8.308  0.00  0.00     0.028 A 
ATOM     18  C14 <0> d           5.271  -0.957  -8.349  0.00  0.00     0.079 A 
ATOM     19  C13 <0> d           5.872  -1.370  -7.175  0.00  0.00     0.028 A 
ATOM     20  C12 <0> d           5.356  -0.974  -5.957  0.00  0.00     0.038 A 
BRANCH  18  21
ATOM     21  S1  <0> d           5.933  -1.464  -9.902  0.00  0.00     0.256 S 
ATOM     22  O2  <0> d           5.513  -0.498 -10.857  0.00  0.00    -0.201 OA
ATOM     23  O3  <0> d           7.302  -1.770  -9.679  0.00  0.00    -0.201 OA
BRANCH  21  24
ATOM     24  N2  <0> d           5.190  -2.886 -10.310  0.00  0.00    -0.324 N 
ATOM     25  H27 <0> d           4.526  -3.273  -9.719  0.00  0.00     0.169 HD
ATOM     26  H28 <0> d           5.419  -3.332 -11.140  0.00  0.00     0.169 HD
ENDBRANCH  21  24
ENDBRANCH  18  21
ENDBRANCH  14  15
ENDBRANCH   1  14
TORSDOF 9
