REMARK  4 active torsions:
REMARK  status: ('A' for Active; 'I' for Inactive)
REMARK    1  A    between atoms: C6_6  and  C8_9 
REMARK    2  A    between atoms: C7_7  and  N1_8 
REMARK       I    between atoms: C8_9  and  N2_11 
REMARK    3  A    between atoms: N2_11  and  C10_13 
REMARK    4  A    between atoms: C10_13  and  C11_14 
REMARK       I    between atoms: C11_14  and  N3_16 
ROOT
ATOM      1  C1  <0> d          -1.743   0.837  -0.369  0.00  0.00     0.050 C 
ATOM      2  C2  <0> d          -0.808  -0.330  -0.180  0.00  0.00    -0.035 A 
ATOM      3  C3  <0> d           0.048  -0.700  -1.197  0.00  0.00     0.009 A 
ATOM      4  C4  <0> d           0.911  -1.771  -1.032  0.00  0.00     0.002 A 
ATOM      5  C5  <0> d           0.924  -2.480   0.149  0.00  0.00     0.019 A 
ATOM      6  C6  <0> d           0.063  -2.118   1.188  0.00  0.00     0.058 A 
ATOM      7  C7  <0> d          -0.806  -1.029   1.021  0.00  0.00     0.047 A 
ENDROOT
BRANCH   6   8
ATOM      8  C8  <0> d           0.071  -2.873   2.455  0.00  0.00     0.256 C 
ATOM      9  O1  <0> d           0.152  -2.282   3.514  0.00  0.00    -0.267 OA
ATOM     10  N2  <0> d          -0.012  -4.218   2.438  0.00  0.00    -0.344 N 
ATOM     11  C9  <0> d          -0.015  -4.936   1.161  0.00  0.00     0.153 C 
BRANCH  10  12
ATOM     12  C10 <0> d          -0.100  -4.962   3.697  0.00  0.00     0.228 C 
BRANCH  12  13
ATOM     13  C11 <0> d          -1.547  -5.129   4.082  0.00  0.00     0.236 C 
ATOM     14  O2  <0> d          -2.420  -4.672   3.375  0.00  0.00    -0.272 OA
ATOM     15  N3  <0> d          -1.872  -5.787   5.213  0.00  0.00    -0.359 N 
ATOM     16  C12 <0> d          -3.279  -5.949   5.587  0.00  0.00     0.152 C 
ATOM     17  C13 <0> d          -0.818  -6.339   6.068  0.00  0.00     0.152 C 
ENDBRANCH  12  13
ENDBRANCH  10  12
ENDBRANCH   6   8
BRANCH   7  18
ATOM     18  N1  <0> d          -1.663  -0.654   2.048  0.00  0.00    -0.398 N 
ATOM     19  H7  <0> d          -2.313   0.051   1.905  0.00  0.00     0.156 HD
ATOM     20  H8  <0> d          -1.611  -1.099   2.909  0.00  0.00     0.156 HD
ENDBRANCH   7  18
TORSDOF 4
