REMARK  8 active torsions:
REMARK  status: ('A' for Active; 'I' for Inactive)
REMARK    1  A    between atoms: O1_2  and  C2_3 
REMARK    2  A    between atoms: N1_6  and  C7_9 
REMARK    3  A    between atoms: C7_9  and  C8_10 
REMARK    4  A    between atoms: C8_10  and  C9_11 
REMARK    5  A    between atoms: C8_10  and  O3_20 
REMARK    6  A    between atoms: C9_11  and  O2_12 
REMARK    7  A    between atoms: O2_12  and  C10_13 
REMARK    8  A    between atoms: C14_17  and  N2_19 
ROOT
ATOM      1  C8  <0> d          -4.096  -4.949   0.236  0.00  0.00     0.168 C 
ENDROOT
BRANCH   1   2
ATOM      2  C7  <0> d          -4.255  -3.553   0.843  0.00  0.00     0.268 C 
BRANCH   2   3
ATOM      3  N1  <0> d          -2.974  -2.838   0.771  0.00  0.00    -0.068 N 
ATOM      4  C4  <0> d          -3.096  -1.548   1.459  0.00  0.00     0.237 C 
ATOM      5  C3  <0> d          -1.742  -0.835   1.458  0.00  0.00     0.059 C 
ATOM      6  C2  <0> d          -1.295  -0.603   0.011  0.00  0.00     0.124 C 
ATOM      7  C6  <0> d          -1.243  -1.948  -0.718  0.00  0.00     0.059 C 
ATOM      8  C5  <0> d          -2.616  -2.620  -0.636  0.00  0.00     0.237 C 
ATOM      9  H25 <0> d          -2.258  -3.390   1.218  0.00  0.00     0.280 HD
BRANCH   6  10
ATOM     10  O1  <0> d           0.002  -0.004   0.002  0.00  0.00    -0.391 OA
ATOM     11  C1  <0> d          -0.017   1.425   0.010  0.00  0.00     0.202 C 
ENDBRANCH   6  10
ENDBRANCH   2   3
ENDBRANCH   1   2
BRANCH   1  12
ATOM     12  C9  <0> d          -5.457  -5.646   0.197  0.00  0.00     0.209 C 
BRANCH  12  13
ATOM     13  O2  <0> d          -5.330  -6.901  -0.474  0.00  0.00    -0.349 OA
BRANCH  13  14
ATOM     14  C10 <0> d          -6.455  -7.653  -0.596  0.00  0.00     0.070 A 
ATOM     15  C15 <0> d          -6.403  -8.881  -1.236  0.00  0.00     0.065 A 
ATOM     16  C14 <0> d          -7.554  -9.649  -1.353  0.00  0.00     0.028 A 
ATOM     17  C13 <0> d          -8.756  -9.179  -0.838  0.00  0.00     0.029 A 
ATOM     18  C12 <0> d          -8.804  -7.952  -0.205  0.00  0.00     0.005 A 
ATOM     19  C11 <0> d          -7.659  -7.189  -0.083  0.00  0.00     0.037 A 
BRANCH  16  20
ATOM     20  N2  <0> d          -7.504 -10.890  -1.992  0.00  0.00    -0.399 N 
ATOM     21  H22 <0> d          -8.309 -11.424  -2.077  0.00  0.00     0.156 HD
ATOM     22  H23 <0> d          -6.665 -11.217  -2.352  0.00  0.00     0.156 HD
ENDBRANCH  16  20
ENDBRANCH  13  14
ENDBRANCH  12  13
ENDBRANCH   1  12
BRANCH   1  23
ATOM     23  O3  <0> d          -3.190  -5.714   1.034  0.00  0.00    -0.392 OA
ATOM     24  H24 <0> d          -3.477  -5.832   1.950  0.00  0.00     0.210 HD
ENDBRANCH   1  23
TORSDOF 8
