REMARK  5 active torsions:
REMARK  status: ('A' for Active; 'I' for Inactive)
REMARK    1  A    between atoms: C5_7  and  C8_11 
REMARK    2  A    between atoms: C8_11  and  C9_12 
REMARK    3  A    between atoms: C9_12  and  C10_13 
REMARK    4  A    between atoms: C10_13  and  N4_14 
REMARK       I    between atoms: N4_14  and  C11_15 
REMARK    5  A    between atoms: C11_15  and  C12_17 
ROOT
ATOM      1  C9  <0> d           2.827  -1.889   4.022  0.00  0.00     0.027 C 
ENDROOT
BRANCH   1   2
ATOM      2  C8  <0> d           2.689  -2.518   2.635  0.00  0.00     0.082 C 
BRANCH   2   3
ATOM      3  C5  <0> d           3.015  -1.490   1.582  0.00  0.00     0.130 A 
ATOM      4  N2  <0> d           4.193  -1.250   1.070  0.00  0.00    -0.135 NA
ATOM      5  N1  <0> d           4.102  -0.311   0.193  0.00  0.00    -0.135 NA
ATOM      6  C4  <0> d           2.864   0.083   0.104  0.00  0.00     0.130 A 
ATOM      7  C3  <0> d           2.311   1.146  -0.809  0.00  0.00     0.080 C 
ATOM      8  N3  <0> d           2.144  -0.643   0.991  0.00  0.00    -0.320 N 
ATOM      9  C2  <0> d           1.403   2.078  -0.000  0.00  0.00     0.008 C 
ATOM     10  C1  <0> d          -0.019   1.524   0.010  0.00  0.00     0.002 C 
ATOM     11  C7  <0> d           0.002  -0.004   0.002  0.00  0.00     0.020 C 
ATOM     12  C6  <0> d           0.711  -0.518   1.258  0.00  0.00     0.132 C 
ENDBRANCH   2   3
ENDBRANCH   1   2
BRANCH   1  13
ATOM     13  C10 <0> d           2.497  -2.934   5.091  0.00  0.00     0.123 C 
BRANCH  13  14
ATOM     14  N4  <0> d           2.629  -2.332   6.420  0.00  0.00    -0.359 N 
ATOM     15  C11 <0> d           2.385  -3.069   7.521  0.00  0.00     0.248 C 
ATOM     16  O1  <0> d           2.055  -4.231   7.412  0.00  0.00    -0.271 OA
ATOM     17  H18 <0> d           2.892  -1.402   6.507  0.00  0.00     0.162 HD
BRANCH  15  18
ATOM     18  C12 <0> d           2.521  -2.450   8.888  0.00  0.00     0.236 C 
ATOM     19  O3  <0> d           2.323  -3.452   9.889  0.00  0.00    -0.372 OA
ATOM     20  C15 <0> d           2.384  -2.946  11.226  0.00  0.00     0.195 C 
ATOM     21  C14 <0> d           1.331  -1.848  11.398  0.00  0.00     0.193 C 
ATOM     22  O2  <0> d           1.530  -0.846  10.397  0.00  0.00    -0.386 OA
ATOM     23  C13 <0> d           1.468  -1.351   9.060  0.00  0.00     0.209 C 
ENDBRANCH  15  18
ENDBRANCH  13  14
ENDBRANCH   1  13
TORSDOF 5
