REMARK  7 active torsions:
REMARK  status: ('A' for Active; 'I' for Inactive)
REMARK    1  A    between atoms: C3_3  and  N6_22 
REMARK    2  A    between atoms: N1_5  and  C5_7 
REMARK    3  A    between atoms: C5_7  and  C6_8 
REMARK       I    between atoms: C6_8  and  N3_10 
REMARK    4  A    between atoms: N3_10  and  C7_11 
REMARK    5  A    between atoms: C7_11  and  C8_12 
REMARK    6  A    between atoms: C8_12  and  C9_13 
REMARK    7  A    between atoms: C9_13  and  N4_14 
ROOT
ATOM      1  C6  <0> d           1.481  -3.682   1.773  0.00  0.00     0.237 C 
ATOM      2  O1  <0> d           2.392  -3.032   1.306  0.00  0.00    -0.272 OA
ATOM      3  N3  <0> d           1.745  -4.751   2.550  0.00  0.00    -0.360 N 
ATOM      4  H6  <0> d           1.017  -5.271   2.924  0.00  0.00     0.162 HD
ENDROOT
BRANCH   1   5
ATOM      5  C5  <0> d           0.053  -3.295   1.485  0.00  0.00     0.253 C 
BRANCH   5   6
ATOM      6  N1  <0> d           0.034  -2.109   0.625  0.00  0.00    -0.263 N 
ATOM      7  C4  <0> d           0.027  -2.107  -0.725  0.00  0.00     0.062 A 
ATOM      8  C3  <0> d           0.008  -0.818  -1.135  0.00  0.00     0.152 A 
ATOM      9  C15 <0> d           0.039  -3.323  -1.615  0.00  0.00     0.072 C 
ATOM     10  C2  <0> d           0.002  -0.004   0.002  0.00  0.00     0.086 A 
ATOM     11  C1  <0> d          -0.018   1.503   0.010  0.00  0.00     0.075 C 
ATOM     12  N2  <0> d           0.023  -0.777   1.058  0.00  0.00    -0.174 NA
BRANCH   8  13
ATOM     13  N6  <0> d          -0.005  -0.351  -2.540  0.00  0.00    -0.111 N 
ATOM     14  O2  <0> d           1.036  -0.147  -3.119  0.00  0.00    -0.532 OA
ATOM     15  O3  <0> d          -1.058  -0.175  -3.109  0.00  0.00    -0.532 OA
ENDBRANCH   8  13
ENDBRANCH   5   6
ENDBRANCH   1   5
BRANCH   3  16
ATOM     16  C7  <0> d           3.133  -5.128   2.830  0.00  0.00     0.124 C 
BRANCH  16  17
ATOM     17  C8  <0> d           3.154  -6.366   3.729  0.00  0.00     0.050 C 
BRANCH  17  18
ATOM     18  C9  <0> d           4.603  -6.759   4.022  0.00  0.00     0.274 C 
BRANCH  18  19
ATOM     19  N4  <0> d           4.623  -7.948   4.884  0.00  0.00     0.091 N 
ATOM     20  C13 <0> d           5.983  -8.496   4.995  0.00  0.00     0.300 C 
ATOM     21  C12 <0> d           5.950  -9.764   5.850  0.00  0.00     0.264 C 
ATOM     22  N5  <0> d           5.424  -9.443   7.183  0.00  0.00    -0.072 N 
ATOM     23  C11 <0> d           4.057  -8.920   7.059  0.00  0.00     0.264 C 
ATOM     24  C14 <0> d           5.410 -10.657   8.010  0.00  0.00     0.269 C 
ATOM     25  H27 <0> d           6.012  -8.747   7.618  0.00  0.00     0.279 HD
ATOM     26  C10 <0> d           4.074  -7.644   6.213  0.00  0.00     0.300 C 
ENDBRANCH  18  19
ENDBRANCH  17  18
ENDBRANCH  16  17
ENDBRANCH   3  16
TORSDOF 7
