REMARK  3 active torsions:
REMARK  status: ('A' for Active; 'I' for Inactive)
REMARK    1  A    between atoms: C6_6  and  C13_15 
REMARK    2  A    between atoms: C11_12  and  O2_14 
REMARK    3  A    between atoms: C19_22  and  S1_24 
ROOT
ATOM      1  C1  <0> d          -0.019   1.539   0.011  0.00  0.00     0.038 C 
ATOM      2  C2  <0> d           0.002  -0.004   0.002  0.00  0.00     0.027 C 
ATOM      3  C3  <0> d           0.710  -0.474  -1.264  0.00  0.00     0.066 C 
ATOM      4  C4  <0> d           1.188  -1.917  -1.209  0.00  0.00     0.067 C 
ATOM      5  C5  <0> d           0.096  -2.882  -1.672  0.00  0.00     0.073 C 
ATOM      6  C6  <0> d          -0.172  -2.653  -3.163  0.00  0.00     0.164 C 
ATOM      7  O1  <0> d           1.002  -3.010  -3.891  0.00  0.00    -0.340 OA
ATOM      8  C7  <0> d           2.206  -2.581  -3.430  0.00  0.00     0.081 A 
ATOM      9  C8  <0> d           2.362  -2.052  -2.163  0.00  0.00     0.004 A 
ATOM     10  C9  <0> d           3.609  -1.631  -1.733  0.00  0.00     0.015 A 
ATOM     11  C10 <0> d           4.703  -1.742  -2.567  0.00  0.00     0.037 A 
ATOM     12  C11 <0> d           4.554  -2.270  -3.843  0.00  0.00     0.068 A 
ATOM     13  C12 <0> d           3.308  -2.689  -4.276  0.00  0.00     0.074 A 
ATOM     14  N1  <0> d           1.649  -2.306   0.119  0.00  0.00    -0.357 N 
ATOM     15  C19 <0> d           1.435  -1.626   1.194  0.00  0.00     0.137 C 
ATOM     16  N2  <0> d           0.715  -0.460   1.197  0.00  0.00    -0.362 N 
ATOM     17  C21 <0> d          -1.449  -0.494   0.036  0.00  0.00     0.038 C 
ATOM     18  H18 <0> d           0.673   0.075   2.015  0.00  0.00     0.162 HD
ATOM     19  H25 <0> d           2.153  -3.135   0.202  0.00  0.00     0.162 HD
ENDROOT
BRANCH   6  20
ATOM     20  C13 <0> d          -1.325  -3.516  -3.606  0.00  0.00    -0.029 A 
ATOM     21  C18 <0> d          -2.588  -2.969  -3.734  0.00  0.00     0.010 A 
ATOM     22  C17 <0> d          -3.645  -3.760  -4.144  0.00  0.00     0.001 A 
ATOM     23  C16 <0> d          -3.440  -5.099  -4.418  0.00  0.00     0.000 A 
ATOM     24  C15 <0> d          -2.178  -5.647  -4.285  0.00  0.00     0.001 A 
ATOM     25  C14 <0> d          -1.120  -4.856  -3.879  0.00  0.00     0.010 A 
ENDBRANCH   6  20
BRANCH  15  26
ATOM     26  S1  <0> d           2.095  -2.223   2.717  0.00  0.00    -0.099 SA
ATOM     27  C20 <0> d           1.567  -0.989   3.937  0.00  0.00     0.099 C 
ENDBRANCH  15  26
BRANCH  12  28
ATOM     28  O2  <0> d           5.629  -2.368  -4.669  0.00  0.00    -0.361 OA
ATOM     29  H12 <0> d           6.107  -3.205  -4.593  0.00  0.00     0.217 HD
ENDBRANCH  12  28
TORSDOF 3
