REMARK  5 active torsions:
REMARK  status: ('A' for Active; 'I' for Inactive)
REMARK    1  A    between atoms: C4_5  and  N2_11 
REMARK    2  A    between atoms: C5_6  and  C6_7 
REMARK       I    between atoms: C6_7  and  N1_9 
REMARK       I    between atoms: N2_11  and  C8_12 
REMARK    3  A    between atoms: C8_12  and  C9_14 
REMARK    4  A    between atoms: C13_18  and  O4_22 
REMARK    5  A    between atoms: C14_19  and  O3_20 
ROOT
ATOM      1  N2  <0> d          -1.096  -2.429   2.486  0.00  0.00    -0.316 N 
ATOM      2  C8  <0> d          -1.069  -3.302   3.512  0.00  0.00     0.259 C 
ATOM      3  O2  <0> d          -1.056  -4.498   3.294  0.00  0.00    -0.267 OA
ATOM      4  H8  <0> d          -1.107  -1.475   2.660  0.00  0.00     0.169 HD
ENDROOT
BRANCH   1   5
ATOM      5  C4  <0> d          -1.109  -2.895   1.181  0.00  0.00     0.093 A 
ATOM      6  S1  <0> d          -1.097  -4.535   0.624  0.00  0.00    -0.076 SA
ATOM      7  C3  <0> d          -1.118  -4.252  -1.134  0.00  0.00    -0.012 A 
ATOM      8  C2  <0> d          -1.137  -2.910  -1.232  0.00  0.00    -0.031 A 
ATOM      9  C17 <0> d          -1.114  -5.270  -2.245  0.00  0.00     0.057 C 
ATOM     10  C1  <0> d          -1.159  -2.220  -2.571  0.00  0.00     0.050 C 
ATOM     11  C5  <0> d          -1.136  -2.160   0.001  0.00  0.00     0.072 A 
BRANCH  11  12
ATOM     12  C6  <0> d          -1.156  -0.694   0.009  0.00  0.00     0.254 C 
ATOM     13  O1  <0> d          -2.218  -0.100   0.023  0.00  0.00    -0.268 OA
ATOM     14  N1  <0> d           0.002  -0.004   0.002  0.00  0.00    -0.361 N 
ATOM     15  C7  <0> d          -0.018   1.461   0.010  0.00  0.00     0.149 C 
ATOM     16  H4  <0> d           0.849  -0.478  -0.009  0.00  0.00     0.162 HD
ENDBRANCH  11  12
ENDBRANCH   1   5
BRANCH   2  17
ATOM     17  C9  <0> d          -1.056  -2.806   4.901  0.00  0.00     0.068 A 
ATOM     18  C14 <0> d          -1.034  -3.709   5.971  0.00  0.00     0.117 A 
ATOM     19  C13 <0> d          -1.017  -3.229   7.277  0.00  0.00     0.102 A 
ATOM     20  C12 <0> d          -1.032  -1.865   7.514  0.00  0.00     0.040 A 
ATOM     21  C11 <0> d          -1.059  -0.972   6.455  0.00  0.00     0.004 A 
ATOM     22  C10 <0> d          -1.071  -1.431   5.157  0.00  0.00     0.020 A 
BRANCH  18  23
ATOM     23  O3  <0> d          -1.025  -5.046   5.735  0.00  0.00    -0.352 OA
ATOM     24  C15 <0> d           0.253  -5.673   5.606  0.00  0.00     0.210 C 
ENDBRANCH  18  23
BRANCH  19  25
ATOM     25  O4  <0> d          -0.990  -4.101   8.321  0.00  0.00    -0.353 OA
ATOM     26  C16 <0> d          -0.979  -3.538   9.635  0.00  0.00     0.210 C 
ENDBRANCH  19  25
ENDBRANCH   2  17
TORSDOF 5
