REMARK  7 active torsions:
REMARK  status: ('A' for Active; 'I' for Inactive)
REMARK    1  A    between atoms: C4_5  and  C5_6 
REMARK    2  A    between atoms: C5_6  and  N1_7 
REMARK       I    between atoms: N1_7  and  C6_8 
REMARK    3  A    between atoms: C6_8  and  C7_10 
REMARK    4  A    between atoms: C9_12  and  C12_16 
REMARK    5  A    between atoms: C13_17  and  C14_18 
REMARK    6  A    between atoms: C14_18  and  C15_19 
REMARK    7  A    between atoms: C15_19  and  O2_20 
ROOT
ATOM      1  C7  <0> d          -3.287  -1.968  -2.998  0.00  0.00     0.051 A 
ATOM      2  C8  <0> d          -4.465  -2.674  -3.257  0.00  0.00     0.040 A 
ATOM      3  C9  <0> d          -4.830  -2.880  -4.589  0.00  0.00     0.036 A 
ATOM      4  C10 <0> d          -4.011  -2.378  -5.602  0.00  0.00     0.136 A 
ATOM      5  N2  <0> d          -2.908  -1.718  -5.314  0.00  0.00    -0.271 NA
ATOM      6  C11 <0> d          -2.530  -1.496  -4.071  0.00  0.00     0.133 A 
ENDROOT
BRANCH   1   7
ATOM      7  C6  <0> d          -2.852  -1.719  -1.606  0.00  0.00     0.253 C 
ATOM      8  N1  <0> d          -1.717  -1.032  -1.368  0.00  0.00    -0.353 N 
ATOM      9  H6  <0> d          -1.186  -0.701  -2.109  0.00  0.00     0.163 HD
ATOM     10  O1  <0> d          -3.518  -2.134  -0.678  0.00  0.00    -0.268 OA
BRANCH   8  11
ATOM     11  C5  <0> d          -1.286  -0.786   0.011  0.00  0.00     0.162 C 
BRANCH  11  12
ATOM     12  C4  <0> d           0.002  -0.004   0.002  0.00  0.00    -0.034 A 
ATOM     13  C1  <0> d          -0.017   1.378   0.010  0.00  0.00     0.016 A 
ATOM     14  C2  <0> d           1.160   2.051   0.002  0.00  0.00     0.050 A 
ATOM     15  S1  <0> d           2.348   0.719  -0.017  0.00  0.00    -0.113 SA
ATOM     16  C3  <0> d           1.196  -0.645  -0.013  0.00  0.00     0.058 A 
ENDBRANCH  11  12
ENDBRANCH   8  11
ENDBRANCH   1   7
BRANCH   3  17
ATOM     17  C12 <0> d          -6.027  -3.597  -4.912  0.00  0.00    -0.066 C 
ATOM     18  C13 <0> d          -7.008  -4.185  -5.176  0.00  0.00    -0.099 C 
BRANCH  18  19
ATOM     19  C14 <0> d          -8.239  -4.922  -5.508  0.00  0.00     0.120 C 
BRANCH  19  20
ATOM     20  C15 <0> d          -8.392  -5.000  -7.028  0.00  0.00     0.176 C 
BRANCH  20  21
ATOM     21  O2  <0> d          -9.587  -5.716  -7.350  0.00  0.00    -0.400 OA
ATOM     22  H14 <0> d          -9.749  -5.804  -8.299  0.00  0.00     0.209 HD
ENDBRANCH  20  21
ENDBRANCH  19  20
ENDBRANCH  18  19
ENDBRANCH   3  17
TORSDOF 7
