REMARK  7 active torsions:
REMARK  status: ('A' for Active; 'I' for Inactive)
REMARK    1  A    between atoms: C2_2  and  C3_3 
REMARK    2  A    between atoms: C3_3  and  C4_4 
REMARK    3  A    between atoms: C3_3  and  N1_19 
REMARK    4  A    between atoms: C4_4  and  C5_5 
REMARK    5  A    between atoms: C4_4  and  O1_12 
REMARK    6  A    between atoms: O1_12  and  C11_13 
REMARK    7  A    between atoms: C11_13  and  C12_14 
ROOT
ATOM      1  C4  <0> d          -1.441  -2.152  -0.044  0.00  0.00     0.186 C 
ENDROOT
BRANCH   1   2
ATOM      2  C3  <0> d          -1.736  -0.653  -0.121  0.00  0.00     0.216 C 
BRANCH   2   3
ATOM      3  C2  <0> d          -2.484  -0.347  -1.420  0.00  0.00     0.031 C 
ATOM      4  C1  <0> d          -2.879   1.131  -1.445  0.00  0.00     0.007 C 
ENDBRANCH   2   3
BRANCH   2   5
ATOM      5  N1  <0> d          -0.473   0.096  -0.095  0.00  0.00    -0.072 N 
ATOM      6  H21 <0> d          -0.669   1.085  -0.039  0.00  0.00     0.274 HD
ATOM      7  H22 <0> d           0.069  -0.185   0.708  0.00  0.00     0.274 HD
ATOM      8  H23 <0> d           0.049  -0.095  -0.937  0.00  0.00     0.274 HD
ENDBRANCH   2   5
ENDBRANCH   1   2
BRANCH   1   9
ATOM      9  C5  <0> d          -2.737  -2.914   0.061  0.00  0.00    -0.010 A 
ATOM     10  C10 <0> d          -3.331  -3.102   1.296  0.00  0.00     0.019 A 
ATOM     11  C9  <0> d          -4.523  -3.798   1.391  0.00  0.00     0.020 A 
ATOM     12 Br1  <0> d          -2.517  -2.403   2.853  0.00  0.00    -0.050 Br
ATOM     13  C8  <0> d          -5.114  -4.314   0.254  0.00  0.00     0.001 A 
ATOM     14  C7  <0> d          -4.518  -4.130  -0.980  0.00  0.00     0.001 A 
ATOM     15  C6  <0> d          -3.329  -3.431  -1.076  0.00  0.00     0.011 A 
ENDBRANCH   1   9
BRANCH   1  16
ATOM     16  O1  <0> d          -0.742  -2.562  -1.221  0.00  0.00    -0.379 OA
BRANCH  16  17
ATOM     17  C11 <0> d           0.672  -2.675  -1.047  0.00  0.00     0.175 C 
BRANCH  17  18
ATOM     18  C12 <0> d           1.321  -3.048  -2.381  0.00  0.00     0.035 C 
ATOM     19  C15 <0> d           1.210  -1.880  -3.380  0.00  0.00     0.174 C 
ATOM     20  O2  <0> d           2.551  -1.449  -3.680  0.00  0.00    -0.391 OA
ATOM     21  C14 <0> d           3.415  -2.589  -3.481  0.00  0.00     0.168 C 
ATOM     22  C13 <0> d           2.845  -3.255  -2.203  0.00  0.00     0.035 C 
ENDBRANCH  17  18
ENDBRANCH  16  17
ENDBRANCH   1  16
TORSDOF 7
