REMARK  3 active torsions:
REMARK  status: ('A' for Active; 'I' for Inactive)
REMARK    1  A    between atoms: O1_2  and  C2_3 
REMARK    2  A    between atoms: C5_6  and  C8_9 
REMARK    3  A    between atoms: C8_9  and  N3_23 
ROOT
ATOM      1  C9  <0> d          -0.013   1.086   0.008  0.00  0.00     0.241 C 
ATOM      2  C10 <0> d          -0.762   1.597  -1.223  0.00  0.00     0.085 C 
ATOM      3  C11 <0> d          -1.008   3.079  -1.099  0.00  0.00     0.028 A 
ATOM      4  C12 <0> d          -0.912   3.720   0.079  0.00  0.00     0.058 A 
ATOM      5  C13 <0> d          -1.167   5.117   0.125  0.00  0.00     0.259 A 
ATOM      6  O2  <0> d          -1.092   5.718   1.181  0.00  0.00    -0.267 OA
ATOM      7  N1  <0> d          -1.492   5.772  -1.006  0.00  0.00    -0.275 N 
ATOM      8  H1  <0> d          -1.672   6.756  -0.978  0.00  0.00     0.173 HD
ATOM      9  C14 <0> d          -1.575   5.106  -2.172  0.00  0.00     0.327 A 
ATOM     10  O3  <0> d          -1.867   5.708  -3.188  0.00  0.00    -0.247 OA
ATOM     11  N2  <0> d          -1.340   3.785  -2.228  0.00  0.00    -0.312 N 
ATOM     12  H2  <0> d          -1.407   3.309  -3.105  0.00  0.00     0.170 HD
ATOM     13  C15 <0> d          -0.536   3.014   1.353  0.00  0.00     0.281 C 
ATOM     14  N3  <0> d          -0.734   1.563   1.205  0.00  0.00    -0.063 N 
ATOM     15  H18 <0> d          -1.736   1.371   1.091  0.00  0.00     0.280 HD
ENDROOT
BRANCH  14  16
ATOM     16  C8  <0> d          -0.242   0.858   2.410  0.00  0.00     0.273 C 
BRANCH  16  17
ATOM     17  C5  <0> d          -0.790   1.535   3.640  0.00  0.00    -0.032 A 
ATOM     18  C4  <0> d          -2.006   1.135   4.163  0.00  0.00     0.011 A 
ATOM     19  C3  <0> d          -2.511   1.754   5.290  0.00  0.00     0.037 A 
ATOM     20  C2  <0> d          -1.797   2.777   5.898  0.00  0.00     0.068 A 
ATOM     21  C7  <0> d          -0.577   3.175   5.371  0.00  0.00     0.037 A 
ATOM     22  C6  <0> d          -0.074   2.550   4.247  0.00  0.00     0.011 A 
BRANCH  20  23
ATOM     23  O1  <0> d          -2.291   3.387   7.007  0.00  0.00    -0.356 OA
ATOM     24  C1  <0> d          -1.502   4.432   7.579  0.00  0.00     0.210 C 
ENDBRANCH  20  23
ENDBRANCH  16  17
ENDBRANCH  14  16
TORSDOF 3
