REMARK  4 active torsions:
REMARK  status: ('A' for Active; 'I' for Inactive)
REMARK    1  A    between atoms: C5_5  and  C9_9 
REMARK    2  A    between atoms: C9_9  and  C10_10 
REMARK       I    between atoms: C10_10  and  N1_12 
REMARK    3  A    between atoms: N1_12  and  C11_13 
REMARK    4  A    between atoms: C12_14  and  C19_22 
REMARK       I    between atoms: C19_22  and  N2_24 
ROOT
ATOM      1  C11 <0> d          -0.467  -2.628   0.130  0.00  0.00     0.093 A 
ATOM      2  C12 <0> d           0.812  -2.218  -0.224  0.00  0.00     0.073 A 
ATOM      3  C13 <0> d           1.062  -0.791  -0.293  0.00  0.00    -0.023 A 
ATOM      4  C14 <0> d           0.002  -0.004   0.002  0.00  0.00     0.018 A 
ATOM      5  S1  <0> d          -1.311  -1.132   0.364  0.00  0.00    -0.074 SA
ATOM      6  C15 <0> d          -0.018   1.492   0.010  0.00  0.00     0.281 C 
ATOM      7  C16 <0> d           2.151   1.297  -1.051  0.00  0.00     0.239 C 
ATOM      8  C17 <0> d           2.400  -0.164  -0.665  0.00  0.00     0.068 C 
ATOM      9  C18 <0> d           1.430   3.431  -0.162  0.00  0.00     0.270 C 
ATOM     10  N3  <0> d           1.388   1.965   0.023  0.00  0.00    -0.070 N 
ATOM     11  H24 <0> d           1.811   1.731   0.929  0.00  0.00     0.279 HD
ENDROOT
BRANCH   1  12
ATOM     12  N1  <0> d          -0.952  -3.920   0.263  0.00  0.00    -0.320 N 
ATOM     13  C10 <0> d          -2.235  -4.125   0.618  0.00  0.00     0.226 C 
ATOM     14  O1  <0> d          -2.967  -3.180   0.821  0.00  0.00    -0.273 OA
ATOM     15  H12 <0> d          -0.366  -4.677   0.100  0.00  0.00     0.169 HD
BRANCH  13  16
ATOM     16  C9  <0> d          -2.762  -5.530   0.763  0.00  0.00     0.141 C 
BRANCH  16  17
ATOM     17  C5  <0> d          -4.213  -5.484   1.165  0.00  0.00    -0.049 A 
ATOM     18  C4  <0> d          -4.560  -5.468   2.503  0.00  0.00     0.008 A 
ATOM     19  C3  <0> d          -5.891  -5.420   2.872  0.00  0.00     0.008 A 
ATOM     20  C2  <0> d          -6.877  -5.398   1.902  0.00  0.00    -0.056 A 
ATOM     21  C1  <0> d          -8.328  -5.351   2.304  0.00  0.00     0.049 C 
ATOM     22  C7  <0> d          -6.530  -5.419   0.564  0.00  0.00    -0.056 A 
ATOM     23  C6  <0> d          -5.199  -5.461   0.196  0.00  0.00     0.014 A 
ATOM     24  C8  <0> d          -7.604  -5.395  -0.492  0.00  0.00     0.049 C 
ENDBRANCH  16  17
ENDBRANCH  13  16
ENDBRANCH   1  12
BRANCH   2  25
ATOM     25  C19 <0> d           1.869  -3.191  -0.517  0.00  0.00     0.252 C 
ATOM     26  O2  <0> d           2.589  -3.595   0.378  0.00  0.00    -0.268 OA
ATOM     27  N2  <0> d           2.044  -3.638  -1.776  0.00  0.00    -0.366 N 
ATOM     28  H22 <0> d           1.471  -3.316  -2.489  0.00  0.00     0.159 HD
ATOM     29  H23 <0> d           2.744  -4.282  -1.969  0.00  0.00     0.159 HD
ENDBRANCH   2  25
TORSDOF 4
