REMARK  3 active torsions:
REMARK  status: ('A' for Active; 'I' for Inactive)
REMARK    1  A    between atoms: C2_2  and  O1_3 
REMARK    2  A    between atoms: O1_3  and  C3_4 
REMARK    3  A    between atoms: C6_7  and  C9_10 
ROOT
ATOM      1  C9  <0> d           1.109  -6.040  -1.847  0.00  0.00     0.098 C 
ATOM      2  C10 <0> d           2.565  -6.433  -1.932  0.00  0.00     0.026 A 
ATOM      3  C11 <0> d           3.519  -6.427  -0.921  0.00  0.00     0.062 A 
ATOM      4  N1  <0> d           4.657  -6.840  -1.426  0.00  0.00    -0.178 NA
ATOM      5  N2  <0> d           4.464  -7.124  -2.787  0.00  0.00    -0.262 N 
ATOM      6  H2  <0> d           5.138  -7.445  -3.406  0.00  0.00     0.191 HD
ATOM      7  C12 <0> d           3.172  -6.871  -3.077  0.00  0.00     0.131 A 
ATOM      8  N3  <0> d           2.497  -7.011  -4.295  0.00  0.00    -0.342 N 
ATOM      9  C13 <0> d           1.133  -6.887  -4.234  0.00  0.00     0.048 A 
ATOM     10  C14 <0> d           0.447  -6.455  -3.144  0.00  0.00     0.055 A 
ATOM     11  C15 <0> d          -0.927  -6.461  -3.430  0.00  0.00     0.292 A 
ATOM     12  O2  <0> d          -1.796  -6.128  -2.644  0.00  0.00    -0.259 OA
ATOM     13  O3  <0> d          -1.158  -6.885  -4.689  0.00  0.00    -0.312 OA
ATOM     14  C16 <0> d           0.112  -7.184  -5.296  0.00  0.00     0.237 A 
ATOM     15  C17 <0> d           3.285  -6.017   0.510  0.00  0.00     0.073 C 
ATOM     16  H12 <0> d           2.963  -7.185  -5.128  0.00  0.00     0.167 HD
ENDROOT
BRANCH   1  17
ATOM     17  C6  <0> d           0.992  -4.548  -1.667  0.00  0.00    -0.045 A 
ATOM     18  C5  <0> d           0.351  -4.036  -0.554  0.00  0.00     0.011 A 
ATOM     19  C4  <0> d           0.243  -2.669  -0.386  0.00  0.00     0.037 A 
ATOM     20  C3  <0> d           0.777  -1.810  -1.336  0.00  0.00     0.068 A 
ATOM     21  C8  <0> d           1.414  -2.327  -2.455  0.00  0.00     0.037 A 
ATOM     22  C7  <0> d           1.525  -3.694  -2.615  0.00  0.00     0.011 A 
BRANCH  20  23
ATOM     23  O1  <0> d           0.671  -0.465  -1.174  0.00  0.00    -0.352 OA
BRANCH  23  24
ATOM     24  C2  <0> d           0.002  -0.004   0.002  0.00  0.00     0.171 C 
ATOM     25  C1  <0> d          -0.019   1.526   0.010  0.00  0.00     0.034 C 
ENDBRANCH  23  24
ENDBRANCH  20  23
ENDBRANCH   1  17
TORSDOF 3
