REMARK  8 active torsions:
REMARK  status: ('A' for Active; 'I' for Inactive)
REMARK    1  A    between atoms: C2_2  and  N1_3 
REMARK    2  A    between atoms: N1_3  and  C3_4 
REMARK    3  A    between atoms: N1_3  and  C10_16 
REMARK    4  A    between atoms: C3_4  and  C4_5 
REMARK       I    between atoms: C4_5  and  N2_7 
REMARK    5  A    between atoms: N2_7  and  C5_8 
REMARK    6  A    between atoms: C6_9  and  C9_13 
REMARK       I    between atoms: C9_13  and  N3_15 
REMARK    7  A    between atoms: C10_16  and  C12_18 
REMARK    8  A    between atoms: C16_22  and  O3_24 
ROOT
ATOM      1  C3  <0> d           2.166   0.016  -1.033  0.00  0.00     0.338 C 
ENDROOT
BRANCH   1   2
ATOM      2  N1  <0> d           0.759  -0.385  -1.167  0.00  0.00    -0.055 N 
ATOM      3  H24 <0> d           0.319   0.166  -1.888  0.00  0.00     0.281 HD
BRANCH   2   4
ATOM      4  C2  <0> d           0.065  -0.167   0.109  0.00  0.00     0.232 C 
ATOM      5  C1  <0> d           0.643  -1.103   1.172  0.00  0.00     0.034 C 
ENDBRANCH   2   4
BRANCH   2   6
ATOM      6  C10 <0> d           0.688  -1.808  -1.526  0.00  0.00     0.217 C 
ATOM      7  C11 <0> d          -0.777  -2.226  -1.665  0.00  0.00     0.045 C 
BRANCH   6   8
ATOM      8  C12 <0> d           1.401  -2.032  -2.834  0.00  0.00    -0.025 A 
ATOM      9  C17 <0> d           2.183  -3.156  -3.010  0.00  0.00     0.045 A 
ATOM     10  C16 <0> d           2.834  -3.365  -4.218  0.00  0.00     0.068 A 
ATOM     11  C15 <0> d           2.707  -2.437  -5.241  0.00  0.00     0.037 A 
ATOM     12  C14 <0> d           1.928  -1.311  -5.058  0.00  0.00     0.003 A 
ATOM     13  C13 <0> d           1.276  -1.108  -3.856  0.00  0.00     0.009 A 
BRANCH  10  14
ATOM     14  O3  <0> d           3.600  -4.474  -4.396  0.00  0.00    -0.356 OA
ATOM     15  C18 <0> d           4.245  -4.620  -5.662  0.00  0.00     0.210 C 
ENDBRANCH  10  14
ENDBRANCH   6   8
ENDBRANCH   2   6
ENDBRANCH   1   2
BRANCH   1  16
ATOM     16  C4  <0> d           2.246   1.508  -0.836  0.00  0.00     0.248 C 
ATOM     17  O1  <0> d           1.244   2.186  -0.923  0.00  0.00    -0.271 OA
ATOM     18  N2  <0> d           3.431   2.089  -0.563  0.00  0.00    -0.319 N 
ATOM     19  H9  <0> d           4.233   1.547  -0.493  0.00  0.00     0.169 HD
BRANCH  18  20
ATOM     20  C5  <0> d           3.505   3.462  -0.382  0.00  0.00     0.092 A 
ATOM     21  S1  <0> d           2.257   4.581  -0.457  0.00  0.00    -0.083 SA
ATOM     22  C8  <0> d           3.157   6.078  -0.117  0.00  0.00     0.053 A 
ATOM     23  C7  <0> d           4.423   5.649   0.040  0.00  0.00     0.027 A 
ATOM     24  C6  <0> d           4.629   4.226  -0.102  0.00  0.00     0.066 A 
BRANCH  24  25
ATOM     25  C9  <0> d           5.956   3.621   0.043  0.00  0.00     0.252 C 
ATOM     26  O2  <0> d           6.093   2.418  -0.082  0.00  0.00    -0.268 OA
ATOM     27  N3  <0> d           7.024   4.396   0.315  0.00  0.00    -0.366 N 
ATOM     28  H12 <0> d           6.915   5.355   0.414  0.00  0.00     0.159 HD
ATOM     29  H13 <0> d           7.903   3.996   0.410  0.00  0.00     0.159 HD
ENDBRANCH  24  25
ENDBRANCH  18  20
ENDBRANCH   1  16
TORSDOF 8
