REMARK  2 active torsions:
REMARK  status: ('A' for Active; 'I' for Inactive)
REMARK    1  A    between atoms: C5_7  and  N4_11 
REMARK       I    between atoms: N5_14  and  C12_17 
REMARK       I    between atoms: C12_17  and  N6_19 
REMARK    2  A    between atoms: N6_19  and  C13_20 
ROOT
ATOM      1  N4  <0> d           4.349  -3.671   1.495  0.00  0.00    -0.364 N 
ATOM      2  C8  <0> d           4.208  -3.792   2.953  0.00  0.00     0.144 C 
ATOM      3  C9  <0> d           4.400  -5.262   3.343  0.00  0.00     0.147 C 
ATOM      4  N5  <0> d           5.627  -5.761   2.707  0.00  0.00    -0.331 N 
ATOM      5  C10 <0> d           5.768  -5.640   1.249  0.00  0.00     0.147 C 
ATOM      6  C11 <0> d           5.574  -4.174   0.858  0.00  0.00     0.144 C 
ATOM      7  C12 <0> d           6.606  -6.319   3.446  0.00  0.00     0.323 C 
ATOM      8  O1  <0> d           6.426  -6.533   4.630  0.00  0.00    -0.247 OA
ATOM      9  N6  <0> d           7.783  -6.640   2.874  0.00  0.00    -0.309 N 
ATOM     10  H17 <0> d           7.978  -6.349   1.970  0.00  0.00     0.170 HD
ENDROOT
BRANCH   9  11
ATOM     11  C13 <0> d           8.724  -7.394   3.585  0.00  0.00     0.042 A 
ATOM     12  C18 <0> d           9.664  -8.154   2.903  0.00  0.00     0.072 A 
ATOM     13  C17 <0> d          10.597  -8.894   3.608  0.00  0.00     0.121 A 
ATOM     14  C16 <0> d          10.586  -8.885   4.993  0.00  0.00     0.084 A 
ATOM     15  F1  <0> d          11.516  -9.629   2.945  0.00  0.00    -0.206 F 
ATOM     16  C15 <0> d           9.645  -8.132   5.675  0.00  0.00     0.121 A 
ATOM     17  C14 <0> d           8.714  -7.386   4.974  0.00  0.00     0.072 A 
ATOM     18  F2  <0> d           9.637  -8.125   7.026  0.00  0.00    -0.206 F 
ENDBRANCH   9  11
BRANCH   1  19
ATOM     19  C5  <0> d           3.345  -3.098   0.736  0.00  0.00     0.107 A 
ATOM     20  N2  <0> d           3.109  -3.545  -0.509  0.00  0.00    -0.338 N 
ATOM     21  C4  <0> d           2.172  -3.030  -1.253  0.00  0.00     0.186 A 
ATOM     22  H21 <0> d           3.650  -4.269  -0.862  0.00  0.00     0.168 HD
ATOM     23  N1  <0> d           1.386  -2.017  -0.808  0.00  0.00    -0.326 N 
ATOM     24  C3  <0> d           0.285  -1.291  -1.460  0.00  0.00     0.158 A 
ATOM     25  C7  <0> d           1.566  -1.504   0.457  0.00  0.00     0.129 A 
ATOM     26  C2  <0> d          -0.160  -0.274  -0.394  0.00  0.00     0.124 A 
ATOM     27  C1  <0> d           0.025   1.156  -0.907  0.00  0.00     0.036 C 
ATOM     28  N3  <0> d           0.729  -0.529   0.745  0.00  0.00    -0.266 NA
ATOM     29  C6  <0> d           2.590  -2.073   1.259  0.00  0.00     0.098 A 
ENDBRANCH   1  19
TORSDOF 2
