REMARK  5 active torsions:
REMARK  status: ('A' for Active; 'I' for Inactive)
REMARK    1  A    between atoms: C3_4  and  C4_7 
REMARK    2  A    between atoms: C4_7  and  C5_8 
REMARK    3  A    between atoms: C5_8  and  N3_9 
REMARK       I    between atoms: N3_9  and  C6_10 
REMARK    4  A    between atoms: C6_10  and  C7_12 
REMARK    5  A    between atoms: C9_15  and  C12_18 
ROOT
ATOM      1  N3  <0> d           1.428  -4.440  -3.162  0.00  0.00    -0.355 N 
ATOM      2  C6  <0> d           2.594  -4.965  -3.591  0.00  0.00     0.270 C 
ATOM      3  O2  <0> d           3.643  -4.423  -3.309  0.00  0.00    -0.266 OA
ATOM      4  H9  <0> d           0.590  -4.873  -3.388  0.00  0.00     0.162 HD
ENDROOT
BRANCH   2   5
ATOM      5  C7  <0> d           2.594  -6.206  -4.410  0.00  0.00     0.126 A 
ATOM      6  C10 <0> d           3.802  -6.861  -4.928  0.00  0.00    -0.016 A 
ATOM      7  C9  <0> d           3.442  -7.963  -5.624  0.00  0.00     0.020 A 
ATOM      8  C11 <0> d           5.215  -6.384  -4.715  0.00  0.00     0.052 C 
ATOM      9  C8  <0> d           1.932  -8.016  -5.561  0.00  0.00     0.142 A 
ATOM     10  N4  <0> d           1.528  -6.851  -4.766  0.00  0.00    -0.274 NA
ATOM     11  C14 <0> d           1.475  -9.307  -4.877  0.00  0.00     0.040 C 
BRANCH   7  12
ATOM     12  C12 <0> d           4.330  -8.906  -6.303  0.00  0.00     0.154 C 
ATOM     13  O3  <0> d           5.533  -8.800  -6.184  0.00  0.00    -0.293 OA
ATOM     14  C13 <0> d           3.751 -10.008  -7.152  0.00  0.00     0.096 C 
ENDBRANCH   7  12
ENDBRANCH   2   5
BRANCH   1  15
ATOM     15  C5  <0> d           1.428  -3.217  -2.356  0.00  0.00     0.131 C 
BRANCH  15  16
ATOM     16  C4  <0> d          -0.012  -2.839  -2.003  0.00  0.00     0.108 C 
BRANCH  16  17
ATOM     17  C3  <0> d          -0.012  -1.581  -1.174  0.00  0.00     0.174 A 
ATOM     18  N1  <0> d          -0.074  -0.362  -1.634  0.00  0.00    -0.209 NA
ATOM     19  C2  <0> d          -0.053   0.512  -0.622  0.00  0.00     0.152 A 
ATOM     20  C1  <0> d          -0.109   2.012  -0.758  0.00  0.00     0.096 C 
ATOM     21  N2  <0> d           0.030  -0.143   0.500  0.00  0.00    -0.112 NA
ATOM     22  O1  <0> d           0.053  -1.522   0.162  0.00  0.00    -0.196 OA
ENDBRANCH  16  17
ENDBRANCH  15  16
ENDBRANCH   1  15
TORSDOF 5
