REMARK  7 active torsions:
REMARK  status: ('A' for Active; 'I' for Inactive)
REMARK    1  A    between atoms: C2_2  and  C4_4 
REMARK    2  A    between atoms: C4_4  and  C5_5 
REMARK    3  A    between atoms: C4_4  and  N2_9 
REMARK    4  A    between atoms: C5_5  and  N1_6 
REMARK       I    between atoms: N2_9  and  C8_10 
REMARK    5  A    between atoms: C8_10  and  C9_12 
REMARK    6  A    between atoms: C11_14  and  N4_19 
REMARK    7  A    between atoms: N4_19  and  N5_20 
ROOT
ATOM      1  N2  <0> d          -2.104  -0.120  -1.359  0.00  0.00    -0.350 N 
ATOM      2  C8  <0> d          -2.609   1.121  -1.511  0.00  0.00     0.252 C 
ATOM      3  O1  <0> d          -2.482   1.941  -0.623  0.00  0.00    -0.268 OA
ATOM      4  H17 <0> d          -2.205  -0.775  -2.067  0.00  0.00     0.163 HD
ENDROOT
BRANCH   2   5
ATOM      5  C9  <0> d          -3.318   1.484  -2.760  0.00  0.00     0.038 A 
ATOM      6  C13 <0> d          -3.474   0.553  -3.793  0.00  0.00     0.061 A 
ATOM      7  C12 <0> d          -4.146   0.928  -4.941  0.00  0.00     0.129 A 
ATOM      8  N3  <0> d          -4.629   2.149  -5.077  0.00  0.00    -0.218 NA
ATOM      9 Cl1  <0> d          -4.350  -0.220  -6.226  0.00  0.00    -0.062 Cl
ATOM     10  C11 <0> d          -4.500   3.062  -4.128  0.00  0.00     0.140 A 
ATOM     11  C10 <0> d          -3.843   2.764  -2.939  0.00  0.00     0.068 A 
BRANCH  10  12
ATOM     12  N4  <0> d          -5.029   4.334  -4.321  0.00  0.00    -0.308 N 
ATOM     13  H20 <0> d          -4.938   5.007  -3.628  0.00  0.00     0.182 HD
BRANCH  12  14
ATOM     14  N5  <0> d          -5.677   4.634  -5.485  0.00  0.00    -0.248 NA
ATOM     15  H21 <0> d          -6.437   3.992  -5.652  0.00  0.00     0.143 HD
ATOM     16  H22 <0> d          -6.004   5.589  -5.481  0.00  0.00     0.143 HD
ENDBRANCH  12  14
ENDBRANCH  10  12
ENDBRANCH   2   5
BRANCH   1  17
ATOM     17  C4  <0> d          -1.403  -0.478  -0.123  0.00  0.00     0.114 C 
BRANCH  17  18
ATOM     18  C2  <0> d           0.099  -0.250  -0.305  0.00  0.00     0.002 C 
ATOM     19  C1  <0> d           0.356   1.224  -0.627  0.00  0.00     0.011 C 
ATOM     20  C3  <0> d           0.832  -0.625   0.985  0.00  0.00     0.011 C 
ENDBRANCH  17  18
BRANCH  17  21
ATOM     21  C5  <0> d          -1.659  -1.952   0.199  0.00  0.00     0.259 C 
BRANCH  21  22
ATOM     22  N1  <0> d          -3.106  -2.190   0.287  0.00  0.00    -0.077 N 
ATOM     23  C6  <0> d          -3.355  -3.623   0.491  0.00  0.00     0.269 C 
ATOM     24  C7  <0> d          -3.658  -1.431   1.417  0.00  0.00     0.269 C 
ATOM     25  H23 <0> d          -3.549  -1.889  -0.568  0.00  0.00     0.279 HD
ENDBRANCH  21  22
ENDBRANCH  17  21
ENDBRANCH   1  17
TORSDOF 7
