REMARK  4 active torsions:
REMARK  status: ('A' for Active; 'I' for Inactive)
REMARK    1  A    between atoms: N1_6  and  C6_7 
REMARK    2  A    between atoms: C13_15  and  C14_16 
REMARK    3  A    between atoms: C15_17  and  N2_18 
REMARK    4  A    between atoms: C19_27  and  C20_28 
REMARK       I    between atoms: C20_28  and  N6_30 
ROOT
ATOM      1  C14 <0> d           0.004  -3.266  -2.854  0.00  0.00     0.082 C 
ATOM      2  C15 <0> d          -0.089  -1.922  -3.492  0.00  0.00     0.160 C 
ATOM      3  N3  <0> d          -0.967  -1.887  -4.594  0.00  0.00    -0.212 N 
ATOM      4  C16 <0> d          -1.200  -3.074  -5.263  0.00  0.00     0.199 A 
ATOM      5  N4  <0> d          -0.800  -4.267  -4.919  0.00  0.00    -0.182 NA
ATOM      6  C17 <0> d          -0.123  -4.433  -3.759  0.00  0.00     0.283 C 
ATOM      7  O1  <0> d           0.366  -5.510  -3.463  0.00  0.00    -0.265 OA
ATOM      8  S1  <0> d          -2.166  -2.565  -6.661  0.00  0.00    -0.031 SA
ATOM      9  C18 <0> d          -2.320  -0.835  -6.241  0.00  0.00     0.098 A 
ATOM     10  N5  <0> d          -1.606  -0.759  -5.065  0.00  0.00    -0.283 N 
ATOM     11  C19 <0> d          -2.975   0.155  -6.912  0.00  0.00     0.113 C 
ATOM     12  H15 <0> d          -1.554   0.076  -4.575  0.00  0.00     0.188 HD
ENDROOT
BRANCH   1  13
ATOM     13  C13 <0> d           0.202  -3.415  -1.497  0.00  0.00     0.034 C 
ATOM     14  C4  <0> d           0.102  -2.291  -0.638  0.00  0.00    -0.011 A 
ATOM     15  C3  <0> d          -0.551  -1.007  -0.931  0.00  0.00     0.038 A 
ATOM     16  C5  <0> d           0.601  -2.177   0.650  0.00  0.00     0.023 A 
ATOM     17  C2  <0> d          -0.401  -0.245   0.166  0.00  0.00     0.014 A 
ATOM     18  C1  <0> d          -0.914   1.162   0.327  0.00  0.00     0.068 C 
ATOM     19  N1  <0> d           0.295  -0.948   1.110  0.00  0.00    -0.316 N 
ATOM     20  C12 <0> d           1.358  -3.241   1.403  0.00  0.00     0.069 C 
BRANCH  19  21
ATOM     21  C6  <0> d           0.639  -0.459   2.378  0.00  0.00     0.078 A 
ATOM     22  C11 <0> d           1.843   0.211   2.564  0.00  0.00     0.143 A 
ATOM     23  C10 <0> d           2.176   0.696   3.816  0.00  0.00     0.044 A 
ATOM     24  F1  <0> d           2.684   0.393   1.522  0.00  0.00    -0.204 F 
ATOM     25  C9  <0> d           1.318   0.504   4.883  0.00  0.00     0.003 A 
ATOM     26  C8  <0> d           0.122  -0.167   4.701  0.00  0.00     0.002 A 
ATOM     27  C7  <0> d          -0.219  -0.649   3.453  0.00  0.00     0.033 A 
ENDBRANCH  19  21
ENDBRANCH   1  13
BRANCH   2  28
ATOM     28  N2  <0> d           0.579  -0.880  -3.071  0.00  0.00    -0.281 NA
ATOM     29  H13 <0> d           0.475  -0.025  -3.518  0.00  0.00     0.188 HD
ENDBRANCH   2  28
BRANCH  11  30
ATOM     30  C20 <0> d          -2.975   1.465  -6.407  0.00  0.00     0.246 C 
ATOM     31  O2  <0> d          -2.388   1.718  -5.369  0.00  0.00    -0.268 OA
ATOM     32  N6  <0> d          -3.623   2.443  -7.070  0.00  0.00    -0.349 N 
ATOM     33  C24 <0> d          -3.703   3.856  -6.655  0.00  0.00     0.126 C 
ATOM     34  C21 <0> d          -4.372   2.278  -8.324  0.00  0.00     0.126 C 
ATOM     35  C23 <0> d          -3.969   4.638  -7.967  0.00  0.00     0.021 C 
ATOM     36  C22 <0> d          -4.916   3.667  -8.719  0.00  0.00     0.021 C 
ENDBRANCH  11  30
TORSDOF 4
