REMARK  4 active torsions:
REMARK  status: ('A' for Active; 'I' for Inactive)
REMARK    1  A    between atoms: C4_5  and  C5_7 
REMARK    2  A    between atoms: C5_7  and  N2_8 
REMARK    3  A    between atoms: N2_8  and  C6_9 
REMARK    4  A    between atoms: C12_16  and  O2_18 
ROOT
ATOM      1  C6  <0> d          -1.307  -4.204   3.814  0.00  0.00     0.246 C 
ATOM      2  C7  <0> d          -0.803  -3.491   5.092  0.00  0.00     0.213 C 
ATOM      3  O1  <0> d          -2.022  -3.037   5.705  0.00  0.00    -0.348 OA
ATOM      4  C8  <0> d          -3.042  -3.863   5.343  0.00  0.00     0.080 A 
ATOM      5  C9  <0> d          -2.715  -4.603   4.212  0.00  0.00     0.008 A 
ATOM      6  C10 <0> d          -3.611  -5.495   3.666  0.00  0.00     0.015 A 
ATOM      7  C11 <0> d          -4.853  -5.673   4.248  0.00  0.00     0.037 A 
ATOM      8  C12 <0> d          -5.191  -4.948   5.382  0.00  0.00     0.068 A 
ATOM      9  C13 <0> d          -4.290  -4.047   5.929  0.00  0.00     0.073 A 
ENDROOT
BRANCH   1  10
ATOM     10  N2  <0> d          -1.325  -3.282   2.671  0.00  0.00    -0.059 N 
ATOM     11  H8  <0> d          -1.812  -2.436   2.929  0.00  0.00     0.278 HD
ATOM     12  H15 <0> d          -1.798  -3.719   1.894  0.00  0.00     0.278 HD
BRANCH  10  13
ATOM     13  C5  <0> d           0.054  -2.955   2.284  0.00  0.00     0.300 C 
BRANCH  13  14
ATOM     14  C4  <0> d           0.035  -2.009   1.111  0.00  0.00     0.101 A 
ATOM     15  S1  <0> d           0.033  -2.379  -0.531  0.00  0.00    -0.083 SA
ATOM     16  C3  <0> d           0.006  -0.708  -1.159  0.00  0.00     0.078 A 
ATOM     17  C2  <0> d           0.002  -0.004   0.002  0.00  0.00     0.038 A 
ATOM     18  C1  <0> d          -0.018   1.503   0.010  0.00  0.00     0.071 C 
ATOM     19  N1  <0> d           0.022  -0.699   1.122  0.00  0.00    -0.249 NA
ENDBRANCH  13  14
ENDBRANCH  10  13
ENDBRANCH   1  10
BRANCH   8  20
ATOM     20  O2  <0> d          -6.409  -5.122   5.959  0.00  0.00    -0.361 OA
ATOM     21  H14 <0> d          -6.429  -5.814   6.635  0.00  0.00     0.217 HD
ENDBRANCH   8  20
TORSDOF 4
