REMARK  5 active torsions:
REMARK  status: ('A' for Active; 'I' for Inactive)
REMARK    1  A    between atoms: C6_7  and  C9_10 
REMARK    2  A    between atoms: C10_13  and  S1_15 
REMARK    3  A    between atoms: S1_15  and  C11_16 
REMARK    4  A    between atoms: C11_16  and  C12_17 
REMARK       I    between atoms: C12_17  and  N4_19 
REMARK    5  A    between atoms: N4_19  and  C13_20 
ROOT
ATOM      1  C11 <0> d          -0.057  -5.082  -2.875  0.00  0.00     0.181 C 
ENDROOT
BRANCH   1   2
ATOM      2  S1  <0> d          -0.185  -6.272  -1.512  0.00  0.00    -0.105 SA
BRANCH   2   3
ATOM      3  C10 <0> d          -0.128  -5.239  -0.022  0.00  0.00     0.311 A 
ATOM      4  N3  <0> d          -1.247  -4.282  -0.017  0.00  0.00    -0.273 N 
ATOM      5  N2  <0> d          -0.654  -3.011  -0.016  0.00  0.00    -0.150 NA
ATOM      6  H8  <0> d          -2.195  -4.487  -0.014  0.00  0.00     0.186 HD
ATOM      7  C9  <0> d           0.648  -3.122  -0.020  0.00  0.00     0.195 A 
ATOM      8  O1  <0> d           1.048  -4.417  -0.029  0.00  0.00    -0.296 OA
BRANCH   7   9
ATOM      9  C6  <0> d           1.527  -2.030  -0.021  0.00  0.00     0.026 A 
ATOM     10  C5  <0> d           3.039  -2.074  -0.033  0.00  0.00     0.164 A 
ATOM     11  N1  <0> d           3.485  -0.678  -0.029  0.00  0.00    -0.385 N 
ATOM     12  C4  <0> d           2.432   0.116  -0.018  0.00  0.00     0.039 A 
ATOM     13  H25 <0> d           4.410  -0.384  -0.035  0.00  0.00     0.160 HD
ATOM     14  C3  <0> d           2.323   1.530  -0.010  0.00  0.00     0.030 A 
ATOM     15  C7  <0> d           1.191  -0.676  -0.012  0.00  0.00     0.003 A 
ATOM     16  C2  <0> d           1.098   2.112   0.002  0.00  0.00     0.002 A 
ATOM     17  C1  <0> d          -0.076   1.356   0.006  0.00  0.00     0.001 A 
ATOM     18  C8  <0> d          -0.048  -0.002  -0.001  0.00  0.00     0.014 A 
ENDBRANCH   7   9
ENDBRANCH   2   3
ENDBRANCH   1   2
BRANCH   1  19
ATOM     19  C12 <0> d          -0.092  -5.819  -4.190  0.00  0.00     0.231 C 
ATOM     20  O2  <0> d          -0.194  -7.027  -4.205  0.00  0.00    -0.272 OA
ATOM     21  N4  <0> d          -0.011  -5.134  -5.348  0.00  0.00    -0.326 N 
ATOM     22  H11 <0> d           0.003  -4.164  -5.338  0.00  0.00     0.169 HD
BRANCH  21  23
ATOM     23  C13 <0> d           0.054  -5.824  -6.566  0.00  0.00     0.037 A 
ATOM     24  C18 <0> d          -0.646  -7.011  -6.729  0.00  0.00     0.069 A 
ATOM     25  C17 <0> d          -0.586  -7.689  -7.935  0.00  0.00     0.108 A 
ATOM     26  C16 <0> d           0.186  -7.183  -8.979  0.00  0.00     0.106 A 
ATOM     27  O3  <0> d          -1.171  -8.853  -8.348  0.00  0.00    -0.311 OA
ATOM     28  C15 <0> d           0.887  -6.001  -8.809  0.00  0.00     0.042 A 
ATOM     29  O4  <0> d           0.085  -8.030 -10.047  0.00  0.00    -0.311 OA
ATOM     30  C14 <0> d           0.823  -5.322  -7.608  0.00  0.00     0.032 A 
ATOM     31  C19 <0> d          -1.065  -8.846  -9.779  0.00  0.00     0.176 C 
ATOM     32  C24 <0> d          -2.312  -8.229 -10.402  0.00  0.00     0.069 C 
ATOM     33  C20 <0> d          -0.844 -10.261 -10.302  0.00  0.00     0.069 C 
ATOM     34  C23 <0> d          -2.165  -8.203 -11.925  0.00  0.00     0.005 C 
ATOM     35  C22 <0> d          -1.968  -9.629 -12.442  0.00  0.00     0.000 C 
ATOM     36  C21 <0> d          -0.701 -10.227 -11.826  0.00  0.00     0.005 C 
ENDBRANCH  21  23
ENDBRANCH   1  19
TORSDOF 5
