REMARK  3 active torsions:
REMARK  status: ('A' for Active; 'I' for Inactive)
REMARK    1  A    between atoms: C3_3  and  N1_8 
REMARK    2  A    between atoms: N3_15  and  N5_18 
REMARK       I    between atoms: N5_18  and  C12_19 
REMARK    3  A    between atoms: C12_19  and  C13_21 
ROOT
ATOM      1  N1  <0> d           2.358   3.888  -0.001  0.00  0.00    -0.215 N 
ATOM      2  C7  <0> d           2.574   5.076  -0.629  0.00  0.00     0.170 A 
ATOM      3  C8  <0> d           3.909   5.428  -0.374  0.00  0.00     0.101 A 
ATOM      4  C9  <0> d           4.464   4.409   0.423  0.00  0.00     0.160 A 
ATOM      5  N2  <0> d           3.544   3.511   0.642  0.00  0.00    -0.177 NA
ATOM      6  C10 <0> d           4.412   6.679  -0.941  0.00  0.00     0.283 A 
ATOM      7  O1  <0> d           5.561   7.040  -0.755  0.00  0.00    -0.265 OA
ATOM      8  N3  <0> d           3.554   7.421  -1.679  0.00  0.00    -0.210 N 
ATOM      9  C11 <0> d           2.278   7.001  -1.872  0.00  0.00     0.238 A 
ATOM     10  N4  <0> d           1.813   5.891  -1.376  0.00  0.00    -0.221 NA
ENDROOT
BRANCH   8  11
ATOM     11  N5  <0> d           3.984   8.628  -2.245  0.00  0.00    -0.257 N 
ATOM     12  C12 <0> d           3.594   9.801  -1.708  0.00  0.00     0.265 C 
ATOM     13  O2  <0> d           2.871   9.812  -0.735  0.00  0.00    -0.269 OA
ATOM     14  H8  <0> d           4.562   8.620  -3.023  0.00  0.00     0.190 HD
BRANCH  12  15
ATOM     15  C13 <0> d           4.057  11.100  -2.318  0.00  0.00     0.215 C 
ATOM     16  O3  <0> d           3.481  12.220  -1.612  0.00  0.00    -0.376 OA
ATOM     17  C16 <0> d           4.337  13.343  -1.919  0.00  0.00     0.168 C 
ATOM     18  C15 <0> d           5.772  12.772  -1.873  0.00  0.00     0.029 C 
ATOM     19  C14 <0> d           5.583  11.262  -2.142  0.00  0.00     0.044 C 
ENDBRANCH  12  15
ENDBRANCH   8  11
BRANCH   1  20
ATOM     20  C3  <0> d           1.156   3.170   0.008  0.00  0.00     0.062 A 
ATOM     21  C2  <0> d           1.175   1.782   0.000  0.00  0.00     0.032 A 
ATOM     22  C1  <0> d          -0.013   1.076   0.008  0.00  0.00     0.004 A 
ATOM     23  C6  <0> d          -1.220   1.750   0.017  0.00  0.00     0.024 A 
ATOM     24  C5  <0> d          -1.242   3.134   0.030  0.00  0.00     0.036 A 
ATOM     25  C4  <0> d          -0.058   3.845   0.022  0.00  0.00     0.055 A 
ATOM     26 Cl1  <0> d          -2.760   3.976   0.048  0.00  0.00    -0.084 Cl
ENDBRANCH   1  20
TORSDOF 3
