REMARK  5 active torsions:
REMARK  status: ('A' for Active; 'I' for Inactive)
REMARK    1  A    between atoms: C4_4  and  C11_14 
REMARK    2  A    between atoms: N1_6  and  C6_7 
REMARK    3  A    between atoms: C11_14  and  C12_16 
REMARK    4  A    between atoms: C12_16  and  N3_17 
REMARK    5  A    between atoms: C15_20  and  N4_23 
ROOT
ATOM      1  N3  <0> d           0.050  -4.601  -3.557  0.00  0.00     0.095 N 
ATOM      2  C13 <0> d           1.311  -5.294  -3.261  0.00  0.00     0.275 C 
ATOM      3  C14 <0> d           1.235  -6.735  -3.771  0.00  0.00     0.056 C 
ATOM      4  C15 <0> d           0.978  -6.725  -5.280  0.00  0.00     0.098 C 
ATOM      5  C16 <0> d          -0.316  -5.956  -5.565  0.00  0.00     0.056 C 
ATOM      6  C17 <0> d          -0.194  -4.538  -5.003  0.00  0.00     0.275 C 
ENDROOT
BRANCH   1   7
ATOM      7  C12 <0> d           0.035  -3.259  -2.961  0.00  0.00     0.356 C 
BRANCH   7   8
ATOM      8  C11 <0> d           0.042  -3.377  -1.458  0.00  0.00     0.189 C 
ATOM      9  O2  <0> d           0.058  -4.471  -0.935  0.00  0.00    -0.290 OA
BRANCH   8  10
ATOM     10  C4  <0> d           0.029  -2.169  -0.629  0.00  0.00     0.036 A 
ATOM     11  C3  <0> d           0.008  -0.776  -1.096  0.00  0.00     0.042 A 
ATOM     12  C2  <0> d           0.002  -0.004   0.002  0.00  0.00     0.015 A 
ATOM     13  C1  <0> d          -0.018   1.503   0.010  0.00  0.00     0.068 C 
ATOM     14  N1  <0> d           0.024  -0.803   1.113  0.00  0.00    -0.305 N 
ATOM     15  C5  <0> d           0.034  -2.108   0.751  0.00  0.00     0.028 A 
ATOM     16  C10 <0> d           0.053  -3.288   1.689  0.00  0.00     0.070 C 
BRANCH  14  17
ATOM     17  C6  <0> d           0.030  -0.343   2.422  0.00  0.00     0.141 C 
ATOM     18  C8  <0> d           1.264  -0.031   3.248  0.00  0.00     0.115 C 
ATOM     19  C7  <0> d           0.699   0.044   4.685  0.00  0.00     0.158 C 
ATOM     20  O1  <0> d          -0.687   0.358   4.439  0.00  0.00    -0.249 OA
ATOM     21  C9  <0> d           1.379   1.154   5.488  0.00  0.00     0.042 C 
ATOM     22  N2  <0> d          -1.009  -0.112   3.146  0.00  0.00    -0.119 NA
ENDBRANCH  14  17
ENDBRANCH   8  10
ENDBRANCH   7   8
ENDBRANCH   1   7
BRANCH   4  23
ATOM     23  N4  <0> d           0.846  -8.101  -5.763  0.00  0.00    -0.293 N 
ATOM     24  C24 <0> d          -0.077  -8.994  -5.357  0.00  0.00     0.328 A 
ATOM     25  N5  <0> d           0.096 -10.156  -6.015  0.00  0.00    -0.306 N 
ATOM     26  O3  <0> d          -0.938  -8.782  -4.524  0.00  0.00    -0.246 OA
ATOM     27  C23 <0> d           1.181 -10.015  -6.877  0.00  0.00     0.063 A 
ATOM     28  H1  <0> d          -0.441 -10.956  -5.905  0.00  0.00     0.171 HD
ATOM     29  C18 <0> d           1.657  -8.712  -6.717  0.00  0.00     0.066 A 
ATOM     30  C22 <0> d           1.801 -10.871  -7.775  0.00  0.00     0.032 A 
ATOM     31  C19 <0> d           2.747  -8.279  -7.457  0.00  0.00     0.032 A 
ATOM     32  C20 <0> d           3.358  -9.139  -8.348  0.00  0.00     0.002 A 
ATOM     33  C21 <0> d           2.886 -10.431  -8.507  0.00  0.00     0.002 A 
ENDBRANCH   4  23
TORSDOF 5
