REMARK  6 active torsions:
REMARK  status: ('A' for Active; 'I' for Inactive)
REMARK    1  A    between atoms: C2_2  and  C3_3 
REMARK    2  A    between atoms: C6_6  and  N1_9 
REMARK    3  A    between atoms: N1_9  and  C9_10 
REMARK    4  A    between atoms: C9_10  and  N2_11 
REMARK       I    between atoms: N2_11  and  C10_12 
REMARK       I    between atoms: C10_12  and  N3_13 
REMARK    5  A    between atoms: N4_14  and  C11_15 
REMARK    6  A    between atoms: C15_20  and  C19_25 
ROOT
ATOM      1  N2  <0> d          -6.631  -4.066  -0.906  0.00  0.00    -0.164 N 
ATOM      2  C10 <0> d          -7.288  -3.643  -2.037  0.00  0.00     0.716 C 
ATOM      3  N3  <0> d          -6.706  -2.717  -2.860  0.00  0.00    -0.232 N 
ATOM      4  N4  <0> d          -8.476  -4.128  -2.328  0.00  0.00     0.130 NA
ATOM      5  H11 <0> d          -5.874  -2.925  -3.313  0.00  0.00     0.174 HD
ATOM      6  H23 <0> d          -7.126  -1.852  -2.989  0.00  0.00     0.174 HD
ATOM      7  H24 <0> d          -7.091  -4.622  -0.258  0.00  0.00     0.186 HD
ENDROOT
BRANCH   1   8
ATOM      8  C9  <0> d          -5.349  -3.708  -0.698  0.00  0.00     0.191 C 
ATOM      9  S1  <0> d          -4.597  -2.572  -1.736  0.00  0.00    -0.040 SA
BRANCH   8  10
ATOM     10  N1  <0> d          -4.657  -4.243   0.328  0.00  0.00    -0.333 N 
ATOM     11  H10 <0> d          -5.046  -4.961   0.852  0.00  0.00     0.168 HD
BRANCH  10  12
ATOM     12  C6  <0> d          -3.380  -3.764   0.637  0.00  0.00     0.034 A 
ATOM     13  C5  <0> d          -3.076  -2.422   0.449  0.00  0.00     0.030 A 
ATOM     14  C4  <0> d          -1.814  -1.952   0.755  0.00  0.00     0.009 A 
ATOM     15  C3  <0> d          -0.854  -2.815   1.249  0.00  0.00    -0.058 A 
ATOM     16  C8  <0> d          -1.152  -4.153   1.432  0.00  0.00     0.009 A 
ATOM     17  C7  <0> d          -2.413  -4.629   1.132  0.00  0.00     0.030 A 
BRANCH  15  18
ATOM     18  C2  <0> d           0.522  -2.299   1.582  0.00  0.00     0.034 C 
ATOM     19  C1  <0> d           1.419  -2.404   0.348  0.00  0.00     0.010 C 
ENDBRANCH  15  18
ENDBRANCH  10  12
ENDBRANCH   8  10
ENDBRANCH   1   8
BRANCH   4  20
ATOM     20  C11 <0> d          -9.327  -4.488  -1.330  0.00  0.00     0.765 A 
ATOM     21  N6  <0> d          -9.742  -3.560  -0.481  0.00  0.00    -0.060 NA
ATOM     22  C18 <0> d         -10.583  -3.881   0.508  0.00  0.00     0.088 A 
ATOM     23  C13 <0> d         -11.009  -5.229   0.633  0.00  0.00     0.019 A 
ATOM     24  C17 <0> d         -11.050  -2.927   1.424  0.00  0.00     0.034 A 
ATOM     25  C12 <0> d         -10.530  -6.173  -0.297  0.00  0.00     0.062 A 
ATOM     26  C14 <0> d         -11.886  -5.585   1.667  0.00  0.00     0.023 A 
ATOM     27  N5  <0> d          -9.709  -5.766  -1.240  0.00  0.00    -0.065 NA
ATOM     28  C21 <0> d         -10.950  -7.618  -0.212  0.00  0.00     0.072 C 
ATOM     29  C15 <0> d         -12.318  -4.631   2.539  0.00  0.00    -0.058 A 
ATOM     30  C16 <0> d         -11.901  -3.307   2.418  0.00  0.00     0.009 A 
BRANCH  29  31
ATOM     31  C19 <0> d         -13.260  -5.014   3.651  0.00  0.00     0.034 C 
ATOM     32  C20 <0> d         -12.454  -5.419   4.886  0.00  0.00     0.010 C 
ENDBRANCH  29  31
ENDBRANCH   4  20
TORSDOF 6
