REMARK  8 active torsions:
REMARK  status: ('A' for Active; 'I' for Inactive)
REMARK    1  A    between atoms: C3_3  and  N3_14 
REMARK    2  A    between atoms: C4_4  and  N2_11 
REMARK    3  A    between atoms: C6_6  and  S1_7 
REMARK    4  A    between atoms: S1_7  and  N1_10 
REMARK    5  A    between atoms: N3_14  and  C7_15 
REMARK    6  A    between atoms: C7_15  and  C8_16 
REMARK    7  A    between atoms: C8_16  and  C9_17 
REMARK    8  A    between atoms: C8_16  and  N4_22 
ROOT
ATOM      1  C1  <0> d          -0.135   2.587   0.026  0.00  0.00     0.027 A 
ATOM      2  C2  <0> d           1.165   3.050  -0.026  0.00  0.00     0.033 A 
ATOM      3  C3  <0> d           2.223   2.167   0.144  0.00  0.00     0.061 A 
ATOM      4  C4  <0> d           1.970   0.819   0.366  0.00  0.00     0.130 A 
ATOM      5  C5  <0> d           0.668   0.362   0.417  0.00  0.00     0.063 A 
ATOM      6  C6  <0> d          -0.383   1.244   0.247  0.00  0.00     0.081 A 
ENDROOT
BRANCH   3   7
ATOM      7  N3  <0> d           3.539   2.633   0.091  0.00  0.00    -0.386 N 
ATOM      8  H8  <0> d           4.275   2.028   0.274  0.00  0.00     0.159 HD
BRANCH   7   9
ATOM      9  C7  <0> d           3.808   4.034  -0.240  0.00  0.00     0.153 C 
BRANCH   9  10
ATOM     10  C8  <0> d           5.315   4.242  -0.395  0.00  0.00     0.212 C 
BRANCH  10  11
ATOM     11  C9  <0> d           5.605   5.727  -0.622  0.00  0.00     0.044 C 
ATOM     12  C12 <0> d           7.124   6.002  -0.592  0.00  0.00     0.174 C 
ATOM     13  O5  <0> d           7.324   7.231   0.122  0.00  0.00    -0.391 OA
ATOM     14  C11 <0> d           6.057   7.787   0.509  0.00  0.00     0.168 C 
ATOM     15  C10 <0> d           5.087   6.580   0.568  0.00  0.00     0.035 C 
ENDBRANCH  10  11
BRANCH  10  16
ATOM     16  N4  <0> d           5.801   3.467  -1.544  0.00  0.00    -0.065 N 
ATOM     17  C16 <0> d           5.693   2.019  -1.265  0.00  0.00     0.235 C 
ATOM     18  C15 <0> d           6.904   1.339  -1.929  0.00  0.00     0.029 C 
ATOM     19  C14 <0> d           7.713   2.490  -2.569  0.00  0.00     0.029 C 
ATOM     20  C13 <0> d           7.246   3.730  -1.765  0.00  0.00     0.235 C 
ATOM     21  H25 <0> d           5.273   3.702  -2.371  0.00  0.00     0.280 HD
ENDBRANCH  10  16
ENDBRANCH   9  10
ENDBRANCH   7   9
ENDBRANCH   3   7
BRANCH   4  22
ATOM     22  N2  <0> d           3.095  -0.126   0.547  0.00  0.00    -0.113 N 
ATOM     23  O3  <0> d           3.025  -1.243   0.091  0.00  0.00    -0.532 OA
ATOM     24  O4  <0> d           4.084   0.220   1.150  0.00  0.00    -0.532 OA
ENDBRANCH   4  22
BRANCH   6  25
ATOM     25  S1  <0> d          -2.043   0.657   0.313  0.00  0.00     0.256 S 
ATOM     26  O1  <0> d          -2.019  -0.543   1.074  0.00  0.00    -0.201 OA
ATOM     27  O2  <0> d          -2.854   1.769   0.669  0.00  0.00    -0.201 OA
BRANCH  25  28
ATOM     28  N1  <0> d          -2.473   0.231  -1.228  0.00  0.00    -0.324 N 
ATOM     29  H6  <0> d          -3.117  -0.479  -1.373  0.00  0.00     0.169 HD
ATOM     30  H7  <0> d          -2.081   0.692  -1.986  0.00  0.00     0.169 HD
ENDBRANCH  25  28
ENDBRANCH   6  25
TORSDOF 8
