REMARK  2 active torsions:
REMARK  status: ('A' for Active; 'I' for Inactive)
REMARK    1  A    between atoms: C2_2  and  N1_3 
REMARK    2  A    between atoms: C4_7  and  C5_8 
ROOT
ATOM      1  C5  <0> d          -1.968  -0.633  -2.347  0.00  0.00     0.022 C 
ATOM      2  C6  <0> d          -1.530   0.805  -2.637  0.00  0.00     0.044 C 
ATOM      3  C7  <0> d          -1.339   0.980  -4.146  0.00  0.00     0.233 C 
ATOM      4  N4  <0> d          -2.603   0.702  -4.838  0.00  0.00    -0.075 N 
ATOM      5  C8  <0> d          -2.991  -0.697  -4.623  0.00  0.00     0.233 C 
ATOM      6  C9  <0> d          -3.246  -0.936  -3.134  0.00  0.00     0.044 C 
ATOM      7  C10 <0> d          -0.863  -1.601  -2.775  0.00  0.00     0.023 C 
ATOM      8  H11 <0> d          -3.324   1.309  -4.478  0.00  0.00     0.277 HD
ATOM      9  H19 <0> d          -2.488   0.870  -5.826  0.00  0.00     0.277 HD
ENDROOT
BRANCH   1  10
ATOM     10  C4  <0> d          -2.233  -0.791  -0.872  0.00  0.00     0.138 A 
ATOM     11  N1  <0> d          -1.377  -0.495   0.134  0.00  0.00    -0.327 N 
ATOM     12  C3  <0> d          -2.033  -0.786   1.283  0.00  0.00     0.235 A 
ATOM     13  N2  <0> d          -3.213  -1.236   0.952  0.00  0.00    -0.143 NA
ATOM     14  N3  <0> d          -3.331  -1.242  -0.328  0.00  0.00    -0.135 NA
BRANCH  11  15
ATOM     15  C2  <0> d          -0.018   0.039   0.007  0.00  0.00     0.127 C 
ATOM     16  C1  <0> d          -0.053   1.562   0.148  0.00  0.00     0.027 C 
ENDBRANCH  11  15
ENDBRANCH   1  10
TORSDOF 2
