REMARK  5 active torsions:
REMARK  status: ('A' for Active; 'I' for Inactive)
REMARK    1  A    between atoms: C4_4  and  S1_8 
REMARK    2  A    between atoms: S1_8  and  N1_11 
REMARK    3  A    between atoms: N1_11  and  C7_12 
REMARK    4  A    between atoms: C7_12  and  C8_13 
REMARK    5  A    between atoms: C8_13  and  N2_19 
ROOT
ATOM      1  N1  <0> d           4.610  -0.591  -1.533  0.00  0.00    -0.313 N 
ATOM      2  H4  <0> d           4.588  -1.303  -2.192  0.00  0.00     0.172 HD
ENDROOT
BRANCH   1   3
ATOM      3  S1  <0> d           4.073  -0.872   0.008  0.00  0.00     0.260 S 
ATOM      4  O1  <0> d           5.092  -0.410   0.884  0.00  0.00    -0.200 OA
ATOM      5  O2  <0> d           3.595  -2.210   0.033  0.00  0.00    -0.200 OA
BRANCH   3   6
ATOM      6  C4  <0> d           2.675   0.168   0.269  0.00  0.00     0.098 A 
ATOM      7  C3  <0> d           1.526  -0.016  -0.480  0.00  0.00     0.034 A 
ATOM      8  C2  <0> d           0.428   0.800  -0.275  0.00  0.00     0.022 A 
ATOM      9 Br2  <0> d           1.458  -1.382  -1.786  0.00  0.00    -0.049 Br
ATOM     10  C1  <0> d           0.478   1.798   0.680  0.00  0.00     0.020 A 
ATOM     11  C6  <0> d           1.626   1.982   1.429  0.00  0.00     0.012 A 
ATOM     12  C5  <0> d           2.725   1.166   1.223  0.00  0.00     0.045 A 
ATOM     13 Br1  <0> d           1.695   3.348   2.735  0.00  0.00    -0.051 Br
ENDBRANCH   3   6
ENDBRANCH   1   3
BRANCH   1  14
ATOM     14  C7  <0> d           5.119   0.732  -1.902  0.00  0.00     0.170 C 
BRANCH  14  15
ATOM     15  C8  <0> d           5.906   0.630  -3.210  0.00  0.00     0.140 C 
ATOM     16  C13 <0> d           6.437   2.012  -3.595  0.00  0.00     0.040 C 
ATOM     17  C12 <0> d           7.355   2.533  -2.487  0.00  0.00     0.002 C 
ATOM     18  C11 <0> d           8.529   1.569  -2.302  0.00  0.00     0.000 C 
ATOM     19  C10 <0> d           7.997   0.186  -1.917  0.00  0.00     0.002 C 
ATOM     20  C9  <0> d           7.080  -0.334  -3.025  0.00  0.00     0.040 C 
BRANCH  15  21
ATOM     21  N2  <0> d           5.025   0.130  -4.274  0.00  0.00    -0.069 N 
ATOM     22  H17 <0> d           4.251   0.766  -4.396  0.00  0.00     0.275 HD
ATOM     23  H18 <0> d           5.544   0.063  -5.136  0.00  0.00     0.275 HD
ATOM     24  H19 <0> d           4.674  -0.781  -4.020  0.00  0.00     0.275 HD
ENDBRANCH  15  21
ENDBRANCH  14  15
ENDBRANCH   1  14
TORSDOF 5
