REMARK  3 active torsions:
REMARK  status: ('A' for Active; 'I' for Inactive)
REMARK    1  A    between atoms: C7_11  and  N3_12 
REMARK    2  A    between atoms: N3_12  and  C8_13 
REMARK    3  A    between atoms: C8_13  and  C9_14 
REMARK       I    between atoms: C9_14  and  N4_16 
ROOT
ATOM      1  C1  <0> d          -0.018   1.461   0.010  0.00  0.00     0.179 C 
ATOM      2  N1  <0> d           0.002  -0.004   0.002  0.00  0.00    -0.149 N 
ATOM      3  C2  <0> d           0.005  -0.657  -1.175  0.00  0.00     0.275 A 
ATOM      4  O1  <0> d          -0.007  -0.039  -2.225  0.00  0.00    -0.266 OA
ATOM      5  C3  <0> d           0.025  -2.088  -1.175  0.00  0.00     0.076 A 
ATOM      6  C4  <0> d           0.030  -2.995  -2.324  0.00  0.00    -0.026 A 
ATOM      7  C5  <0> d           0.050  -4.317  -2.060  0.00  0.00    -0.008 A 
ATOM      8  S1  <0> d           0.062  -4.434  -0.292  0.00  0.00    -0.073 SA
ATOM      9  C6  <0> d           0.040  -2.700   0.089  0.00  0.00     0.133 A 
ATOM     10  N2  <0> d           0.035  -1.996   1.215  0.00  0.00    -0.056 NA
ATOM     11  C7  <0> d           0.022  -0.679   1.187  0.00  0.00     0.706 A 
ATOM     12  C12 <0> d           0.058  -5.441  -3.051  0.00  0.00     0.047 C 
ATOM     13  C13 <0> d          -0.335  -4.879  -4.425  0.00  0.00     0.005 C 
ATOM     14  C14 <0> d           0.484  -3.611  -4.689  0.00  0.00     0.005 C 
ATOM     15  C15 <0> d           0.015  -2.488  -3.764  0.00  0.00     0.041 C 
ENDROOT
BRANCH  11  16
ATOM     16  N3  <0> d           0.024   0.024   2.366  0.00  0.00    -0.215 N 
ATOM     17  H4  <0> d           0.011   0.993   2.353  0.00  0.00     0.178 HD
BRANCH  16  18
ATOM     18  C8  <0> d           0.046  -0.691   3.645  0.00  0.00     0.241 C 
BRANCH  18  19
ATOM     19  C9  <0> d           0.044   0.304   4.777  0.00  0.00     0.237 C 
ATOM     20  O2  <0> d           0.025   1.493   4.539  0.00  0.00    -0.272 OA
ATOM     21  N4  <0> d           0.062  -0.128   6.053  0.00  0.00    -0.359 N 
ATOM     22  C10 <0> d           0.059   0.839   7.154  0.00  0.00     0.152 C 
ATOM     23  C11 <0> d           0.084  -1.565   6.340  0.00  0.00     0.152 C 
ENDBRANCH  18  19
ENDBRANCH  16  18
ENDBRANCH  11  16
TORSDOF 3
