REMARK  4 active torsions:
REMARK  status: ('A' for Active; 'I' for Inactive)
REMARK    1  A    between atoms: C4_4  and  N2_7 
REMARK       I    between atoms: N2_7  and  C5_8 
REMARK    2  A    between atoms: C5_8  and  C6_10 
REMARK    3  A    between atoms: C6_10  and  N4_25 
REMARK       I    between atoms: N3_14  and  C12_17 
REMARK    4  A    between atoms: C12_17  and  C13_19 
ROOT
ATOM      1  C8  <0> d          -1.848  -0.083   1.609  0.00  0.00     0.256 C 
ATOM      2  C9  <0> d          -3.343  -0.147   1.278  0.00  0.00     0.154 C 
ATOM      3  N3  <0> d          -3.692  -1.541   0.961  0.00  0.00    -0.343 N 
ATOM      4  C10 <0> d          -2.877  -2.252  -0.036  0.00  0.00     0.154 C 
ATOM      5  C11 <0> d          -1.401  -2.105   0.347  0.00  0.00     0.256 C 
ATOM      6  C12 <0> d          -4.730  -2.149   1.568  0.00  0.00     0.277 C 
ATOM      7  O3  <0> d          -4.932  -3.335   1.384  0.00  0.00    -0.265 OA
ATOM      8  N4  <0> d          -1.087  -0.666   0.483  0.00  0.00    -0.056 N 
ATOM      9  H21 <0> d          -1.353  -0.183  -0.384  0.00  0.00     0.281 HD
ENDROOT
BRANCH   8  10
ATOM     10  C6  <0> d           0.362  -0.484   0.706  0.00  0.00     0.276 C 
ATOM     11  C7  <0> d           0.854  -1.409   1.822  0.00  0.00     0.050 C 
BRANCH  10  12
ATOM     12  C5  <0> d           1.093  -0.807  -0.572  0.00  0.00     0.254 C 
ATOM     13  N2  <0> d           2.367  -0.403  -0.740  0.00  0.00    -0.304 N 
ATOM     14  H6  <0> d           2.814   0.096  -0.039  0.00  0.00     0.171 HD
ATOM     15  O2  <0> d           0.536  -1.435  -1.447  0.00  0.00    -0.271 OA
BRANCH  13  16
ATOM     16  C4  <0> d           3.040  -0.700  -1.917  0.00  0.00     0.177 A 
ATOM     17  C3  <0> d           4.324  -0.361  -2.234  0.00  0.00     0.087 A 
ATOM     18  C2  <0> d           4.507  -0.898  -3.525  0.00  0.00     0.062 A 
ATOM     19  C1  <0> d           5.755  -0.820  -4.365  0.00  0.00     0.073 C 
ATOM     20  N1  <0> d           3.384  -1.476  -3.848  0.00  0.00    -0.131 NA
ATOM     21  O1  <0> d           2.560  -1.382  -2.968  0.00  0.00    -0.195 OA
ENDBRANCH  13  16
ENDBRANCH  10  12
ENDBRANCH   8  10
BRANCH   6  22
ATOM     22  C13 <0> d          -5.615  -1.382   2.450  0.00  0.00     0.142 A 
ATOM     23  O4  <0> d          -5.573  -0.049   2.652  0.00  0.00    -0.317 OA
ATOM     24  C16 <0> d          -6.533   0.300   3.518  0.00  0.00     0.143 A 
ATOM     25  C15 <0> d          -7.204  -0.810   3.894  0.00  0.00     0.027 A 
ATOM     26  C14 <0> d          -6.624  -1.893   3.215  0.00  0.00     0.045 A 
ENDBRANCH   6  22
TORSDOF 4
