REMARK  6 active torsions:
REMARK  status: ('A' for Active; 'I' for Inactive)
REMARK    1  A    between atoms: C7_9  and  C10_13 
REMARK    2  A    between atoms: C10_13  and  O2_14 
REMARK    3  A    between atoms: O2_14  and  C11_15 
REMARK    4  A    between atoms: C16_20  and  N3_21 
REMARK       I    between atoms: N3_21  and  C17_22 
REMARK       I    between atoms: C17_22  and  N4_24 
REMARK    5  A    between atoms: N4_24  and  C18_25 
REMARK    6  A    between atoms: C22_29  and  S1_31 
ROOT
ATOM      1  C11 <0> d         -10.101   0.531   4.992  0.00  0.00     0.096 A 
ATOM      2  C12 <0> d         -11.372  -0.010   4.883  0.00  0.00     0.039 A 
ATOM      3  C13 <0> d         -11.700  -0.794   3.793  0.00  0.00     0.003 A 
ATOM      4  C14 <0> d         -10.763  -1.037   2.805  0.00  0.00     0.002 A 
ATOM      5  C15 <0> d          -9.494  -0.498   2.904  0.00  0.00     0.032 A 
ATOM      6  C16 <0> d          -9.158   0.290   3.995  0.00  0.00     0.069 A 
ENDROOT
BRANCH   1   7
ATOM      7  O2  <0> d          -9.775   1.298   6.066  0.00  0.00    -0.343 OA
BRANCH   7   8
ATOM      8  C10 <0> d         -10.792   1.502   7.049  0.00  0.00     0.235 C 
BRANCH   8   9
ATOM      9  C7  <0> d         -10.253   2.370   8.157  0.00  0.00     0.066 A 
ATOM     10  N2  <0> d          -9.272   1.926   8.927  0.00  0.00    -0.233 NA
ATOM     11  C5  <0> d          -8.771   2.672   9.910  0.00  0.00     0.137 A 
ATOM     12  N1  <0> d          -9.265   3.921  10.163  0.00  0.00    -0.274 N 
ATOM     13  C6  <0> d          -7.725   2.164  10.702  0.00  0.00     0.058 A 
ATOM     14  C4  <0> d          -8.751   4.675  11.174  0.00  0.00     0.102 A 
ATOM     15  C9  <0> d         -10.269   4.413   9.406  0.00  0.00     0.255 A 
ATOM     16  C3  <0> d          -7.746   4.204  11.945  0.00  0.00     0.024 A 
ATOM     17  C2  <0> d          -7.218   2.926  11.711  0.00  0.00    -0.057 A 
ATOM     18  C1  <0> d          -6.097   2.400  12.570  0.00  0.00     0.048 C 
ATOM     19  C8  <0> d         -10.786   3.626   8.371  0.00  0.00     0.104 A 
ATOM     20  O1  <0> d         -10.719   5.528   9.622  0.00  0.00    -0.268 OA
ENDBRANCH   8   9
ENDBRANCH   7   8
ENDBRANCH   1   7
BRANCH   6  21
ATOM     21  N3  <0> d          -7.872   0.837   4.096  0.00  0.00    -0.306 N 
ATOM     22  C17 <0> d          -7.110   0.977   2.994  0.00  0.00     0.325 C 
ATOM     23  O3  <0> d          -7.572   0.720   1.899  0.00  0.00    -0.247 OA
ATOM     24  N4  <0> d          -5.835   1.400   3.105  0.00  0.00    -0.309 N 
ATOM     25  H15 <0> d          -5.442   1.530   3.982  0.00  0.00     0.170 HD
ATOM     26  H14 <0> d          -7.530   1.116   4.961  0.00  0.00     0.171 HD
BRANCH  24  27
ATOM     27  C18 <0> d          -5.079   1.652   1.955  0.00  0.00     0.037 A 
ATOM     28  C23 <0> d          -5.693   2.150   0.816  0.00  0.00     0.048 A 
ATOM     29  C22 <0> d          -4.939   2.398  -0.324  0.00  0.00     0.002 A 
ATOM     30  C21 <0> d          -3.572   2.141  -0.320  0.00  0.00     0.018 A 
ATOM     31  C20 <0> d          -2.964   1.650   0.818  0.00  0.00     0.004 A 
ATOM     32  C19 <0> d          -3.711   1.403   1.953  0.00  0.00     0.029 A 
BRANCH  29  33
ATOM     33  S1  <0> d          -5.714   3.031  -1.774  0.00  0.00    -0.134 SA
ATOM     34  C24 <0> d          -4.355   3.187  -2.966  0.00  0.00     0.095 C 
ENDBRANCH  29  33
ENDBRANCH  24  27
ENDBRANCH   6  21
TORSDOF 6
