REMARK  5 active torsions:
REMARK  status: ('A' for Active; 'I' for Inactive)
REMARK    1  A    between atoms: C5_5  and  C8_9 
REMARK    2  A    between atoms: C8_9  and  N1_10 
REMARK       I    between atoms: N1_10  and  C9_11 
REMARK    3  A    between atoms: C9_11  and  C10_13 
REMARK    4  A    between atoms: C10_13  and  N2_15 
REMARK    5  A    between atoms: N2_15  and  C12_16 
ROOT
ATOM      1  C10 <0> d           1.278   2.115   0.001  0.00  0.00     0.171 C 
ATOM      2  C11 <0> d           2.098   1.749   1.241  0.00  0.00     0.042 C 
ENDROOT
BRANCH   1   3
ATOM      3  C9  <0> d          -0.016   1.344   0.009  0.00  0.00     0.240 C 
ATOM      4  N1  <0> d           0.002  -0.004   0.002  0.00  0.00    -0.355 N 
ATOM      5  H10 <0> d           0.849  -0.478  -0.009  0.00  0.00     0.162 HD
ATOM      6  O1  <0> d          -1.075   1.936   0.018  0.00  0.00    -0.271 OA
BRANCH   4   7
ATOM      7  C8  <0> d          -1.256  -0.754   0.010  0.00  0.00     0.161 C 
BRANCH   7   8
ATOM      8  C5  <0> d          -0.961  -2.232  -0.001  0.00  0.00    -0.037 A 
ATOM      9  C4  <0> d          -0.843  -2.904  -1.203  0.00  0.00     0.009 A 
ATOM     10  C3  <0> d          -0.566  -4.258  -1.215  0.00  0.00     0.010 A 
ATOM     11  C2  <0> d          -0.419  -4.944  -0.024  0.00  0.00    -0.023 A 
ATOM     12  C1  <0> d          -0.123  -6.422  -0.036  0.00  0.00     0.051 C 
ATOM     13  C7  <0> d          -0.543  -4.273   1.181  0.00  0.00     0.122 A 
ATOM     14  C6  <0> d          -0.814  -2.915   1.191  0.00  0.00     0.051 A 
ATOM     15  F1  <0> d          -0.399  -4.942   2.345  0.00  0.00    -0.206 F 
ENDBRANCH   7   8
ENDBRANCH   4   7
ENDBRANCH   1   3
BRANCH   1  16
ATOM     16  N2  <0> d           0.991   3.551   0.012  0.00  0.00    -0.361 N 
ATOM     17  H14 <0> d           0.153   3.876   0.377  0.00  0.00     0.162 HD
BRANCH  16  18
ATOM     18  C12 <0> d           1.912   4.442  -0.497  0.00  0.00     0.149 A 
ATOM     19  C14 <0> d           1.632   5.886  -0.490  0.00  0.00     0.034 A 
ATOM     20  C13 <0> d           2.682   6.630  -1.047  0.00  0.00     0.095 A 
ATOM     21  C15 <0> d           0.513   6.595  -0.027  0.00  0.00     0.017 A 
ATOM     22  S1  <0> d           3.859   5.382  -1.490  0.00  0.00     0.286 S 
ATOM     23  C18 <0> d           2.638   7.990  -1.143  0.00  0.00     0.026 A 
ATOM     24  N3  <0> d           3.035   4.017  -0.981  0.00  0.00    -0.141 NA
ATOM     25  O2  <0> d           3.934   5.342  -2.909  0.00  0.00    -0.198 OA
ATOM     26  O3  <0> d           4.993   5.538  -0.649  0.00  0.00    -0.198 OA
ATOM     27  C17 <0> d           1.523   8.675  -0.680  0.00  0.00     0.002 A 
ATOM     28  C16 <0> d           0.471   7.968  -0.126  0.00  0.00     0.001 A 
ENDBRANCH  16  18
ENDBRANCH   1  16
TORSDOF 5
