REMARK  3 active torsions:
REMARK  status: ('A' for Active; 'I' for Inactive)
REMARK    1  A    between atoms: C4_5  and  C8_11 
REMARK    2  A    between atoms: C8_11  and  N3_12 
REMARK    3  A    between atoms: N3_12  and  C9_13 
ROOT
ATOM      1  C8  <0> d          -3.081  -3.344  -0.006  0.00  0.00     0.292 C 
ENDROOT
BRANCH   1   2
ATOM      2  C4  <0> d          -1.613  -3.003  -0.016  0.00  0.00     0.068 A 
ATOM      3  N1  <0> d          -1.068  -1.723  -0.058  0.00  0.00    -0.300 N 
ATOM      4  C3  <0> d          -1.509  -0.418  -0.102  0.00  0.00     0.113 A 
ATOM      5  C6  <0> d           0.288  -1.920  -0.051  0.00  0.00     0.178 A 
ATOM      6  C2  <0> d          -0.643   0.594  -0.135  0.00  0.00    -0.002 A 
ATOM      7  C1  <0> d          -0.916   2.075  -0.184  0.00  0.00     0.058 C 
ATOM      8  S1  <0> d           0.925  -0.261  -0.112  0.00  0.00    -0.055 SA
ATOM      9  N2  <0> d           0.556  -3.193  -0.008  0.00  0.00    -0.227 NA
ATOM     10  C5  <0> d          -0.596  -3.880   0.013  0.00  0.00     0.058 A 
ATOM     11  C7  <0> d          -0.727  -5.381   0.064  0.00  0.00     0.072 C 
ENDBRANCH   1   2
BRANCH   1  12
ATOM     12  N3  <0> d          -3.557  -3.501  -1.387  0.00  0.00    -0.057 N 
ATOM     13  H11 <0> d          -3.338  -2.669  -1.915  0.00  0.00     0.278 HD
ATOM     14  H19 <0> d          -3.104  -4.297  -1.811  0.00  0.00     0.278 HD
BRANCH  12  15
ATOM     15  C9  <0> d          -5.011  -3.709  -1.383  0.00  0.00     0.277 C 
ATOM     16  C13 <0> d          -5.516  -3.731  -2.798  0.00  0.00     0.248 C 
ATOM     17  N4  <0> d          -6.423  -4.598  -3.244  0.00  0.00    -0.359 N 
ATOM     18  O1  <0> d          -5.075  -2.913  -3.577  0.00  0.00    -0.271 OA
ATOM     19  C12 <0> d          -7.003  -5.662  -2.434  0.00  0.00     0.122 C 
ATOM     20  H18 <0> d          -6.716  -4.517  -4.165  0.00  0.00     0.162 HD
ATOM     21  C11 <0> d          -6.810  -5.368  -0.946  0.00  0.00     0.022 C 
ATOM     22  C10 <0> d          -5.333  -5.039  -0.698  0.00  0.00     0.044 C 
ENDBRANCH  12  15
ENDBRANCH   1  12
TORSDOF 3
