REMARK  6 active torsions:
REMARK  status: ('A' for Active; 'I' for Inactive)
REMARK    1  A    between atoms: C3_3  and  C6_7 
REMARK    2  A    between atoms: C6_7  and  O2_30 
REMARK    3  A    between atoms: C11_12  and  C12_13 
REMARK    4  A    between atoms: C11_12  and  N2_32 
REMARK    5  A    between atoms: C21_23  and  C22_24 
REMARK    6  A    between atoms: C21_23  and  N3_34 
ROOT
ATOM      1  C12 <0> d          -0.343   3.295   3.786  0.00  0.00    -0.032 A 
ATOM      2  C13 <0> d           0.776   4.088   3.954  0.00  0.00     0.011 A 
ATOM      3  C14 <0> d           1.766   3.717   4.843  0.00  0.00     0.038 A 
ATOM      4  C15 <0> d           1.628   2.545   5.575  0.00  0.00     0.076 A 
ATOM      5  C16 <0> d           0.501   1.762   5.412  0.00  0.00     0.001 A 
ATOM      6  C17 <0> d          -0.484   2.130   4.519  0.00  0.00     0.020 A 
ATOM      7  C18 <0> d           0.346   0.503   6.244  0.00  0.00     0.276 C 
ATOM      8  C19 <0> d           2.645  -0.268   6.468  0.00  0.00     0.261 C 
ATOM      9  C20 <0> d           3.351   0.998   6.032  0.00  0.00     0.203 C 
ATOM     10  O1  <0> d           2.610   2.156   6.434  0.00  0.00    -0.349 OA
ATOM     11  N3  <0> d           1.355  -0.476   5.776  0.00  0.00    -0.065 N 
ATOM     12  H37 <0> d           1.497  -0.346   4.767  0.00  0.00     0.280 HD
ENDROOT
BRANCH   1  13
ATOM     13  C11 <0> d          -1.415   3.702   2.807  0.00  0.00     0.273 C 
BRANCH  13  14
ATOM     14  N2  <0> d          -1.086   3.139   1.481  0.00  0.00    -0.067 N 
ATOM     15  C8  <0> d          -1.197   1.666   1.516  0.00  0.00     0.238 C 
ATOM     16  C7  <0> d          -0.740   1.101   0.169  0.00  0.00     0.071 C 
ATOM     17  C6  <0> d          -1.630   1.660  -0.944  0.00  0.00     0.089 C 
ATOM     18  C10 <0> d          -1.562   3.190  -0.921  0.00  0.00     0.071 C 
ATOM     19  C9  <0> d          -1.997   3.694   0.457  0.00  0.00     0.238 C 
ATOM     20  H36 <0> d          -0.120   3.394   1.241  0.00  0.00     0.280 HD
BRANCH  17  21
ATOM     21  C3  <0> d          -1.147   1.154  -2.278  0.00  0.00    -0.006 A 
ATOM     22  C2  <0> d          -2.039   0.968  -3.323  0.00  0.00     0.013 A 
ATOM     23  C1  <0> d          -1.549   0.501  -4.534  0.00  0.00     0.020 A 
ATOM     24  C5  <0> d          -0.198   0.237  -4.657  0.00  0.00     0.116 A 
ATOM     25  N1  <0> d           0.621   0.425  -3.641  0.00  0.00    -0.272 NA
ATOM     26  C4  <0> d           0.192   0.874  -2.478  0.00  0.00     0.126 A 
ENDBRANCH  17  21
BRANCH  17  27
ATOM     27  O2  <0> d          -2.979   1.239  -0.733  0.00  0.00    -0.385 OA
ATOM     28  H35 <0> d          -3.600   1.558  -1.402  0.00  0.00     0.211 HD
ENDBRANCH  17  27
ENDBRANCH  13  14
ENDBRANCH   1  13
BRANCH  11  29
ATOM     29  C21 <0> d           0.876  -1.847   6.016  0.00  0.00     0.240 C 
BRANCH  29  30
ATOM     30  C22 <0> d          -0.242  -2.148   5.015  0.00  0.00     0.015 C 
ATOM     31  C27 <0> d           0.319  -2.114   3.592  0.00  0.00     0.033 C 
ATOM     32  C26 <0> d          -0.689  -2.667   2.626  0.00  0.00    -0.030 C 
ATOM     33  C25 <0> d          -1.712  -3.380   2.973  0.00  0.00    -0.031 C 
ATOM     34  C24 <0> d          -2.037  -3.750   4.391  0.00  0.00     0.027 C 
ATOM     35  C23 <0> d          -0.811  -3.547   5.283  0.00  0.00     0.010 C 
ENDBRANCH  29  30
ENDBRANCH  11  29
TORSDOF 6
