REMARK  5 active torsions:
REMARK  status: ('A' for Active; 'I' for Inactive)
REMARK    1  A    between atoms: C5_5  and  N1_8 
REMARK       I    between atoms: N1_8  and  C8_9 
REMARK       I    between atoms: C8_9  and  N2_11 
REMARK    2  A    between atoms: N2_11  and  C9_12 
REMARK    3  A    between atoms: N3_20  and  C18_22 
REMARK    4  A    between atoms: C18_22  and  C19_23 
REMARK    5  A    between atoms: C19_23  and  N4_24 
ROOT
ATOM      1  C9  <0> d           0.278  -6.991   2.276  0.00  0.00     0.043 A 
ATOM      2  C10 <0> d           0.267  -6.310   3.485  0.00  0.00     0.030 A 
ATOM      3  C11 <0> d           0.278  -7.017   4.671  0.00  0.00     0.003 A 
ATOM      4  C12 <0> d           0.301  -8.398   4.650  0.00  0.00     0.009 A 
ATOM      5  C13 <0> d           0.313  -9.084   3.445  0.00  0.00    -0.024 A 
ATOM      6  C14 <0> d           0.294  -8.383   2.259  0.00  0.00    -0.022 A 
ATOM      7  C15 <0> d           0.291  -9.090   0.927  0.00  0.00     0.069 C 
ATOM      8  C16 <0> d           0.711 -10.548   1.115  0.00  0.00     0.240 C 
ATOM      9  N3  <0> d          -0.105 -11.138   2.187  0.00  0.00    -0.065 N 
ATOM     10  C17 <0> d           0.342 -10.590   3.474  0.00  0.00     0.274 C 
ATOM     11  H26 <0> d          -1.077 -10.911   2.035  0.00  0.00     0.280 HD
ENDROOT
BRANCH   1  12
ATOM     12  N2  <0> d           0.267  -6.278   1.073  0.00  0.00    -0.308 N 
ATOM     13  C8  <0> d           0.653  -4.987   1.050  0.00  0.00     0.325 C 
ATOM     14  N1  <0> d           0.536  -4.268  -0.083  0.00  0.00    -0.309 N 
ATOM     15  O1  <0> d           1.108  -4.472   2.053  0.00  0.00    -0.247 OA
ATOM     16  H8  <0> d           0.104  -4.655  -0.861  0.00  0.00     0.170 HD
ATOM     17  H9  <0> d          -0.019  -6.713   0.254  0.00  0.00     0.170 HD
BRANCH  14  18
ATOM     18  C5  <0> d           1.037  -2.962  -0.139  0.00  0.00     0.036 A 
ATOM     19  C4  <0> d           2.176  -2.623   0.580  0.00  0.00     0.030 A 
ATOM     20  C3  <0> d           2.668  -1.334   0.523  0.00  0.00     0.009 A 
ATOM     21  C2  <0> d           2.029  -0.382  -0.249  0.00  0.00    -0.062 A 
ATOM     22  C1  <0> d           2.569   1.024  -0.309  0.00  0.00     0.048 C 
ATOM     23  C7  <0> d           0.891  -0.715  -0.961  0.00  0.00     0.009 A 
ATOM     24  C6  <0> d           0.397  -2.004  -0.913  0.00  0.00     0.030 A 
ENDBRANCH  14  18
ENDBRANCH   1  12
BRANCH   9  25
ATOM     25  C18 <0> d           0.067 -12.597   2.190  0.00  0.00     0.257 C 
BRANCH  25  26
ATOM     26  C19 <0> d          -0.876 -13.219   3.222  0.00  0.00     0.178 C 
BRANCH  26  27
ATOM     27  N4  <0> d          -0.705 -14.674   3.225  0.00  0.00    -0.280 N 
ATOM     28  N5  <0> d          -0.816 -15.519   2.113  0.00  0.00    -0.185 NA
ATOM     29  C22 <0> d          -0.594 -16.746   2.509  0.00  0.00     0.140 A 
ATOM     30  C21 <0> d          -0.344 -16.723   3.885  0.00  0.00     0.040 A 
ATOM     31  C20 <0> d          -0.419 -15.437   4.300  0.00  0.00     0.113 A 
ENDBRANCH  26  27
ENDBRANCH  25  26
ENDBRANCH   9  25
TORSDOF 5
