REMARK  5 active torsions:
REMARK  status: ('A' for Active; 'I' for Inactive)
REMARK    1  A    between atoms: C3_3  and  C5_6 
REMARK    2  A    between atoms: C5_6  and  N1_7 
REMARK    3  A    between atoms: C9_11  and  C11_13 
REMARK       I    between atoms: C11_13  and  N2_15 
REMARK    4  A    between atoms: N2_15  and  C12_16 
REMARK    5  A    between atoms: C12_16  and  C13_17 
ROOT
ATOM      1  N1  <0> d           4.102   0.606   1.351  0.00  0.00    -0.065 N 
ATOM      2  C6  <0> d           3.741   1.863   2.018  0.00  0.00     0.235 C 
ATOM      3  C7  <0> d           4.192   1.816   3.480  0.00  0.00     0.029 C 
ATOM      4  C8  <0> d           5.710   1.625   3.534  0.00  0.00     0.017 C 
ATOM      5  C9  <0> d           6.082   0.351   2.771  0.00  0.00     0.103 C 
ATOM      6  C10 <0> d           5.562   0.452   1.336  0.00  0.00     0.249 C 
ATOM      7  H25 <0> d           3.688  -0.168   1.848  0.00  0.00     0.280 HD
ENDROOT
BRANCH   5   8
ATOM      8  C11 <0> d           7.581   0.194   2.754  0.00  0.00     0.223 C 
ATOM      9  O2  <0> d           8.175   0.162   1.697  0.00  0.00    -0.273 OA
ATOM     10  N2  <0> d           8.261   0.089   3.912  0.00  0.00    -0.358 N 
ATOM     11  H16 <0> d           7.786   0.115   4.758  0.00  0.00     0.162 HD
BRANCH  10  12
ATOM     12  C12 <0> d           9.718  -0.063   3.896  0.00  0.00     0.156 C 
BRANCH  12  13
ATOM     13  C13 <0> d          10.238  -0.159   5.332  0.00  0.00     0.179 A 
ATOM     14  N4  <0> d           9.627  -1.302   6.032  0.00  0.00    -0.181 NA
ATOM     15  N3  <0> d          10.538  -2.075   6.347  0.00  0.00    -0.159 NA
ATOM     16  C15 <0> d          11.784  -1.670   5.980  0.00  0.00     0.061 A 
ATOM     17  C14 <0> d          11.713  -0.501   5.347  0.00  0.00    -0.026 A 
ATOM     18  C16 <0> d          13.231  -2.124   6.062  0.00  0.00     0.062 C 
ATOM     19  C18 <0> d          13.078  -0.022   4.923  0.00  0.00     0.039 C 
ATOM     20  C17 <0> d          13.979  -1.274   5.012  0.00  0.00     0.011 C 
ENDBRANCH  12  13
ENDBRANCH  10  12
ENDBRANCH   5   8
BRANCH   1  21
ATOM     21  C5  <0> d           3.599   0.625  -0.029  0.00  0.00     0.299 C 
BRANCH  21  22
ATOM     22  C3  <0> d           2.092   0.660  -0.014  0.00  0.00     0.078 A 
ATOM     23  C2  <0> d           1.331   1.769  -0.001  0.00  0.00     0.036 A 
ATOM     24  C1  <0> d          -0.016   1.341   0.009  0.00  0.00     0.027 A 
ATOM     25  C4  <0> d           0.002  -0.004   0.002  0.00  0.00     0.142 A 
ATOM     26  O1  <0> d           1.282  -0.411  -0.012  0.00  0.00    -0.325 OA
ENDBRANCH  21  22
ENDBRANCH   1  21
TORSDOF 5
