REMARK  5 active torsions:
REMARK  status: ('A' for Active; 'I' for Inactive)
REMARK    1  A    between atoms: C3_3  and  C7_8 
REMARK    2  A    between atoms: C5_5  and  N1_7 
REMARK    3  A    between atoms: C7_8  and  C8_9 
REMARK    4  A    between atoms: C7_8  and  O1_20 
REMARK    5  A    between atoms: C8_9  and  N2_10 
ROOT
ATOM      1  C7  <0> d           3.671   2.193  -0.023  0.00  0.00     0.177 C 
ENDROOT
BRANCH   1   2
ATOM      2  C3  <0> d           2.380   1.416  -0.013  0.00  0.00    -0.026 A 
ATOM      3  C2  <0> d           1.171   2.086   0.002  0.00  0.00     0.010 A 
ATOM      4  C1  <0> d          -0.017   1.377   0.010  0.00  0.00     0.003 A 
ATOM      5  C6  <0> d           0.002  -0.004   0.002  0.00  0.00     0.029 A 
ATOM      6  C5  <0> d           1.215  -0.681  -0.013  0.00  0.00     0.026 A 
ATOM      7  C4  <0> d           2.406   0.035  -0.021  0.00  0.00     0.038 A 
BRANCH   6   8
ATOM      8  N1  <0> d           1.238  -2.077  -0.021  0.00  0.00    -0.399 N 
ATOM      9  H8  <0> d           2.086  -2.549  -0.032  0.00  0.00     0.156 HD
ATOM     10  H9  <0> d           0.406  -2.576  -0.015  0.00  0.00     0.156 HD
ENDBRANCH   6   8
ENDBRANCH   1   2
BRANCH   1  11
ATOM     11  C8  <0> d           4.058   2.556   1.412  0.00  0.00     0.271 C 
BRANCH  11  12
ATOM     12  N2  <0> d           5.316   3.314   1.403  0.00  0.00    -0.068 N 
ATOM     13  C17 <0> d           5.624   3.764   2.767  0.00  0.00     0.240 C 
ATOM     14  C16 <0> d           6.894   4.615   2.749  0.00  0.00     0.016 C 
ATOM     15  C11 <0> d           8.059   3.775   2.218  0.00  0.00    -0.007 C 
ATOM     16  C15 <0> d           7.203   5.091   4.169  0.00  0.00     0.007 C 
ATOM     17  C10 <0> d           7.697   3.260   0.820  0.00  0.00     0.032 C 
ATOM     18  C12 <0> d           8.308   2.580   3.141  0.00  0.00     0.005 C 
ATOM     19  C9  <0> d           6.397   2.457   0.904  0.00  0.00     0.235 C 
ATOM     20  C13 <0> d           8.632   3.079   4.551  0.00  0.00     0.000 C 
ATOM     21  C14 <0> d           7.450   3.891   5.086  0.00  0.00     0.000 C 
ATOM     22  H27 <0> d           5.220   4.116   0.799  0.00  0.00     0.280 HD
ENDBRANCH  11  12
ENDBRANCH   1  11
BRANCH   1  23
ATOM     23  O1  <0> d           3.502   3.388  -0.788  0.00  0.00    -0.389 OA
ATOM     24  H26 <0> d           2.816   3.979  -0.448  0.00  0.00     0.210 HD
ENDBRANCH   1  23
TORSDOF 5
