REMARK  5 active torsions:
REMARK  status: ('A' for Active; 'I' for Inactive)
REMARK    1  A    between atoms: C2_2  and  C3_3 
REMARK    2  A    between atoms: C2_2  and  O4_25 
REMARK    3  A    between atoms: C3_3  and  O3_24 
REMARK    4  A    between atoms: C9_9  and  O2_22 
REMARK    5  A    between atoms: C18_18  and  O1_20 
ROOT
ATOM      1  C3  <0> d           0.939  -0.392   1.335  0.00  0.00     0.091 C 
ATOM      2  C4  <0> d           2.422   0.018   1.516  0.00  0.00     0.042 C 
ATOM      3  C5  <0> d           3.223  -1.302   1.690  0.00  0.00     0.009 C 
ATOM      4  C6  <0> d           2.163  -2.280   2.208  0.00  0.00     0.001 C 
ATOM      5  C7  <0> d           0.941  -1.917   1.322  0.00  0.00    -0.004 C 
ATOM      6  C8  <0> d          -0.273  -2.602   1.920  0.00  0.00     0.044 C 
ATOM      7  C9  <0> d          -0.045  -4.118   1.806  0.00  0.00     0.124 C 
ATOM      8  C10 <0> d           1.243  -4.540   2.505  0.00  0.00     0.027 C 
ATOM      9  C11 <0> d           2.463  -3.752   2.000  0.00  0.00    -0.002 C 
ATOM     10  C12 <0> d           3.705  -4.160   2.794  0.00  0.00     0.006 C 
ATOM     11  C13 <0> d           3.958  -5.658   2.612  0.00  0.00     0.006 C 
ATOM     12  C14 <0> d           2.749  -6.446   3.119  0.00  0.00    -0.004 C 
ATOM     13  C15 <0> d           1.488  -6.035   2.294  0.00  0.00    -0.034 C 
ATOM     14  C16 <0> d           0.280  -6.825   2.805  0.00  0.00     0.012 C 
ATOM     15  C17 <0> d           0.074  -6.533   4.293  0.00  0.00     0.032 C 
ATOM     16  C18 <0> d           1.322  -6.950   5.073  0.00  0.00     0.118 C 
ATOM     17  C19 <0> d           2.528  -6.140   4.602  0.00  0.00     0.037 C 
ATOM     18  C20 <0> d           1.694  -6.315   0.804  0.00  0.00     0.016 C 
ATOM     19  C21 <0> d           1.168  -2.422  -0.104  0.00  0.00     0.019 C 
ENDROOT
BRANCH   1  20
ATOM     20  C2  <0> d           0.397   0.149   0.011  0.00  0.00     0.149 C 
ATOM     21  C1  <0> d          -1.081  -0.222  -0.125  0.00  0.00     0.042 C 
BRANCH  20  22
ATOM     22  O4  <0> d           0.536   1.571  -0.015  0.00  0.00    -0.393 OA
ATOM     23  H36 <0> d           0.061   2.026   0.694  0.00  0.00     0.210 HD
ENDBRANCH  20  22
ENDBRANCH   1  20
BRANCH   1  24
ATOM     24  O3  <0> d           0.153   0.093   2.426  0.00  0.00    -0.386 OA
ATOM     25  H35 <0> d           0.131   1.057   2.497  0.00  0.00     0.210 HD
ENDBRANCH   1  24
BRANCH   7  26
ATOM     26  O2  <0> d          -1.147  -4.803   2.405  0.00  0.00    -0.395 OA
ATOM     27  H31 <0> d          -2.001  -4.608   1.996  0.00  0.00     0.210 HD
ENDBRANCH   7  26
BRANCH  16  28
ATOM     28  O1  <0> d           1.551  -8.349   4.892  0.00  0.00    -0.396 OA
ATOM     29  H27 <0> d           0.824  -8.909   5.196  0.00  0.00     0.210 HD
ENDBRANCH  16  28
TORSDOF 5
