REMARK  5 active torsions:
REMARK  status: ('A' for Active; 'I' for Inactive)
REMARK    1  A    between atoms: C5_5  and  C8_8 
REMARK    2  A    between atoms: C9_9  and  C13_16 
REMARK       I    between atoms: C13_16  and  N3_18 
REMARK    3  A    between atoms: N3_18  and  C14_19 
REMARK    4  A    between atoms: C16_21  and  O4_28 
REMARK    5  A    between atoms: C19_24  and  O3_25 
ROOT
ATOM      1  C8  <0> d          -0.246   2.999  -0.577  0.00  0.00     0.160 A 
ATOM      2  C9  <0> d          -1.441   2.477   0.195  0.00  0.00     0.059 A 
ATOM      3  C10 <0> d          -1.290   1.328   0.885  0.00  0.00     0.024 A 
ATOM      4  N1  <0> d          -0.096   0.664   0.897  0.00  0.00    -0.312 N 
ATOM      5  C11 <0> d           0.991   1.079   0.234  0.00  0.00     0.321 A 
ATOM      6  O1  <0> d           2.009   0.417   0.300  0.00  0.00    -0.247 OA
ATOM      7  N2  <0> d           0.993   2.206  -0.504  0.00  0.00    -0.330 N 
ATOM      8  C12 <0> d          -2.456   0.771   1.662  0.00  0.00     0.069 C 
ATOM      9  H9  <0> d          -0.033  -0.157   1.411  0.00  0.00     0.170 HD
ATOM     10  H10 <0> d           1.792   2.489  -0.977  0.00  0.00     0.165 HD
ENDROOT
BRANCH   2  11
ATOM     11  C13 <0> d          -2.677   3.170   0.187  0.00  0.00     0.256 C 
ATOM     12  O2  <0> d          -3.389   3.134  -0.801  0.00  0.00    -0.267 OA
ATOM     13  N3  <0> d          -3.065   3.868   1.272  0.00  0.00    -0.321 N 
ATOM     14  H14 <0> d          -2.464   3.965   2.027  0.00  0.00     0.169 HD
BRANCH  13  15
ATOM     15  C14 <0> d          -4.337   4.455   1.309  0.00  0.00     0.071 A 
ATOM     16  C19 <0> d          -5.006   4.593   2.523  0.00  0.00     0.096 A 
ATOM     17  C18 <0> d          -6.263   5.174   2.557  0.00  0.00     0.065 A 
ATOM     18  C17 <0> d          -6.853   5.618   1.388  0.00  0.00     0.070 A 
ATOM     19  C16 <0> d          -6.188   5.483   0.177  0.00  0.00     0.092 A 
ATOM     20 Cl1  <0> d          -8.429   6.346   1.434  0.00  0.00    -0.081 Cl
ATOM     21  C15 <0> d          -4.928   4.906   0.138  0.00  0.00     0.071 A 
BRANCH  16  22
ATOM     22  O3  <0> d          -4.426   4.157   3.673  0.00  0.00    -0.354 OA
ATOM     23  C20 <0> d          -5.170   4.329   4.881  0.00  0.00     0.210 C 
ENDBRANCH  16  22
BRANCH  19  24
ATOM     24  O4  <0> d          -6.771   5.921  -0.971  0.00  0.00    -0.354 OA
ATOM     25  C21 <0> d          -6.029   5.750  -2.181  0.00  0.00     0.210 C 
ENDBRANCH  19  24
ENDBRANCH  13  15
ENDBRANCH   2  11
BRANCH   1  26
ATOM     26  C5  <0> d           0.060   4.387  -0.075  0.00  0.00    -0.031 A 
ATOM     27  C4  <0> d          -0.390   5.490  -0.776  0.00  0.00     0.010 A 
ATOM     28  C3  <0> d          -0.110   6.763  -0.316  0.00  0.00     0.007 A 
ATOM     29  C2  <0> d           0.622   6.933   0.845  0.00  0.00    -0.062 A 
ATOM     30  C1  <0> d           0.928   8.320   1.346  0.00  0.00     0.048 C 
ATOM     31  C7  <0> d           1.073   5.830   1.545  0.00  0.00     0.007 A 
ATOM     32  C6  <0> d           0.788   4.556   1.088  0.00  0.00     0.010 A 
ENDBRANCH   1  26
TORSDOF 5
