REMARK  6 active torsions:
REMARK  status: ('A' for Active; 'I' for Inactive)
REMARK    1  A    between atoms: C2_2  and  O1_3 
REMARK    2  A    between atoms: O1_3  and  C3_4 
REMARK    3  A    between atoms: C7_9  and  S1_13 
REMARK    4  A    between atoms: S1_13  and  C10_14 
REMARK    5  A    between atoms: C10_14  and  C11_15 
REMARK       I    between atoms: C11_15  and  N3_17 
REMARK    6  A    between atoms: N3_17  and  C12_18 
ROOT
ATOM      1  C10 <0> d           4.349  -5.741   1.604  0.00  0.00     0.180 C 
ENDROOT
BRANCH   1   2
ATOM      2  S1  <0> d           3.536  -6.717   2.898  0.00  0.00    -0.114 SA
BRANCH   2   3
ATOM      3  C7  <0> d           1.930  -5.903   3.119  0.00  0.00     0.247 A 
ATOM      4  N1  <0> d           1.190  -5.897   1.851  0.00  0.00    -0.359 N 
ATOM      5  C6  <0> d           0.979  -4.654   1.525  0.00  0.00     0.057 A 
ATOM      6  H21 <0> d           0.909  -6.677   1.348  0.00  0.00     0.162 HD
ATOM      7  C5  <0> d           0.299  -4.034   0.378  0.00  0.00     0.034 A 
ATOM      8  C8  <0> d           1.570  -3.766   2.562  0.00  0.00     0.059 A 
ATOM      9  C4  <0> d           0.224  -2.693   0.290  0.00  0.00     0.039 A 
ATOM     10  C3  <0> d           0.802  -1.821   1.305  0.00  0.00     0.071 A 
ATOM     11  C9  <0> d           1.449  -2.317   2.388  0.00  0.00     0.068 A 
ATOM     12  N2  <0> d           2.124  -4.496   3.491  0.00  0.00    -0.358 N 
ATOM     13  H22 <0> d           2.580  -4.170   4.283  0.00  0.00     0.162 HD
BRANCH  10  14
ATOM     14  O1  <0> d           0.693  -0.477   1.160  0.00  0.00    -0.351 OA
BRANCH  14  15
ATOM     15  C2  <0> d           0.002  -0.004   0.002  0.00  0.00     0.171 C 
ATOM     16  C1  <0> d          -0.019   1.526   0.010  0.00  0.00     0.034 C 
ENDBRANCH  14  15
ENDBRANCH  10  14
ENDBRANCH   2   3
ENDBRANCH   1   2
BRANCH   1  17
ATOM     17  C11 <0> d           5.712  -6.319   1.320  0.00  0.00     0.229 C 
ATOM     18  O2  <0> d           6.096  -7.294   1.932  0.00  0.00    -0.273 OA
ATOM     19  N3  <0> d           6.503  -5.753   0.387  0.00  0.00    -0.330 N 
ATOM     20  H13 <0> d           6.195  -4.974  -0.102  0.00  0.00     0.165 HD
BRANCH  19  21
ATOM     21  C12 <0> d           7.827  -6.315   0.112  0.00  0.00     0.254 A 
ATOM     22  S2  <0> d           7.707  -7.788  -0.981  0.00  0.00    -0.081 SA
ATOM     23  C18 <0> d           8.641  -7.155  -2.357  0.00  0.00     0.031 A 
ATOM     24  C13 <0> d           9.023  -5.865  -1.977  0.00  0.00     0.053 A 
ATOM     25  C17 <0> d           8.984  -7.699  -3.574  0.00  0.00     0.021 A 
ATOM     26  N4  <0> d           8.624  -5.406  -0.722  0.00  0.00    -0.359 N 
ATOM     27  C14 <0> d           9.786  -5.139  -2.909  0.00  0.00    -0.034 A 
ATOM     28  H14 <0> d           8.864  -4.518  -0.412  0.00  0.00     0.162 HD
ATOM     29  C15 <0> d          10.130  -5.682  -4.125  0.00  0.00     0.009 A 
ATOM     30  C19 <0> d          10.235  -3.741  -2.570  0.00  0.00     0.050 C 
ATOM     31  C16 <0> d           9.736  -6.961  -4.473  0.00  0.00     0.002 A 
ENDBRANCH  19  21
ENDBRANCH   1  17
TORSDOF 6
