REMARK  6 active torsions:
REMARK  status: ('A' for Active; 'I' for Inactive)
REMARK    1  A    between atoms: C3_3  and  C6_7 
REMARK    2  A    between atoms: N2_11  and  C10_15 
REMARK    3  A    between atoms: C10_15  and  C11_16 
REMARK    4  A    between atoms: C11_16  and  N3_17 
REMARK       I    between atoms: N3_17  and  C12_18 
REMARK    5  A    between atoms: C12_18  and  C13_20 
REMARK    6  A    between atoms: C16_23  and  N4_26 
ROOT
ATOM      1  C11 <0> d          -1.849   1.927   2.007  0.00  0.00     0.143 C 
ENDROOT
BRANCH   1   2
ATOM      2  C10 <0> d          -1.240   2.013   0.607  0.00  0.00     0.155 C 
BRANCH   2   3
ATOM      3  N2  <0> d           0.031   1.286   0.581  0.00  0.00    -0.273 N 
ATOM      4  C8  <0> d           0.034   0.001   0.269  0.00  0.00     0.268 A 
ATOM      5  C7  <0> d           1.350  -0.673   0.255  0.00  0.00     0.079 A 
ATOM      6  O1  <0> d          -0.993  -0.596   0.006  0.00  0.00    -0.266 OA
ATOM      7  C6  <0> d           1.657  -1.964  -0.025  0.00  0.00     0.037 C 
ATOM      8  S1  <0> d           2.425   0.682   0.707  0.00  0.00    -0.023 SA
ATOM      9  C9  <0> d           1.172   1.943   0.872  0.00  0.00     0.294 A 
ATOM     10  O2  <0> d           1.314   3.113   1.173  0.00  0.00    -0.259 OA
BRANCH   7  11
ATOM     11  C3  <0> d           3.063  -2.374  -0.151  0.00  0.00    -0.017 A 
ATOM     12  C2  <0> d           4.088  -1.416  -0.163  0.00  0.00     0.014 A 
ATOM     13  C1  <0> d           5.394  -1.856  -0.280  0.00  0.00     0.020 A 
ATOM     14  C5  <0> d           5.645  -3.212  -0.390  0.00  0.00     0.116 A 
ATOM     15  N1  <0> d           4.662  -4.092  -0.382  0.00  0.00    -0.272 NA
ATOM     16  C4  <0> d           3.402  -3.727  -0.268  0.00  0.00     0.127 A 
ENDBRANCH   7  11
ENDBRANCH   2   3
ENDBRANCH   1   2
BRANCH   1  17
ATOM     17  N3  <0> d          -3.121   2.655   2.033  0.00  0.00    -0.355 N 
ATOM     18  C12 <0> d          -3.840   2.715   3.171  0.00  0.00     0.251 C 
ATOM     19  O3  <0> d          -3.433   2.166   4.177  0.00  0.00    -0.268 OA
ATOM     20  H10 <0> d          -3.445   3.093   1.231  0.00  0.00     0.162 HD
BRANCH  18  21
ATOM     21  C13 <0> d          -5.121   3.448   3.197  0.00  0.00     0.032 A 
ATOM     22  C18 <0> d          -5.868   3.512   4.376  0.00  0.00     0.019 A 
ATOM     23  C17 <0> d          -7.063   4.196   4.396  0.00  0.00     0.032 A 
ATOM     24  C16 <0> d          -7.526   4.824   3.245  0.00  0.00     0.058 A 
ATOM     25  C15 <0> d          -6.785   4.763   2.070  0.00  0.00     0.032 A 
ATOM     26  C14 <0> d          -5.587   4.085   2.043  0.00  0.00     0.019 A 
BRANCH  24  27
ATOM     27  N4  <0> d          -8.739   5.519   3.269  0.00  0.00    -0.245 N 
ATOM     28  N5  <0> d          -9.586   5.663   4.376  0.00  0.00    -0.180 NA
ATOM     29  C21 <0> d         -10.620   6.376   4.011  0.00  0.00     0.140 A 
ATOM     30  C20 <0> d         -10.470   6.711   2.660  0.00  0.00     0.040 A 
ATOM     31  C19 <0> d          -9.305   6.179   2.225  0.00  0.00     0.120 A 
ENDBRANCH  24  27
ENDBRANCH  18  21
ENDBRANCH   1  17
TORSDOF 6
