REMARK  6 active torsions:
REMARK  status: ('A' for Active; 'I' for Inactive)
REMARK    1  A    between atoms: C3_3  and  C10_12 
REMARK    2  A    between atoms: C5_6  and  C6_7 
REMARK    3  A    between atoms: C7_8  and  C8_9 
REMARK    4  A    between atoms: C8_9  and  C9_10 
REMARK    5  A    between atoms: C9_10  and  O1_11 
REMARK       I    between atoms: C10_12  and  N2_14 
REMARK    6  A    between atoms: N2_14  and  C11_15 
ROOT
ATOM      1  C1  <0> d          -0.017   1.395   0.010  0.00  0.00     0.024 A 
ATOM      2  C2  <0> d           1.191   2.069   0.002  0.00  0.00     0.039 A 
ATOM      3  C3  <0> d           2.378   1.337  -0.013  0.00  0.00     0.124 A 
ATOM      4  N1  <0> d           2.360   0.009  -0.021  0.00  0.00    -0.254 NA
ATOM      5  C4  <0> d           1.234  -0.667  -0.014  0.00  0.00     0.138 A 
ATOM      6  C5  <0> d           0.002  -0.004   0.002  0.00  0.00     0.035 A 
ENDROOT
BRANCH   3   7
ATOM      7  C10 <0> d           3.675   2.050  -0.022  0.00  0.00     0.270 C 
ATOM      8  O2  <0> d           3.700   3.265  -0.016  0.00  0.00    -0.266 OA
ATOM      9  N2  <0> d           4.827   1.351  -0.037  0.00  0.00    -0.350 N 
ATOM     10  H10 <0> d           4.807   0.382  -0.042  0.00  0.00     0.163 HD
BRANCH   9  11
ATOM     11  C11 <0> d           6.111   2.057  -0.045  0.00  0.00     0.099 C 
ATOM     12  C14 <0> d           7.188   1.157  -0.698  0.00  0.00     0.165 C 
ATOM     13  S1  <0> d           8.719   1.646   0.193  0.00  0.00     0.146 S 
ATOM     14  C13 <0> d           8.004   2.851   1.389  0.00  0.00     0.142 C 
ATOM     15  O3  <0> d           9.216   0.524   0.908  0.00  0.00    -0.228 OA
ATOM     16  O4  <0> d           9.577   2.339  -0.704  0.00  0.00    -0.228 OA
ATOM     17  C12 <0> d           6.518   2.395   1.399  0.00  0.00     0.041 C 
ENDBRANCH   9  11
ENDBRANCH   3   7
BRANCH   6  18
ATOM     18  C6  <0> d          -1.222  -0.747   0.010  0.00  0.00    -0.066 C 
ATOM     19  C7  <0> d          -2.226  -1.356   0.017  0.00  0.00    -0.099 C 
BRANCH  19  20
ATOM     20  C8  <0> d          -3.485  -2.119   0.025  0.00  0.00     0.120 C 
BRANCH  20  21
ATOM     21  C9  <0> d          -3.172  -3.617   0.014  0.00  0.00     0.176 C 
BRANCH  21  22
ATOM     22  O1  <0> d          -4.394  -4.358   0.022  0.00  0.00    -0.400 OA
ATOM     23  H9  <0> d          -4.272  -5.317   0.016  0.00  0.00     0.209 HD
ENDBRANCH  21  22
ENDBRANCH  20  21
ENDBRANCH  19  20
ENDBRANCH   6  18
TORSDOF 6
