REMARK  7 active torsions:
REMARK  status: ('A' for Active; 'I' for Inactive)
REMARK    1  A    between atoms: O1_2  and  C2_3 
REMARK       I    between atoms: C2_3  and  N1_5 
REMARK       I    between atoms: N1_5  and  C3_6 
REMARK    2  A    between atoms: C3_6  and  C4_8 
REMARK    3  A    between atoms: C4_8  and  S1_9 
REMARK    4  A    between atoms: S1_9  and  C5_10 
REMARK    5  A    between atoms: C5_10  and  C6_11 
REMARK    6  A    between atoms: C6_11  and  C7_12 
REMARK    7  A    between atoms: C6_11  and  N2_15 
ROOT
ATOM      1  S1  <0> d           2.173  -4.543  -3.758  0.00  0.00    -0.157 SA
ENDROOT
BRANCH   1   2
ATOM      2  C4  <0> d           1.311  -4.048  -2.240  0.00  0.00     0.177 C 
BRANCH   2   3
ATOM      3  C3  <0> d           1.252  -2.544  -2.163  0.00  0.00     0.235 C 
ATOM      4  N1  <0> d           0.653  -1.946  -1.114  0.00  0.00    -0.272 N 
ATOM      5  C2  <0> d           0.600  -0.601  -1.046  0.00  0.00     0.366 C 
ATOM      6  H5  <0> d           0.260  -2.484  -0.409  0.00  0.00     0.174 HD
ATOM      7  O2  <0> d           1.092   0.072  -1.929  0.00  0.00    -0.238 OA
ATOM      8  O3  <0> d           1.742  -1.872  -3.045  0.00  0.00    -0.272 OA
BRANCH   5   9
ATOM      9  O1  <0> d           0.002  -0.004   0.002  0.00  0.00    -0.309 OA
ATOM     10  C1  <0> d          -0.017   1.425   0.010  0.00  0.00     0.215 C 
ENDBRANCH   5   9
ENDBRANCH   2   3
ENDBRANCH   1   2
BRANCH   1  11
ATOM     11  C5  <0> d           2.159  -6.356  -3.700  0.00  0.00     0.118 C 
BRANCH  11  12
ATOM     12  C6  <0> d           2.865  -6.911  -4.938  0.00  0.00     0.292 C 
BRANCH  12  13
ATOM     13  C7  <0> d           2.746  -8.413  -4.953  0.00  0.00     0.205 C 
ATOM     14  O4  <0> d           1.666  -8.938  -5.163  0.00  0.00    -0.646 OA
ATOM     15  O5  <0> d           3.731  -9.104  -4.754  0.00  0.00    -0.646 OA
ENDBRANCH  12  13
BRANCH  12  16
ATOM     16  N2  <0> d           4.284  -6.532  -4.905  0.00  0.00    -0.065 N 
ATOM     17  H10 <0> d           4.713  -6.911  -4.075  0.00  0.00     0.275 HD
ATOM     18  H11 <0> d           4.749  -6.898  -5.722  0.00  0.00     0.275 HD
ATOM     19  H12 <0> d           4.363  -5.526  -4.896  0.00  0.00     0.275 HD
ENDBRANCH  12  16
ENDBRANCH  11  12
ENDBRANCH   1  11
TORSDOF 7
