REMARK  7 active torsions:
REMARK  status: ('A' for Active; 'I' for Inactive)
REMARK    1  A    between atoms: C2_2  and  N1_3 
REMARK    2  A    between atoms: N1_3  and  C3_4 
REMARK    3  A    between atoms: C6_8  and  N4_10 
REMARK    4  A    between atoms: N4_10  and  C7_11 
REMARK    5  A    between atoms: C10_14  and  N5_17 
REMARK    6  A    between atoms: N5_17  and  S1_18 
REMARK    7  A    between atoms: S1_18  and  C13_21 
ROOT
ATOM      1  C7  <0> d           2.854  -5.353   3.857  0.00  0.00     0.033 A 
ATOM      2  C8  <0> d           2.290  -6.338   3.057  0.00  0.00     0.032 A 
ATOM      3  C9  <0> d           2.266  -7.649   3.490  0.00  0.00     0.032 A 
ATOM      4  C10 <0> d           2.807  -7.983   4.726  0.00  0.00     0.042 A 
ATOM      5  C11 <0> d           3.371  -6.997   5.525  0.00  0.00     0.032 A 
ATOM      6  C12 <0> d           3.399  -5.687   5.090  0.00  0.00     0.032 A 
ENDROOT
BRANCH   1   7
ATOM      7  N4  <0> d           2.878  -4.024   3.418  0.00  0.00    -0.340 N 
ATOM      8  H8  <0> d           3.616  -3.444   3.666  0.00  0.00     0.167 HD
BRANCH   7   9
ATOM      9  C6  <0> d           1.849  -3.535   2.629  0.00  0.00     0.149 A 
ATOM     10  C5  <0> d           1.920  -2.251   2.085  0.00  0.00     0.076 A 
ATOM     11  C4  <0> d           0.871  -1.806   1.305  0.00  0.00     0.026 A 
ATOM     12  N2  <0> d          -0.166  -2.605   1.097  0.00  0.00    -0.194 N 
ATOM     13  C19 <0> d           0.904  -0.428   0.698  0.00  0.00     0.069 C 
ATOM     14  C3  <0> d          -0.207  -3.819   1.625  0.00  0.00     0.702 A 
ATOM     15  H21 <0> d          -0.904  -2.296   0.549  0.00  0.00     0.184 HD
ATOM     16  N3  <0> d           0.776  -4.281   2.383  0.00  0.00    -0.047 NA
BRANCH  14  17
ATOM     17  N1  <0> d          -1.308  -4.623   1.384  0.00  0.00    -0.225 N 
ATOM     18  H6  <0> d          -1.352  -5.513   1.768  0.00  0.00     0.177 HD
BRANCH  17  19
ATOM     19  C2  <0> d          -2.405  -4.130   0.548  0.00  0.00     0.134 C 
ATOM     20  C1  <0> d          -3.488  -5.206   0.441  0.00  0.00     0.027 C 
ENDBRANCH  17  19
ENDBRANCH  14  17
ENDBRANCH   7   9
ENDBRANCH   1   7
BRANCH   4  21
ATOM     21  N5  <0> d           2.782  -9.311   5.165  0.00  0.00    -0.281 N 
ATOM     22  H13 <0> d           1.975  -9.840   5.065  0.00  0.00     0.179 HD
BRANCH  21  23
ATOM     23  S1  <0> d           4.130  -9.980   5.854  0.00  0.00     0.266 S 
ATOM     24  O1  <0> d           4.521  -9.112   6.909  0.00  0.00    -0.200 OA
ATOM     25  O2  <0> d           3.838 -11.355   6.067  0.00  0.00    -0.200 OA
BRANCH  23  26
ATOM     26  C13 <0> d           5.416  -9.920   4.651  0.00  0.00     0.118 A 
ATOM     27  C18 <0> d           5.295 -10.636   3.472  0.00  0.00     0.139 A 
ATOM     28  C17 <0> d           6.304 -10.583   2.525  0.00  0.00     0.044 A 
ATOM     29  F1  <0> d           4.192 -11.382   3.244  0.00  0.00    -0.204 F 
ATOM     30  C16 <0> d           7.434  -9.824   2.762  0.00  0.00     0.003 A 
ATOM     31  C15 <0> d           7.556  -9.114   3.942  0.00  0.00     0.002 A 
ATOM     32  C14 <0> d           6.548  -9.162   4.886  0.00  0.00     0.028 A 
ENDBRANCH  23  26
ENDBRANCH  21  23
ENDBRANCH   4  21
TORSDOF 7
