REMARK  8 active torsions:
REMARK  status: ('A' for Active; 'I' for Inactive)
REMARK    1  A    between atoms: N1_2  and  C2_3 
REMARK    2  A    between atoms: N1_2  and  S1_9 
REMARK    3  A    between atoms: C2_3  and  C3_4 
REMARK    4  A    between atoms: C3_4  and  C4_5 
REMARK    5  A    between atoms: C3_4  and  O2_8 
REMARK    6  A    between atoms: C4_5  and  O1_6 
REMARK    7  A    between atoms: S1_9  and  C6_12 
REMARK    8  A    between atoms: C7_13  and  N2_19 
ROOT
ATOM      1  S1  <0> d          -0.071  -0.973  -1.662  0.00  0.00     0.265 S 
ATOM      2  O3  <0> d          -0.505  -2.241  -1.190  0.00  0.00    -0.200 OA
ATOM      3  O4  <0> d          -0.655  -0.340  -2.792  0.00  0.00    -0.200 OA
ENDROOT
BRANCH   1   4
ATOM      4  N1  <0> d          -0.227   0.082  -0.395  0.00  0.00    -0.308 N 
ATOM      5  C1  <0> d          -0.373   1.517  -0.651  0.00  0.00     0.163 C 
BRANCH   4   6
ATOM      6  C2  <0> d          -0.219  -0.420   0.981  0.00  0.00     0.168 C 
BRANCH   6   7
ATOM      7  C3  <0> d          -1.659  -0.631   1.455  0.00  0.00     0.160 C 
BRANCH   7   8
ATOM      8  C4  <0> d          -1.651  -1.155   2.893  0.00  0.00     0.200 C 
BRANCH   8   9
ATOM      9  O1  <0> d          -2.987  -1.462   3.295  0.00  0.00    -0.393 OA
ATOM     10  C5  <0> d          -3.092  -1.962   4.630  0.00  0.00     0.201 C 
ENDBRANCH   8   9
ENDBRANCH   7   8
BRANCH   7  11
ATOM     11  O2  <0> d          -2.363   0.612   1.405  0.00  0.00    -0.392 OA
ATOM     12  H12 <0> d          -1.979   1.304   1.959  0.00  0.00     0.210 HD
ENDBRANCH   7  11
ENDBRANCH   6   7
ENDBRANCH   4   6
ENDBRANCH   1   4
BRANCH   1  13
ATOM     13  C6  <0> d           1.651  -1.125  -2.005  0.00  0.00     0.144 A 
ATOM     14  C11 <0> d           2.362  -2.203  -1.511  0.00  0.00     0.141 A 
ATOM     15  C10 <0> d           3.715  -2.325  -1.785  0.00  0.00     0.044 A 
ATOM     16  F1  <0> d           1.737  -3.141  -0.767  0.00  0.00    -0.204 F 
ATOM     17  C9  <0> d           4.359  -1.364  -2.542  0.00  0.00     0.005 A 
ATOM     18  C8  <0> d           3.654  -0.282  -3.033  0.00  0.00     0.030 A 
ATOM     19  C7  <0> d           2.297  -0.159  -2.765  0.00  0.00     0.052 A 
BRANCH  19  20
ATOM     20  N2  <0> d           1.582   0.934  -3.261  0.00  0.00    -0.398 N 
ATOM     21  H16 <0> d           0.680   1.106  -2.949  0.00  0.00     0.156 HD
ATOM     22  H17 <0> d           1.988   1.522  -3.917  0.00  0.00     0.156 HD
ENDBRANCH  19  20
ENDBRANCH   1  13
TORSDOF 8
