REMARK  7 active torsions:
REMARK  status: ('A' for Active; 'I' for Inactive)
REMARK    1  A    between atoms: C2_2  and  N1_3 
REMARK    2  A    between atoms: N1_3  and  C3_4 
REMARK       I    between atoms: N1_3  and  C13_21 
REMARK    3  A    between atoms: C4_6  and  C6_9 
REMARK    4  A    between atoms: C6_9  and  C7_10 
REMARK    5  A    between atoms: N3_13  and  C10_17 
REMARK    6  A    between atoms: C10_17  and  C11_18 
REMARK    7  A    between atoms: C11_18  and  C12_19 
ROOT
ATOM      1  C7  <0> d           1.750   2.054   0.001  0.00  0.00     0.078 A 
ATOM      2  C8  <0> d           2.242   0.666  -0.010  0.00  0.00     0.266 A 
ATOM      3  O1  <0> d           3.432   0.410  -0.023  0.00  0.00    -0.266 OA
ATOM      4  N3  <0> d           1.327  -0.289  -0.005  0.00  0.00    -0.298 N 
ATOM      5  C9  <0> d           0.010  -0.002   0.010  0.00  0.00     0.148 A 
ATOM      6  S2  <0> d          -1.316  -1.086   0.020  0.00  0.00    -0.052 SA
ATOM      7  S3  <0> d          -0.017   1.783   0.018  0.00  0.00    -0.055 SA
ENDROOT
BRANCH   1   8
ATOM      8  C6  <0> d           2.448   3.221  -0.001  0.00  0.00     0.056 C 
BRANCH   8   9
ATOM      9  C4  <0> d           1.739   4.499  -0.100  0.00  0.00     0.067 A 
ATOM     10  N2  <0> d           0.405   4.541  -0.087  0.00  0.00    -0.224 NA
ATOM     11  C3  <0> d          -0.246   5.682  -0.175  0.00  0.00     0.175 A 
ATOM     12  S1  <0> d           1.091   6.862  -0.289  0.00  0.00    -0.061 SA
ATOM     13  C5  <0> d           2.439   5.692  -0.202  0.00  0.00     0.085 A 
BRANCH  11  14
ATOM     14  N1  <0> d          -1.616   5.909  -0.177  0.00  0.00    -0.297 N 
ATOM     15  C13 <0> d          -2.250   6.215   0.972  0.00  0.00     0.221 C 
ATOM     16  O3  <0> d          -3.428   6.504   0.956  0.00  0.00    -0.273 OA
ATOM     17  C14 <0> d          -1.496   6.198   2.276  0.00  0.00     0.117 C 
BRANCH  14  18
ATOM     18  C2  <0> d          -2.371   5.816  -1.429  0.00  0.00     0.130 C 
ATOM     19  C1  <0> d          -2.867   4.381  -1.620  0.00  0.00     0.027 C 
ENDBRANCH  14  18
ENDBRANCH  11  14
ENDBRANCH   8   9
ENDBRANCH   1   8
BRANCH   4  20
ATOM     20  C10 <0> d           1.755  -1.691  -0.015  0.00  0.00     0.144 C 
BRANCH  20  21
ATOM     21  C11 <0> d           1.888  -2.172  -1.462  0.00  0.00     0.133 C 
BRANCH  21  22
ATOM     22  C12 <0> d           2.328  -3.613  -1.473  0.00  0.00     0.174 C 
ATOM     23  O2  <0> d           2.515  -4.196  -0.431  0.00  0.00    -0.648 OA
ATOM     24  O4  <0> d           2.511  -4.250  -2.640  0.00  0.00    -0.648 OA
ENDBRANCH  21  22
ENDBRANCH  20  21
ENDBRANCH   4  20
TORSDOF 7
