REMARK  7 active torsions:
REMARK  status: ('A' for Active; 'I' for Inactive)
REMARK    1  A    between atoms: N1_2  and  S1_4 
REMARK    2  A    between atoms: S1_4  and  C3_7 
REMARK    3  A    between atoms: C7_11  and  C9_13 
REMARK       I    between atoms: C9_13  and  N2_15 
REMARK    4  A    between atoms: N2_15  and  N3_16 
REMARK       I    between atoms: N3_16  and  C10_17 
REMARK    5  A    between atoms: C10_17  and  C11_19 
REMARK    6  A    between atoms: C11_19  and  O5_20 
REMARK    7  A    between atoms: O5_20  and  C12_21 
ROOT
ATOM      1  C9  <0> d           2.943   6.570   0.009  0.00  0.00     0.270 C 
ATOM      2  O3  <0> d           4.072   6.120  -0.004  0.00  0.00    -0.266 OA
ATOM      3  N2  <0> d           1.885   5.734   0.015  0.00  0.00    -0.263 N 
ATOM      4  H11 <0> d           0.863   6.141   0.027  0.00  0.00     0.190 HD
ENDROOT
BRANCH   3   5
ATOM      5  N3  <0> d           2.088   4.348   0.005  0.00  0.00    -0.265 N 
ATOM      6  C10 <0> d           1.030   3.513   0.011  0.00  0.00     0.260 C 
ATOM      7  O4  <0> d          -0.097   3.961   0.024  0.00  0.00    -0.269 OA
ATOM      8  H12 <0> d           3.110   3.942  -0.006  0.00  0.00     0.190 HD
BRANCH   6   9
ATOM      9  C11 <0> d           1.248   2.021   0.001  0.00  0.00     0.280 C 
BRANCH   9  10
ATOM     10  O5  <0> d          -0.016   1.355   0.009  0.00  0.00    -0.341 OA
BRANCH  10  11
ATOM     11  C12 <0> d           0.002  -0.004   0.002  0.00  0.00     0.086 A 
ATOM     12  C17 <0> d          -1.190  -0.715   0.015  0.00  0.00     0.047 A 
ATOM     13  C16 <0> d          -1.169  -2.097   0.003  0.00  0.00     0.064 A 
ATOM     14 Br1  <0> d          -2.841   0.206   0.043  0.00  0.00    -0.048 Br
ATOM     15  C15 <0> d           0.040  -2.772  -0.012  0.00  0.00     0.117 A 
ATOM     16  C14 <0> d           1.230  -2.063  -0.020  0.00  0.00     0.045 A 
ATOM     17  F1  <0> d           0.059  -4.122  -0.020  0.00  0.00    -0.206 F 
ATOM     18  C13 <0> d           1.212  -0.682  -0.013  0.00  0.00     0.041 A 
ENDBRANCH  10  11
ENDBRANCH   9  10
ENDBRANCH   6   9
ENDBRANCH   3   5
BRANCH   1  19
ATOM     19  C7  <0> d           2.729   8.033   0.019  0.00  0.00     0.035 A 
ATOM     20  C6  <0> d           1.434   8.552   0.029  0.00  0.00     0.017 A 
ATOM     21  C5  <0> d           1.242   9.918   0.043  0.00  0.00     0.003 A 
ATOM     22  C4  <0> d           2.329  10.773   0.037  0.00  0.00     0.025 A 
ATOM     23  C3  <0> d           3.616  10.265   0.022  0.00  0.00     0.080 A 
ATOM     24  C8  <0> d           3.823   8.901   0.013  0.00  0.00     0.042 A 
BRANCH  23  25
ATOM     25  S1  <0> d           4.995  11.362   0.014  0.00  0.00     0.260 S 
ATOM     26  O1  <0> d           4.542  12.587   0.576  0.00  0.00    -0.200 OA
ATOM     27  O2  <0> d           6.093  10.638   0.551  0.00  0.00    -0.200 OA
BRANCH  25  28
ATOM     28  N1  <0> d           5.363  11.675  -1.570  0.00  0.00    -0.315 N 
ATOM     29  C1  <0> d           4.735  12.806  -2.258  0.00  0.00     0.162 C 
ATOM     30  C2  <0> d           6.315  10.821  -2.283  0.00  0.00     0.162 C 
ENDBRANCH  25  28
ENDBRANCH  23  25
ENDBRANCH   1  19
TORSDOF 7
