REMARK  2 active torsions:
REMARK  status: ('A' for Active; 'I' for Inactive)
REMARK    1  A    between atoms: C6_6  and  N1_12 
REMARK       I    between atoms: N1_12  and  C11_13 
REMARK    2  A    between atoms: C11_13  and  C12_15 
ROOT
ATOM      1  C1  <0> d          -0.013   1.086   0.008  0.00  0.00     0.046 C 
ATOM      2  C2  <0> d          -0.729   1.579   1.268  0.00  0.00     0.124 C 
ATOM      3  C3  <0> d          -2.139   0.981   1.315  0.00  0.00     0.079 C 
ATOM      4  C4  <0> d          -2.977   1.645   0.232  0.00  0.00    -0.017 A 
ATOM      5  C5  <0> d          -4.119   1.048  -0.429  0.00  0.00     0.086 A 
ATOM      6  C6  <0> d          -4.777   1.813  -1.384  0.00  0.00     0.099 A 
ATOM      7  S1  <0> d          -3.881   3.296  -1.391  0.00  0.00    -0.072 SA
ATOM      8  C7  <0> d          -2.669   2.902  -0.163  0.00  0.00     0.028 A 
ATOM      9  C8  <0> d          -1.545   3.747   0.343  0.00  0.00     0.153 C 
ATOM     10  C9  <0> d          -2.150   5.001   1.006  0.00  0.00     0.052 C 
ATOM     11  C10 <0> d          -0.675   4.210  -0.832  0.00  0.00     0.052 C 
ATOM     12  C16 <0> d          -4.564  -0.277  -0.116  0.00  0.00     0.103 C 
ATOM     13  N2  <0> d          -4.916  -1.328   0.132  0.00  0.00    -0.191 NA
ATOM     14  C17 <0> d           0.048   1.047   2.488  0.00  0.00     0.046 C 
ATOM     15  N3  <0> d          -0.717   3.061   1.374  0.00  0.00    -0.054 N 
ATOM     16  H18 <0> d           0.253   3.384   1.278  0.00  0.00     0.279 HD
ATOM     17  H19 <0> d          -1.074   3.321   2.301  0.00  0.00     0.279 HD
ENDROOT
BRANCH   6  18
ATOM     18  N1  <0> d          -5.884   1.471  -2.147  0.00  0.00    -0.315 N 
ATOM     19  C11 <0> d          -6.390   2.352  -3.032  0.00  0.00     0.263 C 
ATOM     20  O1  <0> d          -5.876   3.448  -3.163  0.00  0.00    -0.267 OA
ATOM     21  H12 <0> d          -6.293   0.598  -2.043  0.00  0.00     0.170 HD
BRANCH  19  22
ATOM     22  C12 <0> d          -7.559   1.991  -3.837  0.00  0.00     0.074 A 
ATOM     23  S2  <0> d          -8.488   0.468  -3.850  0.00  0.00    -0.072 SA
ATOM     24  C15 <0> d          -9.661   0.890  -5.055  0.00  0.00     0.075 A 
ATOM     25  C14 <0> d          -9.305   2.155  -5.406  0.00  0.00     0.033 A 
ATOM     26 Cl1  <0> d         -10.969  -0.073  -5.670  0.00  0.00    -0.076 Cl
ATOM     27  C13 <0> d          -8.227   2.741  -4.793  0.00  0.00     0.027 A 
ENDBRANCH  19  22
ENDBRANCH   6  18
TORSDOF 2
