REMARK  2 active torsions:
REMARK  status: ('A' for Active; 'I' for Inactive)
REMARK    1  A    between atoms: C2_2  and  C3_3 
REMARK    2  A    between atoms: C2_2  and  N2_6 
ROOT
ATOM      1  N2  <0> d           0.711  -0.489   1.189  0.00  0.00    -0.277 N 
ATOM      2  C4  <0> d           1.990  -0.128   1.367  0.00  0.00     0.227 C 
ATOM      3  O1  <0> d           2.523   0.595   0.553  0.00  0.00    -0.273 OA
ATOM      4  C5  <0> d           2.777  -0.604   2.560  0.00  0.00     0.113 C 
ATOM      5  C6  <0> d           1.821  -0.841   3.732  0.00  0.00    -0.024 C 
ATOM      6  C7  <0> d           1.183   0.484   4.149  0.00  0.00     0.010 C 
ATOM      7  C8  <0> d           0.225   0.245   5.318  0.00  0.00     0.001 C 
ATOM      8  C9  <0> d           0.999  -0.346   6.499  0.00  0.00     0.000 C 
ATOM      9  C10 <0> d           1.633  -1.674   6.080  0.00  0.00     0.001 C 
ATOM     10  C11 <0> d           2.591  -1.435   4.911  0.00  0.00     0.010 C 
ATOM     11  C12 <0> d           0.729  -1.818   3.286  0.00  0.00     0.113 C 
ATOM     12  C13 <0> d           0.052  -1.272   2.056  0.00  0.00     0.227 C 
ATOM     13  O2  <0> d          -1.109  -1.550   1.844  0.00  0.00    -0.273 OA
ENDROOT
BRANCH   1  14
ATOM     14  C2  <0> d           0.002  -0.004   0.002  0.00  0.00     0.152 C 
ATOM     15  C1  <0> d          -0.019   1.526   0.010  0.00  0.00     0.040 C 
BRANCH  14  16
ATOM     16  C3  <0> d           0.707  -0.490  -1.238  0.00  0.00     0.094 C 
ATOM     17  S1  <0> d           2.086  -1.290  -1.112  0.00  0.00    -0.064 SA
ATOM     18  N1  <0> d           0.176  -0.250  -2.453  0.00  0.00    -0.392 N 
ATOM     19  H5  <0> d          -0.660   0.235  -2.530  0.00  0.00     0.156 HD
ATOM     20  H6  <0> d           0.630  -0.563  -3.251  0.00  0.00     0.156 HD
ENDBRANCH  14  16
ENDBRANCH   1  14
TORSDOF 2
