REMARK  5 active torsions:
REMARK  status: ('A' for Active; 'I' for Inactive)
REMARK    1  A    between atoms: C4_4  and  C7_7 
REMARK    2  A    between atoms: C9_9  and  C10_13 
REMARK       I    between atoms: C10_13  and  N3_15 
REMARK    3  A    between atoms: N3_15  and  N4_16 
REMARK       I    between atoms: N4_16  and  C11_17 
REMARK    4  A    between atoms: C11_17  and  C12_19 
REMARK    5  A    between atoms: C13_20  and  C14_21 
ROOT
ATOM      1  C10 <0> d           5.945  -3.575  -0.084  0.00  0.00     0.288 C 
ATOM      2  O1  <0> d           5.311  -4.613  -0.088  0.00  0.00    -0.264 OA
ATOM      3  N3  <0> d           7.292  -3.608  -0.096  0.00  0.00    -0.262 N 
ATOM      4  H8  <0> d           7.798  -2.780  -0.093  0.00  0.00     0.190 HD
ENDROOT
BRANCH   3   5
ATOM      5  N4  <0> d           7.962  -4.838  -0.113  0.00  0.00    -0.264 N 
ATOM      6  C11 <0> d           9.309  -4.872  -0.124  0.00  0.00     0.259 C 
ATOM      7  O2  <0> d           9.944  -3.833  -0.120  0.00  0.00    -0.267 OA
ATOM      8  H9  <0> d           7.457  -5.666  -0.116  0.00  0.00     0.190 HD
BRANCH   6   9
ATOM      9  C12 <0> d          10.011  -6.160  -0.142  0.00  0.00     0.078 C 
ATOM     10  C13 <0> d          11.357  -6.194  -0.153  0.00  0.00     0.037 C 
BRANCH  10  11
ATOM     11  C14 <0> d          12.062  -7.488  -0.171  0.00  0.00     0.057 A 
ATOM     12  N5  <0> d          11.359  -8.607  -0.175  0.00  0.00    -0.248 NA
ATOM     13  C22 <0> d          11.956  -9.799  -0.197  0.00  0.00     0.067 A 
ATOM     14  C17 <0> d          13.373  -9.883  -0.204  0.00  0.00    -0.007 A 
ATOM     15  C21 <0> d          11.201 -10.987  -0.207  0.00  0.00     0.032 A 
ATOM     16  C16 <0> d          14.132  -8.696  -0.193  0.00  0.00     0.016 A 
ATOM     17  C18 <0> d          13.992 -11.143  -0.220  0.00  0.00     0.014 A 
ATOM     18  C15 <0> d          13.469  -7.505  -0.177  0.00  0.00     0.032 A 
ATOM     19  C19 <0> d          13.227 -12.269  -0.229  0.00  0.00     0.001 A 
ATOM     20  C20 <0> d          11.835 -12.190  -0.223  0.00  0.00     0.002 A 
ENDBRANCH  10  11
ENDBRANCH   6   9
ENDBRANCH   3   5
BRANCH   1  21
ATOM     21  C9  <0> d           5.241  -2.282  -0.067  0.00  0.00     0.121 A 
ATOM     22  C8  <0> d           3.873  -2.085  -0.053  0.00  0.00     0.071 A 
ATOM     23  C7  <0> d           3.699  -0.689  -0.038  0.00  0.00     0.089 A 
ATOM     24  N2  <0> d           4.895  -0.140  -0.048  0.00  0.00    -0.174 NA
ATOM     25  N1  <0> d           5.811  -1.040  -0.059  0.00  0.00    -0.272 N 
ATOM     26  H1  <0> d           6.765  -0.865  -0.066  0.00  0.00     0.189 HD
BRANCH  23  27
ATOM     27  C4  <0> d           2.402   0.033  -0.021  0.00  0.00    -0.006 A 
ATOM     28  C3  <0> d           2.377   1.425  -0.013  0.00  0.00     0.014 A 
ATOM     29  C2  <0> d           1.169   2.092   0.002  0.00  0.00     0.001 A 
ATOM     30  C1  <0> d          -0.017   1.379   0.010  0.00  0.00     0.000 A 
ATOM     31  C6  <0> d           0.002  -0.004   0.002  0.00  0.00     0.001 A 
ATOM     32  C5  <0> d           1.205  -0.680  -0.013  0.00  0.00     0.014 A 
ENDBRANCH  23  27
ENDBRANCH   1  21
TORSDOF 5
