REMARK  4 active torsions:
REMARK  status: ('A' for Active; 'I' for Inactive)
REMARK    1  A    between atoms: C4_4  and  N1_7 
REMARK    2  A    between atoms: C7_8  and  N4_27 
REMARK    3  A    between atoms: C8_9  and  C16_20 
REMARK    4  A    between atoms: C10_12  and  C11_14 
ROOT
ATOM      1  N1  <0> d           0.337   5.557  -0.814  0.00  0.00    -0.216 N 
ATOM      2  C7  <0> d           1.105   6.337  -0.007  0.00  0.00     0.138 A 
ATOM      3  C8  <0> d           2.022   5.759   0.864  0.00  0.00     0.074 A 
ATOM      4  C9  <0> d           2.140   4.350   0.893  0.00  0.00     0.219 A 
ATOM      5  O1  <0> d           2.935   3.805   1.646  0.00  0.00    -0.285 OA
ATOM      6  C10 <0> d           1.287   3.555   0.000  0.00  0.00     0.157 A 
ATOM      7  N2  <0> d           0.445   4.164  -0.802  0.00  0.00    -0.159 NA
ENDROOT
BRANCH   3   8
ATOM      8  C16 <0> d           2.860   6.604   1.746  0.00  0.00     0.004 A 
ATOM      9  C21 <0> d           2.409   6.950   3.020  0.00  0.00     0.045 A 
ATOM     10  C20 <0> d           3.195   7.739   3.837  0.00  0.00     0.024 A 
ATOM     11 Cl1  <0> d           0.862   6.391   3.577  0.00  0.00    -0.083 Cl
ATOM     12  C19 <0> d           4.427   8.184   3.394  0.00  0.00     0.002 A 
ATOM     13  C18 <0> d           4.880   7.844   2.132  0.00  0.00     0.001 A 
ATOM     14  C17 <0> d           4.106   7.052   1.308  0.00  0.00     0.014 A 
ENDBRANCH   3   8
BRANCH   2  15
ATOM     15  N4  <0> d           0.974   7.704  -0.051  0.00  0.00    -0.383 N 
ATOM     16  H14 <0> d           1.593   8.338   0.600  0.00  0.00     0.157 HD
ATOM     17  H15 <0> d           0.249   8.165  -0.739  0.00  0.00     0.157 HD
ENDBRANCH   2  15
BRANCH   1  18
ATOM     18  C4  <0> d          -0.578   6.165  -1.680  0.00  0.00     0.060 A 
ATOM     19  C3  <0> d          -0.199   7.271  -2.430  0.00  0.00     0.031 A 
ATOM     20  C2  <0> d          -1.105   7.868  -3.284  0.00  0.00     0.002 A 
ATOM     21  C1  <0> d          -2.389   7.366  -3.393  0.00  0.00     0.000 A 
ATOM     22  C6  <0> d          -2.770   6.265  -2.648  0.00  0.00     0.002 A 
ATOM     23  C5  <0> d          -1.867   5.659  -1.797  0.00  0.00     0.031 A 
ENDBRANCH   1  18
BRANCH   6  24
ATOM     24  C11 <0> d           1.381   2.076  -0.000  0.00  0.00     0.091 A 
ATOM     25  N3  <0> d           2.505   1.488   0.388  0.00  0.00    -0.259 NA
ATOM     26  C15 <0> d           2.628   0.176   0.402  0.00  0.00     0.117 A 
ATOM     27  C14 <0> d           1.584  -0.640   0.010  0.00  0.00     0.019 A 
ATOM     28  C13 <0> d           0.390  -0.065  -0.404  0.00  0.00     0.004 A 
ATOM     29  C12 <0> d           0.287   1.315  -0.409  0.00  0.00     0.034 A 
ENDBRANCH   6  24
TORSDOF 4
