REMARK  7 active torsions:
REMARK  status: ('A' for Active; 'I' for Inactive)
REMARK    1  A    between atoms: C2_2  and  C3_3 
REMARK    2  A    between atoms: C10_10  and  C12_15 
REMARK    3  A    between atoms: C12_15  and  C13_16 
REMARK    4  A    between atoms: C12_15  and  N6_34 
REMARK    5  A    between atoms: N5_20  and  C14_21 
REMARK    6  A    between atoms: C14_21  and  C15_22 
REMARK    7  A    between atoms: C21_29  and  O3_32 
ROOT
ATOM      1  C12 <0> d           2.849   4.724   1.887  0.00  0.00     0.299 C 
ENDROOT
BRANCH   1   2
ATOM      2  C10 <0> d           2.958   3.852   3.111  0.00  0.00     0.049 A 
ATOM      3  C9  <0> d           3.605   2.663   3.037  0.00  0.00     0.029 A 
ATOM      4  C7  <0> d           3.697   1.841   4.245  0.00  0.00    -0.008 A 
ATOM      5  C6  <0> d           3.104   2.306   5.434  0.00  0.00     0.045 A 
ATOM      6  C8  <0> d           4.356   0.607   4.233  0.00  0.00     0.021 A 
ATOM      7  C5  <0> d           3.182   1.530   6.586  0.00  0.00     0.031 A 
ATOM      8  N1  <0> d           2.455   3.522   5.441  0.00  0.00    -0.322 N 
ATOM      9  C4  <0> d           3.836   0.317   6.550  0.00  0.00     0.009 A 
ATOM     10  C3  <0> d           4.420  -0.139   5.376  0.00  0.00    -0.058 A 
ATOM     11  C11 <0> d           2.380   4.272   4.328  0.00  0.00     0.254 A 
ATOM     12  H1  <0> d           2.034   3.852   6.286  0.00  0.00     0.169 HD
ATOM     13  O1  <0> d           1.798   5.343   4.370  0.00  0.00    -0.268 OA
BRANCH  10  14
ATOM     14  C2  <0> d           5.130  -1.468   5.362  0.00  0.00     0.034 C 
ATOM     15  C1  <0> d           6.604  -1.262   5.716  0.00  0.00     0.010 C 
ENDBRANCH  10  14
ENDBRANCH   1   2
BRANCH   1  16
ATOM     16  C13 <0> d           1.403   4.835   1.476  0.00  0.00     0.183 A 
ATOM     17  N5  <0> d           0.814   4.218   0.434  0.00  0.00    -0.230 N 
ATOM     18  N4  <0> d          -0.424   4.581   0.428  0.00  0.00    -0.044 NA
ATOM     19  N3  <0> d          -0.626   5.381   1.416  0.00  0.00    -0.023 NA
ATOM     20  N2  <0> d           0.475   5.550   2.063  0.00  0.00    -0.111 NA
BRANCH  17  21
ATOM     21  C14 <0> d           1.459   3.310  -0.517  0.00  0.00     0.186 C 
BRANCH  21  22
ATOM     22  C15 <0> d           1.358   1.873  -0.001  0.00  0.00     0.141 C 
ATOM     23  O2  <0> d          -0.017   1.433   0.010  0.00  0.00    -0.384 OA
ATOM     24  C18 <0> d           0.002  -0.004   0.002  0.00  0.00     0.168 C 
ATOM     25  C17 <0> d           1.318  -0.441  -0.670  0.00  0.00     0.029 C 
ATOM     26  C16 <0> d           2.044   0.890  -0.983  0.00  0.00     0.036 C 
ENDBRANCH  21  22
ENDBRANCH  17  21
ENDBRANCH   1  16
BRANCH   1  27
ATOM     27  N6  <0> d           3.356   6.073   2.210  0.00  0.00    -0.055 N 
ATOM     28  C19 <0> d           4.708   5.976   2.801  0.00  0.00     0.238 C 
ATOM     29  C20 <0> d           5.162   7.372   3.235  0.00  0.00     0.059 C 
ATOM     30  C21 <0> d           5.198   8.294   2.014  0.00  0.00     0.121 C 
ATOM     31  C22 <0> d           3.810   8.328   1.368  0.00  0.00     0.059 C 
ATOM     32  C23 <0> d           3.395   6.904   0.988  0.00  0.00     0.238 C 
ATOM     33  H31 <0> d           2.726   6.512   2.891  0.00  0.00     0.281 HD
BRANCH  30  34
ATOM     34  O3  <0> d           5.566   9.613   2.422  0.00  0.00    -0.395 OA
ATOM     35  H30 <0> d           6.436   9.667   2.841  0.00  0.00     0.210 HD
ENDBRANCH  30  34
ENDBRANCH   1  27
TORSDOF 7
