REMARK  4 active torsions:
REMARK  status: ('A' for Active; 'I' for Inactive)
REMARK    1  A    between atoms: C9_10  and  C10_12 
REMARK    2  A    between atoms: C10_12  and  C11_14 
REMARK    3  A    between atoms: C11_14  and  S1_15 
REMARK    4  A    between atoms: S1_15  and  C12_16 
ROOT
ATOM      1  C10 <0> d          -2.884   1.605  -0.119  0.00  0.00     0.171 C 
ATOM      2  O1  <0> d          -4.084   1.725  -0.255  0.00  0.00    -0.291 OA
ENDROOT
BRANCH   1   3
ATOM      3  C9  <0> d          -2.022   1.797  -1.228  0.00  0.00     0.045 A 
ATOM      4  C2  <0> d          -1.368   2.959  -1.576  0.00  0.00     0.020 A 
ATOM      5  C1  <0> d          -1.453   4.263  -0.824  0.00  0.00     0.069 C 
ATOM      6  N1  <0> d          -0.637   2.751  -2.688  0.00  0.00    -0.358 N 
ATOM      7  C3  <0> d          -0.777   1.450  -3.127  0.00  0.00     0.043 A 
ATOM      8  H1  <0> d          -0.087   3.422  -3.120  0.00  0.00     0.166 HD
ATOM      9  C8  <0> d          -1.648   0.794  -2.244  0.00  0.00     0.006 A 
ATOM     10  C4  <0> d          -0.244   0.749  -4.205  0.00  0.00     0.030 A 
ATOM     11  C7  <0> d          -1.973  -0.544  -2.447  0.00  0.00     0.015 A 
ATOM     12  C6  <0> d          -1.435  -1.222  -3.520  0.00  0.00     0.001 A 
ATOM     13  C5  <0> d          -0.574  -0.575  -4.394  0.00  0.00     0.002 A 
ENDBRANCH   1   3
BRANCH   1  14
ATOM     14  C11 <0> d          -2.310   1.251   1.229  0.00  0.00     0.161 C 
BRANCH  14  15
ATOM     15  S1  <0> d          -3.661   0.920   2.393  0.00  0.00    -0.115 SA
BRANCH  15  16
ATOM     16  C12 <0> d          -2.813   0.515   3.945  0.00  0.00     0.247 A 
ATOM     17  N3  <0> d          -1.952  -0.659   3.758  0.00  0.00    -0.359 N 
ATOM     18  C18 <0> d          -0.729  -0.291   4.008  0.00  0.00     0.057 A 
ATOM     19  H17 <0> d          -2.242  -1.547   3.495  0.00  0.00     0.162 HD
ATOM     20  C13 <0> d          -0.714   1.151   4.376  0.00  0.00     0.057 A 
ATOM     21  C17 <0> d           0.553  -1.008   3.992  0.00  0.00     0.031 A 
ATOM     22  N2  <0> d          -1.928   1.619   4.339  0.00  0.00    -0.359 N 
ATOM     23  C14 <0> d           0.583   1.763   4.698  0.00  0.00     0.031 A 
ATOM     24  H16 <0> d          -2.199   2.529   4.535  0.00  0.00     0.162 HD
ATOM     25  C15 <0> d           1.702   1.013   4.651  0.00  0.00     0.002 A 
ATOM     26  C16 <0> d           1.687  -0.350   4.304  0.00  0.00     0.002 A 
ENDBRANCH  15  16
ENDBRANCH  14  15
ENDBRANCH   1  14
TORSDOF 4
