REMARK  5 active torsions:
REMARK  status: ('A' for Active; 'I' for Inactive)
REMARK    1  A    between atoms: C2_2  and  C3_3 
REMARK    2  A    between atoms: C3_3  and  N1_4 
REMARK       I    between atoms: N1_4  and  C4_5 
REMARK    3  A    between atoms: C4_5  and  C5_7 
REMARK    4  A    between atoms: N3_13  and  C10_14 
REMARK    5  A    between atoms: C10_14  and  C11_15 
ROOT
ATOM      1  C5  <0> d           2.513  -3.421   2.380  0.00  0.00     0.170 A 
ATOM      2  C6  <0> d           1.324  -4.332   2.142  0.00  0.00     0.016 A 
ATOM      3  C7  <0> d           1.576  -5.636   1.922  0.00  0.00     0.076 A 
ATOM      4  C8  <0> d           2.963  -6.154   1.914  0.00  0.00     0.146 A 
ATOM      5  N2  <0> d           4.006  -5.361   2.122  0.00  0.00    -0.328 N 
ATOM      6  C9  <0> d           3.887  -4.053   2.350  0.00  0.00     0.117 A 
ATOM      7  N3  <0> d           4.949  -3.322   2.546  0.00  0.00    -0.273 NA
ATOM      8  N4  <0> d           3.141  -7.457   1.690  0.00  0.00    -0.212 NA
ATOM      9  C15 <0> d           2.128  -8.294   1.477  0.00  0.00     0.139 A 
ATOM     10  C16 <0> d           2.431  -9.652   1.251  0.00  0.00     0.051 A 
ATOM     11  C17 <0> d           1.425 -10.543   1.029  0.00  0.00     0.005 A 
ATOM     12  C18 <0> d           0.095 -10.100   1.026  0.00  0.00     0.018 A 
ATOM     13  C19 <0> d          -0.181  -8.795   1.244  0.00  0.00     0.102 A 
ATOM     14  N5  <0> d           0.820  -7.894   1.469  0.00  0.00    -0.273 N 
ATOM     15  C20 <0> d           0.485  -6.599   1.681  0.00  0.00     0.267 A 
ATOM     16  O3  <0> d          -0.677  -6.242   1.673  0.00  0.00    -0.267 OA
ATOM     17  H22 <0> d           4.895  -5.751   2.107  0.00  0.00     0.169 HD
ENDROOT
BRANCH   1  18
ATOM     18  C4  <0> d           2.480  -2.336   1.335  0.00  0.00     0.233 C 
ATOM     19  N1  <0> d           1.387  -1.558   1.205  0.00  0.00    -0.357 N 
ATOM     20  H8  <0> d           0.621  -1.698   1.784  0.00  0.00     0.162 HD
ATOM     21  O1  <0> d           3.438  -2.161   0.612  0.00  0.00    -0.272 OA
BRANCH  19  22
ATOM     22  C3  <0> d           1.355  -0.502   0.190  0.00  0.00     0.149 C 
BRANCH  22  23
ATOM     23  C2  <0> d           0.031   0.214   0.252  0.00  0.00    -0.018 C 
ATOM     24  C1  <0> d          -0.003   1.515   0.405  0.00  0.00     0.008 C 
ENDBRANCH  22  23
ENDBRANCH  19  22
ENDBRANCH   1  18
BRANCH   7  25
ATOM     25  C10 <0> d           6.264  -3.958   2.661  0.00  0.00     0.182 C 
BRANCH  25  26
ATOM     26  C11 <0> d           7.138  -3.538   1.477  0.00  0.00     0.141 C 
ATOM     27  O2  <0> d           7.426  -2.137   1.559  0.00  0.00    -0.384 OA
ATOM     28  C14 <0> d           8.844  -1.936   1.696  0.00  0.00     0.168 C 
ATOM     29  C13 <0> d           9.493  -3.202   1.082  0.00  0.00     0.029 C 
ATOM     30  C12 <0> d           8.483  -4.295   1.524  0.00  0.00     0.036 C 
ENDBRANCH  25  26
ENDBRANCH   7  25
TORSDOF 5
