REMARK  3 active torsions:
REMARK  status: ('A' for Active; 'I' for Inactive)
REMARK    1  A    between atoms: C5_5  and  S2_7 
REMARK    2  A    between atoms: S2_7  and  N1_10 
REMARK    3  A    between atoms: N1_10  and  C6_11 
ROOT
ATOM      1  C6  <0> d           1.895  -2.497   2.373  0.00  0.00     0.043 A 
ATOM      2  C7  <0> d           0.901  -3.350   1.903  0.00  0.00     0.033 A 
ATOM      3  C8  <0> d          -0.164  -3.696   2.712  0.00  0.00     0.040 A 
ATOM      4  C9  <0> d          -0.247  -3.194   4.000  0.00  0.00     0.085 A 
ATOM      5  C10 <0> d           0.750  -2.330   4.478  0.00  0.00     0.067 A 
ATOM      6  C11 <0> d           1.826  -1.989   3.660  0.00  0.00     0.050 A 
ATOM      7  C12 <0> d           0.639  -1.798   5.850  0.00  0.00     0.254 C 
ATOM      8  O3  <0> d           0.791  -0.612   6.068  0.00  0.00    -0.268 OA
ATOM      9  N2  <0> d           0.363  -2.656   6.862  0.00  0.00    -0.354 N 
ATOM     10  C13 <0> d           0.290  -4.093   6.591  0.00  0.00     0.155 C 
ATOM     11  C14 <0> d          -1.005  -4.442   5.870  0.00  0.00     0.142 C 
ATOM     12  O4  <0> d          -1.280  -3.530   4.814  0.00  0.00    -0.344 OA
ATOM     13  C15 <0> d          -2.160  -4.404   6.873  0.00  0.00     0.042 C 
ATOM     14  H11 <0> d           0.215  -2.320   7.760  0.00  0.00     0.162 HD
ENDROOT
BRANCH   1  15
ATOM     15  N1  <0> d           2.970  -2.156   1.545  0.00  0.00    -0.280 N 
ATOM     16  H7  <0> d           3.875  -2.168   1.895  0.00  0.00     0.179 HD
BRANCH  15  17
ATOM     17  S2  <0> d           2.699  -1.731  -0.033  0.00  0.00     0.269 S 
ATOM     18  O1  <0> d           1.847  -2.728  -0.581  0.00  0.00    -0.200 OA
ATOM     19  O2  <0> d           3.966  -1.419  -0.593  0.00  0.00    -0.200 OA
BRANCH  17  20
ATOM     20  C5  <0> d           1.773  -0.232  -0.016  0.00  0.00     0.120 A 
ATOM     21  C4  <0> d           2.220   1.048  -0.013  0.00  0.00     0.034 A 
ATOM     22  C3  <0> d           1.300   2.079   0.001  0.00  0.00     0.016 A 
ATOM     23  C2  <0> d          -0.022   1.781   0.012  0.00  0.00    -0.020 A 
ATOM     24  C1  <0> d          -1.206   2.714   0.023  0.00  0.00     0.056 C 
ATOM     25  S1  <0> d           0.002  -0.004   0.002  0.00  0.00    -0.082 SA
ENDBRANCH  17  20
ENDBRANCH  15  17
ENDBRANCH   1  15
TORSDOF 3
