REMARK  7 active torsions:
REMARK  status: ('A' for Active; 'I' for Inactive)
REMARK    1  A    between atoms: C2_2  and  O1_3 
REMARK    2  A    between atoms: O1_3  and  C3_4 
REMARK    3  A    between atoms: C6_7  and  N1_10 
REMARK    4  A    between atoms: N4_16  and  C14_21 
REMARK    5  A    between atoms: C12_17  and  O2_18 
REMARK    6  A    between atoms: C14_21  and  C15_22 
REMARK    7  A    between atoms: C19_26  and  N5_28 
ROOT
ATOM      1  N1  <0> d           2.267   6.831  -4.012  0.00  0.00    -0.178 N 
ATOM      2  C9  <0> d           1.849   7.304  -5.335  0.00  0.00     0.169 A 
ATOM      3  C10 <0> d           0.313   7.272  -5.292  0.00  0.00     0.172 A 
ATOM      4  N2  <0> d          -0.013   6.782  -3.944  0.00  0.00    -0.139 N 
ATOM      5  C11 <0> d           1.144   6.544  -3.251  0.00  0.00     0.729 A 
ATOM      6  N3  <0> d           1.108   6.103  -2.014  0.00  0.00     0.022 NA
ATOM      7  N4  <0> d          -0.089   5.844  -1.346  0.00  0.00    -0.224 N 
ATOM      8  C12 <0> d          -1.266   6.058  -1.974  0.00  0.00     0.230 A 
ATOM      9  C13 <0> d          -1.219   6.563  -3.373  0.00  0.00     0.314 A 
ATOM     10  O3  <0> d          -2.245   6.775  -3.990  0.00  0.00    -0.263 OA
ENDROOT
BRANCH   7  11
ATOM     11  C14 <0> d          -0.070   5.347   0.032  0.00  0.00     0.193 C 
BRANCH  11  12
ATOM     12  C15 <0> d          -0.050   3.840   0.023  0.00  0.00    -0.036 A 
ATOM     13  C20 <0> d          -1.238   3.133   0.029  0.00  0.00     0.045 A 
ATOM     14  C19 <0> d          -1.219   1.750   0.017  0.00  0.00     0.103 A 
ATOM     15  C18 <0> d          -0.013   1.076   0.008  0.00  0.00     0.036 A 
ATOM     16  C17 <0> d           1.175   1.783   0.000  0.00  0.00     0.003 A 
ATOM     17  C16 <0> d           1.157   3.165   0.008  0.00  0.00     0.009 A 
BRANCH  14  18
ATOM     18  N5  <0> d          -2.490   0.993   0.019  0.00  0.00    -0.116 N 
ATOM     19  O4  <0> d          -2.474  -0.225   0.013  0.00  0.00    -0.532 OA
ATOM     20  O5  <0> d          -3.554   1.588   0.028  0.00  0.00    -0.532 OA
ENDBRANCH  14  18
ENDBRANCH  11  12
ENDBRANCH   7  11
BRANCH   8  21
ATOM     21  O2  <0> d          -2.326   5.846  -1.416  0.00  0.00    -0.341 OA
ATOM     22  H20 <0> d          -3.273   6.027  -1.946  0.00  0.00     0.219 HD
ENDBRANCH   8  21
BRANCH   1  23
ATOM     23  C6  <0> d           3.592   6.691  -3.584  0.00  0.00     0.052 A 
ATOM     24  C5  <0> d           3.863   6.231  -2.302  0.00  0.00     0.033 A 
ATOM     25  C4  <0> d           5.171   6.093  -1.880  0.00  0.00     0.039 A 
ATOM     26  C3  <0> d           6.214   6.414  -2.737  0.00  0.00     0.068 A 
ATOM     27  C8  <0> d           5.944   6.873  -4.018  0.00  0.00     0.039 A 
ATOM     28  C7  <0> d           4.637   7.006  -4.443  0.00  0.00     0.033 A 
BRANCH  26  29
ATOM     29  O1  <0> d           7.501   6.278  -2.321  0.00  0.00    -0.352 OA
BRANCH  29  30
ATOM     30  C2  <0> d           8.525   6.627  -3.255  0.00  0.00     0.171 C 
ATOM     31  C1  <0> d           9.897   6.410  -2.613  0.00  0.00     0.034 C 
ENDBRANCH  29  30
ENDBRANCH  26  29
ENDBRANCH   1  23
TORSDOF 7
