REMARK  5 active torsions:
REMARK  status: ('A' for Active; 'I' for Inactive)
REMARK    1  A    between atoms: C3_3  and  C11_19 
REMARK    2  A    between atoms: C4_5  and  N2_7 
REMARK       I    between atoms: N2_7  and  C5_8 
REMARK    3  A    between atoms: C5_8  and  C6_10 
REMARK    4  A    between atoms: C8_14  and  C9_15 
REMARK    5  A    between atoms: C11_19  and  O3_21 
ROOT
ATOM      1  N2  <0> d           0.053  -2.888   2.172  0.00  0.00    -0.301 N 
ATOM      2  C5  <0> d           0.070  -4.220   1.965  0.00  0.00     0.261 C 
ATOM      3  O1  <0> d           0.071  -4.658   0.831  0.00  0.00    -0.267 OA
ATOM      4  H4  <0> d           0.052  -2.538   3.077  0.00  0.00     0.171 HD
ENDROOT
BRANCH   1   5
ATOM      5  C4  <0> d           0.036  -2.021   1.096  0.00  0.00     0.174 A 
ATOM      6  S1  <0> d           0.033  -2.398  -0.544  0.00  0.00    -0.044 SA
ATOM      7  C3  <0> d           0.006  -0.730  -1.182  0.00  0.00     0.107 A 
ATOM      8  C2  <0> d           0.002  -0.004   0.002  0.00  0.00     0.057 A 
ATOM      9  C1  <0> d          -0.018   1.503   0.010  0.00  0.00     0.072 C 
ATOM     10  N1  <0> d           0.022  -0.700   1.110  0.00  0.00    -0.228 NA
BRANCH   7  11
ATOM     11  C11 <0> d          -0.008  -0.260  -2.565  0.00  0.00     0.302 C 
ATOM     12  O2  <0> d          -0.026   0.934  -2.802  0.00  0.00    -0.259 OA
BRANCH  11  13
ATOM     13  O3  <0> d          -0.001  -1.149  -3.580  0.00  0.00    -0.322 OA
ATOM     14  C12 <0> d          -0.015  -0.618  -4.907  0.00  0.00     0.213 C 
ENDBRANCH  11  13
ENDBRANCH   7  11
ENDBRANCH   1   5
BRANCH   2  15
ATOM     15  C6  <0> d           0.088  -5.144   3.113  0.00  0.00     0.081 A 
ATOM     16  C8  <0> d           0.107  -6.523   3.055  0.00  0.00     0.111 A 
ATOM     17  N4  <0> d           0.121  -6.978   4.318  0.00  0.00    -0.272 N 
ATOM     18  N3  <0> d           0.103  -5.881   5.186  0.00  0.00    -0.184 NA
ATOM     19  C10 <0> d           0.147  -8.387   4.720  0.00  0.00     0.180 C 
ATOM     20  C7  <0> d           0.083  -4.784   4.480  0.00  0.00     0.158 A 
BRANCH  16  21
ATOM     21  C9  <0> d           0.112  -7.363   1.804  0.00  0.00     0.405 C 
ATOM     22  F1  <0> d          -0.529  -8.580   2.056  0.00  0.00    -0.207 F 
ATOM     23  F2  <0> d          -0.561  -6.684   0.783  0.00  0.00    -0.207 F 
ENDBRANCH  16  21
ENDBRANCH   2  15
TORSDOF 5
