REMARK  9 active torsions:
REMARK  status: ('A' for Active; 'I' for Inactive)
REMARK    1  A    between atoms: C2_2  and  N1_3 
REMARK    2  A    between atoms: N1_3  and  C3_4 
REMARK    3  A    between atoms: N1_3  and  C5_6 
REMARK    4  A    between atoms: C5_6  and  C6_7 
REMARK    5  A    between atoms: C6_7  and  N2_8 
REMARK       I    between atoms: N2_8  and  C7_9 
REMARK    6  A    between atoms: C7_9  and  C8_11 
REMARK       I    between atoms: N3_13  and  C16_21 
REMARK    7  A    between atoms: C16_21  and  C17_23 
REMARK    8  A    between atoms: C22_28  and  O3_29 
REMARK    9  A    between atoms: O3_29  and  C23_30 
ROOT
ATOM      1  C8  <0> d           2.071  -6.748  -3.643  0.00  0.00     0.106 C 
ATOM      2  C9  <0> d           0.631  -7.261  -3.865  0.00  0.00     0.141 C 
ATOM      3  N3  <0> d           0.520  -7.445  -5.331  0.00  0.00    -0.346 N 
ATOM      4  C10 <0> d           1.834  -8.002  -5.733  0.00  0.00     0.136 C 
ATOM      5  C11 <0> d           2.858  -7.239  -4.869  0.00  0.00    -0.007 C 
ATOM      6  C12 <0> d           3.984  -8.173  -4.435  0.00  0.00     0.039 C 
ATOM      7  C13 <0> d           4.788  -8.602  -5.665  0.00  0.00     0.233 C 
ATOM      8  N4  <0> d           5.340  -7.415  -6.330  0.00  0.00    -0.075 N 
ATOM      9  C14 <0> d           4.250  -6.567  -6.827  0.00  0.00     0.233 C 
ATOM     10  C15 <0> d           3.422  -6.053  -5.645  0.00  0.00     0.039 C 
ATOM     11  C16 <0> d          -0.536  -7.169  -6.121  0.00  0.00     0.256 C 
ATOM     12  O2  <0> d          -1.519  -6.626  -5.654  0.00  0.00    -0.267 OA
ATOM     13  H25 <0> d           5.898  -6.892  -5.672  0.00  0.00     0.277 HD
ATOM     14  H39 <0> d           5.919  -7.704  -7.104  0.00  0.00     0.277 HD
ENDROOT
BRANCH   1  15
ATOM     15  C7  <0> d           2.087  -5.242  -3.578  0.00  0.00     0.224 C 
ATOM     16  N2  <0> d           3.117  -4.604  -2.987  0.00  0.00    -0.359 N 
ATOM     17  H16 <0> d           3.847  -5.114  -2.603  0.00  0.00     0.162 HD
ATOM     18  O1  <0> d           1.173  -4.605  -4.058  0.00  0.00    -0.273 OA
BRANCH  16  19
ATOM     19  C6  <0> d           3.132  -3.140  -2.924  0.00  0.00     0.150 C 
BRANCH  19  20
ATOM     20  C5  <0> d           4.401  -2.675  -2.207  0.00  0.00     0.254 C 
BRANCH  20  21
ATOM     21  N1  <0> d           4.479  -1.208  -2.252  0.00  0.00    -0.070 N 
ATOM     22  H40 <0> d           4.433  -0.899  -3.212  0.00  0.00     0.279 HD
BRANCH  21  23
ATOM     23  C2  <0> d           3.356  -0.635  -1.499  0.00  0.00     0.230 C 
ATOM     24  C1  <0> d           3.365   0.888  -1.649  0.00  0.00     0.034 C 
ENDBRANCH  21  23
BRANCH  21  25
ATOM     25  C3  <0> d           5.746  -0.766  -1.655  0.00  0.00     0.230 C 
ATOM     26  C4  <0> d           6.914  -1.270  -2.505  0.00  0.00     0.034 C 
ENDBRANCH  21  25
ENDBRANCH  20  21
ENDBRANCH  19  20
ENDBRANCH  16  19
ENDBRANCH   1  15
BRANCH  11  27
ATOM     27  C17 <0> d          -0.501  -7.526  -7.552  0.00  0.00     0.065 A 
ATOM     28  C22 <0> d          -1.128  -6.705  -8.499  0.00  0.00     0.084 A 
ATOM     29  C21 <0> d          -1.084  -7.049  -9.842  0.00  0.00     0.038 A 
ATOM     30  C20 <0> d          -0.434  -8.199 -10.242  0.00  0.00     0.003 A 
ATOM     31  C19 <0> d           0.182  -9.016  -9.308  0.00  0.00     0.001 A 
ATOM     32  C18 <0> d           0.153  -8.688  -7.970  0.00  0.00     0.020 A 
BRANCH  28  33
ATOM     33  O3  <0> d          -1.771  -5.578  -8.104  0.00  0.00    -0.350 OA
BRANCH  33  34
ATOM     34  C23 <0> d          -2.387  -4.791  -9.126  0.00  0.00     0.171 C 
ATOM     35  C24 <0> d          -3.057  -3.569  -8.494  0.00  0.00     0.034 C 
ENDBRANCH  33  34
ENDBRANCH  28  33
ENDBRANCH  11  27
TORSDOF 9
