REMARK  5 active torsions:
REMARK  status: ('A' for Active; 'I' for Inactive)
REMARK    1  A    between atoms: O1_2  and  C2_3 
REMARK    2  A    between atoms: C5_6  and  C8_9 
REMARK    3  A    between atoms: N1_14  and  C12_16 
REMARK    4  A    between atoms: C12_16  and  C13_17 
REMARK       I    between atoms: C13_17  and  N3_19 
REMARK    5  A    between atoms: N3_19  and  C14_20 
ROOT
ATOM      1  C8  <0> d           2.267  -2.564  -4.359  0.00  0.00     0.132 C 
ATOM      2  C9  <0> d           1.274  -3.196  -5.301  0.00  0.00     0.004 C 
ATOM      3  C10 <0> d           0.888  -4.455  -5.076  0.00  0.00     0.073 C 
ATOM      4  C11 <0> d           1.466  -5.153  -3.910  0.00  0.00     0.257 C 
ATOM      5  O2  <0> d           0.935  -6.151  -3.461  0.00  0.00    -0.267 OA
ATOM      6  N1  <0> d           2.592  -4.665  -3.352  0.00  0.00    -0.269 N 
ATOM      7  N2  <0> d           3.212  -3.575  -3.877  0.00  0.00    -0.222 NA
ATOM      8  H12 <0> d           3.858  -3.842  -4.605  0.00  0.00     0.148 HD
ENDROOT
BRANCH   6   9
ATOM      9  C12 <0> d           3.153  -5.316  -2.166  0.00  0.00     0.249 C 
BRANCH   9  10
ATOM     10  C13 <0> d           4.107  -6.402  -2.594  0.00  0.00     0.241 C 
ATOM     11  O3  <0> d           4.370  -6.550  -3.768  0.00  0.00    -0.271 OA
ATOM     12  N3  <0> d           4.668  -7.208  -1.671  0.00  0.00    -0.326 N 
ATOM     13  H15 <0> d           4.505  -7.052  -0.727  0.00  0.00     0.169 HD
BRANCH  12  14
ATOM     14  C14 <0> d           5.486  -8.270  -2.073  0.00  0.00     0.033 C 
ATOM     15  C21 <0> d           5.841  -8.383  -3.489  0.00  0.00     0.030 C 
ATOM     16  C20 <0> d           6.361  -9.547  -3.975  0.00  0.00     0.012 C 
ATOM     17  C17 <0> d           6.558 -10.561  -3.016  0.00  0.00    -0.028 C 
ATOM     18  C16 <0> d           6.828 -10.256  -1.555  0.00  0.00     0.165 C 
ATOM     19  C18 <0> d           6.417 -11.896  -3.085  0.00  0.00     0.028 C 
ATOM     20  C15 <0> d           5.908  -9.145  -1.144  0.00  0.00     0.034 C 
ATOM     21  N4  <0> d           6.610 -11.521  -0.868  0.00  0.00    -0.288 NA
ATOM     22  C19 <0> d           6.412 -12.434  -1.778  0.00  0.00     0.112 C 
ENDBRANCH  12  14
ENDBRANCH   9  10
ENDBRANCH   6   9
BRANCH   1  23
ATOM     23  C5  <0> d           1.533  -1.966  -3.187  0.00  0.00    -0.035 A 
ATOM     24  C4  <0> d           1.391  -0.594  -3.088  0.00  0.00     0.012 A 
ATOM     25  C3  <0> d           0.718  -0.044  -2.014  0.00  0.00     0.037 A 
ATOM     26  C2  <0> d           0.186  -0.869  -1.034  0.00  0.00     0.068 A 
ATOM     27  C7  <0> d           0.335  -2.244  -1.132  0.00  0.00     0.037 A 
ATOM     28  C6  <0> d           1.003  -2.790  -2.211  0.00  0.00     0.012 A 
BRANCH  26  29
ATOM     29  O1  <0> d          -0.476  -0.329   0.023  0.00  0.00    -0.356 OA
ATOM     30  C1  <0> d          -0.591   1.095   0.059  0.00  0.00     0.210 C 
ENDBRANCH  26  29
ENDBRANCH   1  23
TORSDOF 5
