REMARK  2 active torsions:
REMARK  status: ('A' for Active; 'I' for Inactive)
REMARK    1  A    between atoms: C6_6  and  N1_9 
REMARK       I    between atoms: N1_9  and  C9_10 
REMARK    2  A    between atoms: C9_10  and  C10_12 
ROOT
ATOM      1  C10 <0> d          -0.127  -4.881   3.655  0.00  0.00     0.080 A 
ATOM      2  C11 <0> d          -1.262  -5.232   4.323  0.00  0.00     0.068 A 
ATOM      3  O2  <0> d          -0.930  -5.896   5.440  0.00  0.00    -0.296 OA
ATOM      4  C12 <0> d           0.399  -6.012   5.561  0.00  0.00     0.164 A 
ATOM      5  C13 <0> d           0.981  -5.401   4.468  0.00  0.00     0.079 A 
ATOM      6  C14 <0> d           2.450  -5.389   4.347  0.00  0.00     0.141 A 
ATOM      7  N2  <0> d           3.199  -4.866   3.400  0.00  0.00    -0.270 NA
ATOM      8  C15 <0> d           4.618  -5.093   3.692  0.00  0.00     0.171 A 
ATOM      9  C16 <0> d           4.597  -5.870   5.022  0.00  0.00     0.153 A 
ATOM     10  N3  <0> d           3.160  -5.991   5.328  0.00  0.00    -0.326 N 
ATOM     11  C17 <0> d           2.566  -6.560   6.341  0.00  0.00     0.186 A 
ATOM     12  N4  <0> d           1.224  -6.586   6.498  0.00  0.00    -0.332 N 
ATOM     13  C18 <0> d          -2.668  -4.924   3.877  0.00  0.00     0.078 C 
ATOM     14  H19 <0> d           0.839  -7.025   7.272  0.00  0.00     0.168 HD
ENDROOT
BRANCH   1  15
ATOM     15  C9  <0> d          -0.032  -4.142   2.385  0.00  0.00     0.259 C 
ATOM     16  N1  <0> d           0.052  -2.797   2.392  0.00  0.00    -0.322 N 
ATOM     17  H10 <0> d           0.130  -2.321   3.233  0.00  0.00     0.169 HD
ATOM     18  O1  <0> d          -0.030  -4.746   1.329  0.00  0.00    -0.267 OA
BRANCH  16  19
ATOM     19  C6  <0> d           0.025  -2.088   1.187  0.00  0.00     0.041 A 
ATOM     20  C5  <0> d          -0.581  -2.642   0.067  0.00  0.00     0.030 A 
ATOM     21  C4  <0> d          -0.605  -1.940  -1.122  0.00  0.00     0.003 A 
ATOM     22  C3  <0> d          -0.027  -0.686  -1.198  0.00  0.00     0.007 A 
ATOM     23  C2  <0> d           0.578  -0.132  -0.085  0.00  0.00    -0.054 A 
ATOM     24  C1  <0> d           1.207   1.235  -0.172  0.00  0.00     0.049 C 
ATOM     25  C7  <0> d           0.610  -0.831   1.105  0.00  0.00    -0.029 A 
ATOM     26  C8  <0> d           1.274  -0.229   2.317  0.00  0.00     0.051 C 
ENDBRANCH  16  19
ENDBRANCH   1  15
TORSDOF 2
