REMARK  7 active torsions:
REMARK  status: ('A' for Active; 'I' for Inactive)
REMARK    1  A    between atoms: C5_6  and  S1_10 
REMARK    2  A    between atoms: S1_10  and  C8_11 
REMARK    3  A    between atoms: C10_13  and  N4_20 
REMARK    4  A    between atoms: C13_16  and  N3_17 
REMARK    5  A    between atoms: N5_23  and  C18_26 
REMARK    6  A    between atoms: C18_26  and  C19_27 
REMARK    7  A    between atoms: C19_27  and  O3_28 
ROOT
ATOM      1  C8  <0> d           2.921  -2.109  -2.931  0.00  0.00     0.039 A 
ATOM      2  C9  <0> d           2.186  -0.944  -2.758  0.00  0.00     0.050 A 
ATOM      3  C10 <0> d           1.657  -0.291  -3.862  0.00  0.00     0.031 A 
ATOM      4  C11 <0> d           1.865  -0.804  -5.137  0.00  0.00     0.032 A 
ATOM      5  C12 <0> d           2.597  -1.963  -5.306  0.00  0.00     0.039 A 
ATOM      6  C13 <0> d           3.130  -2.613  -4.209  0.00  0.00     0.119 A 
ENDROOT
BRANCH   1   7
ATOM      7  S1  <0> d           3.595  -2.943  -1.533  0.00  0.00    -0.081 SA
BRANCH   7   8
ATOM      8  C5  <0> d           2.136  -3.511  -0.616  0.00  0.00     0.252 A 
ATOM      9  N1  <0> d           1.373  -2.360  -0.119  0.00  0.00    -0.358 N 
ATOM     10  C4  <0> d           0.187  -2.418  -0.651  0.00  0.00     0.057 A 
ATOM     11  H22 <0> d           1.695  -1.680   0.494  0.00  0.00     0.162 HD
ATOM     12  C3  <0> d          -1.002  -1.562  -0.538  0.00  0.00     0.031 A 
ATOM     13  C6  <0> d           0.100  -3.615  -1.532  0.00  0.00     0.057 A 
ATOM     14  C2  <0> d          -2.118  -1.880  -1.224  0.00  0.00     0.002 A 
ATOM     15  C1  <0> d          -2.200  -3.010  -2.056  0.00  0.00     0.002 A 
ATOM     16  C7  <0> d          -1.169  -3.861  -2.231  0.00  0.00     0.031 A 
ATOM     17  N2  <0> d           1.236  -4.250  -1.510  0.00  0.00    -0.358 N 
ATOM     18  H23 <0> d           1.449  -5.062  -1.996  0.00  0.00     0.162 HD
ENDBRANCH   7   8
ENDBRANCH   1   7
BRANCH   6  19
ATOM     19  N3  <0> d           3.919  -3.852  -4.396  0.00  0.00    -0.114 N 
ATOM     20  O1  <0> d           4.101  -4.291  -5.507  0.00  0.00    -0.532 OA
ATOM     21  O2  <0> d           4.382  -4.424  -3.436  0.00  0.00    -0.532 OA
ENDBRANCH   6  19
BRANCH   3  22
ATOM     22  N4  <0> d           0.917   0.881  -3.692  0.00  0.00    -0.377 N 
ATOM     23  C17 <0> d           0.241   1.519  -4.832  0.00  0.00     0.153 C 
ATOM     24  C16 <0> d           0.626   2.997  -4.868  0.00  0.00     0.292 C 
ATOM     25  N5  <0> d           0.348   3.606  -3.560  0.00  0.00     0.093 N 
ATOM     26  C15 <0> d           1.165   2.995  -2.503  0.00  0.00     0.292 C 
ATOM     27  C14 <0> d           0.796   1.514  -2.370  0.00  0.00     0.153 C 
BRANCH  25  28
ATOM     28  C18 <0> d           0.546   5.061  -3.604  0.00  0.00     0.298 C 
BRANCH  28  29
ATOM     29  C19 <0> d          -0.493   5.689  -4.535  0.00  0.00     0.194 C 
BRANCH  29  30
ATOM     30  O3  <0> d          -1.799   5.502  -3.987  0.00  0.00    -0.399 OA
ATOM     31  H21 <0> d          -2.510   5.876  -4.526  0.00  0.00     0.209 HD
ENDBRANCH  29  30
ENDBRANCH  28  29
ENDBRANCH  25  28
ENDBRANCH   3  22
TORSDOF 7
