REMARK  2 active torsions:
REMARK  status: ('A' for Active; 'I' for Inactive)
REMARK    1  A    between atoms: C4_5  and  N2_7 
REMARK    2  A    between atoms: N2_7  and  C5_8 
ROOT
ATOM      1  N2  <0> d           3.794  -1.198   0.940  0.00  0.00    -0.361 N 
ATOM      2  H7  <0> d           4.542  -1.320   0.334  0.00  0.00     0.162 HD
ENDROOT
BRANCH   1   3
ATOM      3  C4  <0> d           2.540  -0.933   0.440  0.00  0.00     0.137 C 
ATOM      4  N1  <0> d           2.198  -0.817  -0.811  0.00  0.00    -0.370 N 
ATOM      5  C3  <0> d           0.822  -0.558  -1.195  0.00  0.00     0.137 C 
ATOM      6  H17 <0> d           2.875  -0.905  -1.499  0.00  0.00     0.161 HD
ATOM      7  C2  <0> d           0.002  -0.004   0.002  0.00  0.00     0.069 C 
ATOM      8  C1  <0> d          -0.019   1.526   0.010  0.00  0.00     0.023 C 
ATOM      9  S1  <0> d           1.036  -0.677   1.372  0.00  0.00    -0.088 SA
ENDBRANCH   1   3
BRANCH   1  10
ATOM     10  C5  <0> d           4.001  -1.295   2.387  0.00  0.00     0.042 C 
ATOM     11  C8  <0> d           5.489  -1.597   2.654  0.00  0.00     0.170 C 
ATOM     12  S2  <0> d           5.446  -3.258   3.446  0.00  0.00     0.146 S 
ATOM     13  C7  <0> d           3.741  -3.750   2.936  0.00  0.00     0.143 C 
ATOM     14  O1  <0> d           6.389  -4.106   2.806  0.00  0.00    -0.228 OA
ATOM     15  O2  <0> d           5.485  -3.104   4.859  0.00  0.00    -0.228 OA
ATOM     16  C6  <0> d           3.054  -2.356   2.947  0.00  0.00     0.046 C 
ATOM     17  C9  <0> d           3.652   0.053   3.022  0.00  0.00     0.039 C 
ENDBRANCH   1  10
TORSDOF 2
