REMARK  4 active torsions:
REMARK  status: ('A' for Active; 'I' for Inactive)
REMARK    1  A    between atoms: C7_7  and  N1_8 
REMARK       I    between atoms: N1_8  and  C8_9 
REMARK    2  A    between atoms: C8_9  and  C9_11 
REMARK    3  A    between atoms: C9_11  and  N2_12 
REMARK       I    between atoms: N2_12  and  C10_13 
REMARK    4  A    between atoms: C10_13  and  C11_15 
ROOT
ATOM      1  N1  <0> d           0.025  -0.014   2.417  0.00  0.00    -0.325 N 
ATOM      2  C8  <0> d          -0.056  -0.694   3.578  0.00  0.00     0.239 C 
ATOM      3  O1  <0> d          -0.040  -1.906   3.574  0.00  0.00    -0.271 OA
ATOM      4  H7  <0> d           0.078   0.954   2.425  0.00  0.00     0.169 HD
ENDROOT
BRANCH   2   5
ATOM      5  C9  <0> d          -0.168   0.053   4.882  0.00  0.00     0.226 C 
BRANCH   5   6
ATOM      6  N2  <0> d          -0.241  -0.904   5.989  0.00  0.00    -0.348 N 
ATOM      7  C10 <0> d          -0.346  -0.461   7.257  0.00  0.00     0.254 C 
ATOM      8  O2  <0> d          -0.379   0.734   7.483  0.00  0.00    -0.268 OA
ATOM      9  H10 <0> d          -0.215  -1.857   5.808  0.00  0.00     0.163 HD
BRANCH   7  10
ATOM     10  C11 <0> d          -0.420  -1.424   8.370  0.00  0.00     0.063 A 
ATOM     11  C14 <0> d          -0.527  -1.140   9.700  0.00  0.00     0.065 A 
ATOM     12  O3  <0> d          -0.567  -2.293  10.376  0.00  0.00    -0.319 OA
ATOM     13  C15 <0> d          -0.593   0.239  10.305  0.00  0.00     0.077 C 
ATOM     14  C13 <0> d          -0.481  -3.340   9.541  0.00  0.00     0.050 A 
ATOM     15  C12 <0> d          -0.387  -2.891   8.280  0.00  0.00     0.051 A 
ATOM     16  C16 <0> d          -0.489  -4.790   9.954  0.00  0.00     0.076 C 
ENDBRANCH   7  10
ENDBRANCH   5   6
ENDBRANCH   2   5
BRANCH   1  17
ATOM     17  C7  <0> d           0.034  -0.706   1.201  0.00  0.00     0.042 A 
ATOM     18  C2  <0> d          -0.584  -0.158   0.084  0.00  0.00    -0.035 A 
ATOM     19  C1  <0> d          -1.264   1.184   0.181  0.00  0.00     0.050 C 
ATOM     20  C3  <0> d          -0.569  -0.840  -1.117  0.00  0.00     0.010 A 
ATOM     21  C4  <0> d           0.055  -2.070  -1.207  0.00  0.00     0.020 A 
ATOM     22  C5  <0> d           0.667  -2.622  -0.095  0.00  0.00     0.013 A 
ATOM     23  C6  <0> d           0.655  -1.944   1.109  0.00  0.00     0.049 A 
ATOM     24 Br1  <0> d           1.518  -4.306  -0.223  0.00  0.00    -0.051 Br
ENDBRANCH   1  17
TORSDOF 4
