REMARK  4 active torsions:
REMARK  status: ('A' for Active; 'I' for Inactive)
REMARK    1  A    between atoms: C5_5  and  N3_16 
REMARK    2  A    between atoms: C7_7  and  N1_8 
REMARK       I    between atoms: N1_8  and  C8_9 
REMARK       I    between atoms: C8_9  and  N2_11 
REMARK    3  A    between atoms: N2_11  and  C9_12 
REMARK    4  A    between atoms: C9_12  and  C10_13 
ROOT
ATOM      1  C1  <0> d          -0.031   1.484  -0.051  0.00  0.00     0.050 C 
ATOM      2  C2  <0> d           0.009  -0.021   0.016  0.00  0.00    -0.035 A 
ATOM      3  C3  <0> d           0.028  -0.764  -1.148  0.00  0.00     0.011 A 
ATOM      4  C4  <0> d           0.065  -2.144  -1.090  0.00  0.00     0.031 A 
ATOM      5  C5  <0> d           0.083  -2.788   0.140  0.00  0.00     0.047 A 
ATOM      6  C6  <0> d           0.065  -2.045   1.311  0.00  0.00     0.060 A 
ATOM      7  C7  <0> d           0.034  -0.659   1.250  0.00  0.00     0.044 A 
ENDROOT
BRANCH   7   8
ATOM      8  N1  <0> d           0.021   0.094   2.429  0.00  0.00    -0.308 N 
ATOM      9  C8  <0> d          -0.468  -0.441   3.565  0.00  0.00     0.321 C 
ATOM     10  O1  <0> d          -0.831  -1.602   3.583  0.00  0.00    -0.247 OA
ATOM     11  N2  <0> d          -0.554   0.309   4.681  0.00  0.00    -0.338 N 
ATOM     12  H8  <0> d          -0.265   1.235   4.666  0.00  0.00     0.164 HD
ATOM     13  H7  <0> d           0.363   1.002   2.428  0.00  0.00     0.170 HD
BRANCH  11  14
ATOM     14  C9  <0> d          -1.085  -0.272   5.916  0.00  0.00     0.169 C 
BRANCH  14  15
ATOM     15  C10 <0> d          -1.075   0.768   7.006  0.00  0.00    -0.003 C 
ATOM     16  C11 <0> d          -2.205   1.194   7.517  0.00  0.00     0.028 C 
ATOM     17 Br1  <0> d           0.568   1.459   7.638  0.00  0.00    -0.055 Br
ENDBRANCH  14  15
ENDBRANCH  11  14
ENDBRANCH   7   8
BRANCH   5  18
ATOM     18  N3  <0> d           0.120  -4.189   0.198  0.00  0.00    -0.252 N 
ATOM     19  C15 <0> d           1.160  -4.866   0.699  0.00  0.00     0.231 A 
ATOM     20  C14 <0> d           0.875  -6.350   0.615  0.00  0.00     0.113 A 
ATOM     21  O3  <0> d           2.170  -4.369   1.150  0.00  0.00    -0.273 OA
ATOM     22  C13 <0> d          -0.521  -6.413  -0.037  0.00  0.00     0.113 A 
ATOM     23  C12 <0> d          -0.881  -4.958  -0.248  0.00  0.00     0.231 A 
ATOM     24  O2  <0> d          -1.911  -4.554  -0.743  0.00  0.00    -0.273 OA
ENDBRANCH   5  18
TORSDOF 4
