REMARK  2 active torsions:
REMARK  status: ('A' for Active; 'I' for Inactive)
REMARK    1  A    between atoms: C9_9  and  S1_13 
REMARK    2  A    between atoms: S1_13  and  C11_14 
ROOT
ATOM      1  C1  <0> d          -0.017   1.371   0.010  0.00  0.00     0.001 A 
ATOM      2  C2  <0> d           1.179   2.068   0.002  0.00  0.00     0.002 A 
ATOM      3  C3  <0> d           2.365   1.376  -0.017  0.00  0.00     0.030 A 
ATOM      4  C4  <0> d           2.396  -0.029  -0.024  0.00  0.00     0.041 A 
ATOM      5  C5  <0> d           1.202  -0.717  -0.011  0.00  0.00    -0.031 A 
ATOM      6  C6  <0> d           0.002  -0.004   0.002  0.00  0.00     0.009 A 
ATOM      7  C7  <0> d           1.065  -2.205  -0.003  0.00  0.00     0.042 C 
ATOM      8  C8  <0> d           2.104  -2.950   0.776  0.00  0.00     0.030 C 
ATOM      9  C9  <0> d           3.426  -3.066   0.057  0.00  0.00     0.146 C 
ATOM     10  C10 <0> d           4.164  -1.776   0.040  0.00  0.00     0.236 C 
ATOM     11  O1  <0> d           5.372  -1.843   0.129  0.00  0.00    -0.272 OA
ATOM     12  N1  <0> d           3.656  -0.580  -0.060  0.00  0.00    -0.326 N 
ATOM     13  H11 <0> d           4.340   0.093  -0.196  0.00  0.00     0.169 HD
ENDROOT
BRANCH   9  14
ATOM     14  S1  <0> d           4.444  -4.314   0.892  0.00  0.00    -0.098 SA
BRANCH  14  15
ATOM     15  C11 <0> d           5.792  -4.441  -0.069  0.00  0.00     0.105 C 
ATOM     16  C15 <0> d           6.908  -5.388   0.275  0.00  0.00     0.239 C 
ATOM     17  C13 <0> d           7.544  -5.783  -1.059  0.00  0.00     0.160 C 
ATOM     18  N5  <0> d           6.471  -6.678   0.806  0.00  0.00    -0.263 NA
ATOM     19  N3  <0> d           7.752  -4.881  -2.012  0.00  0.00    -0.224 NA
ATOM     20  N4  <0> d           7.714  -7.070  -0.974  0.00  0.00    -0.224 NA
ATOM     21  C12 <0> d           6.913  -3.852  -2.036  0.00  0.00     0.236 C 
ATOM     22  N2  <0> d           5.927  -3.709  -1.162  0.00  0.00    -0.237 NA
ATOM     23  C14 <0> d           7.012  -7.587   0.042  0.00  0.00     0.230 C 
ENDBRANCH  14  15
ENDBRANCH   9  14
TORSDOF 2
