REMARK  1 active torsions:
REMARK  status: ('A' for Active; 'I' for Inactive)
REMARK    1  A    between atoms: C12_15  and  C13_16 
ROOT
ATOM      1  C1  <0> d          -0.018   1.465   0.010  0.00  0.00     0.271 C 
ATOM      2  N1  <0> d           0.002  -0.004   0.002  0.00  0.00    -0.061 N 
ATOM      3  C2  <0> d          -1.377  -0.509  -0.005  0.00  0.00     0.240 C 
ATOM      4  C3  <0> d          -1.372  -2.009  -0.333  0.00  0.00     0.069 C 
ATOM      5  C4  <0> d          -0.363  -2.675   0.569  0.00  0.00    -0.019 A 
ATOM      6  C5  <0> d          -0.186  -4.076   0.876  0.00  0.00    -0.001 A 
ATOM      7  C6  <0> d          -0.854  -5.232   0.462  0.00  0.00     0.014 A 
ATOM      8  C7  <0> d          -0.404  -6.426   0.969  0.00  0.00     0.001 A 
ATOM      9  C8  <0> d           0.662  -6.495   1.852  0.00  0.00     0.002 A 
ATOM     10  C9  <0> d           1.342  -5.367   2.279  0.00  0.00     0.030 A 
ATOM     11  C10 <0> d           0.907  -4.141   1.780  0.00  0.00     0.043 A 
ATOM     12  N2  <0> d           1.340  -2.863   1.989  0.00  0.00    -0.356 N 
ATOM     13  H1  <0> d           2.078  -2.611   2.566  0.00  0.00     0.166 HD
ATOM     14  C11 <0> d           0.577  -1.991   1.261  0.00  0.00     0.053 A 
ATOM     15  C12 <0> d           0.714  -0.488   1.195  0.00  0.00     0.280 C 
ATOM     16  H15 <0> d           0.479  -0.327  -0.826  0.00  0.00     0.280 HD
ENDROOT
BRANCH  15  17
ATOM     17  C13 <0> d           2.171  -0.117   1.099  0.00  0.00     0.101 A 
ATOM     18  C16 <0> d           2.932  -0.496  -0.021  0.00  0.00     0.273 A 
ATOM     19  N4  <0> d           4.233  -0.150  -0.089  0.00  0.00    -0.199 N 
ATOM     20  O2  <0> d           2.417  -1.129  -0.926  0.00  0.00    -0.266 OA
ATOM     21  C15 <0> d           4.808   0.545   0.909  0.00  0.00     0.340 A 
ATOM     22  I1  <0> d           5.346  -0.692  -1.724  0.00  0.00     0.071 I 
ATOM     23  N3  <0> d           4.100   0.914   1.993  0.00  0.00    -0.285 N 
ATOM     24  O1  <0> d           5.984   0.844   0.831  0.00  0.00    -0.246 OA
ATOM     25  C14 <0> d           2.772   0.586   2.101  0.00  0.00     0.197 A 
ATOM     26  H3  <0> d           4.532   1.414   2.703  0.00  0.00     0.172 HD
ATOM     27  O3  <0> d           2.066   0.958   3.190  0.00  0.00    -0.171 OA
ENDBRANCH  15  17
TORSDOF 1
