REMARK  4 active torsions:
REMARK  status: ('A' for Active; 'I' for Inactive)
REMARK    1  A    between atoms: C5_5  and  N1_10 
REMARK    2  A    between atoms: C6_6  and  C7_7 
REMARK       I    between atoms: N1_10  and  C8_11 
REMARK    3  A    between atoms: C8_11  and  C9_13 
REMARK    4  A    between atoms: C9_13  and  N2_18 
ROOT
ATOM      1  N1  <0> d           1.294  -2.072  -0.038  0.00  0.00    -0.323 N 
ATOM      2  C8  <0> d           2.469  -2.709   0.137  0.00  0.00     0.258 C 
ATOM      3  O3  <0> d           3.469  -2.075   0.399  0.00  0.00    -0.270 OA
ATOM      4  H3  <0> d           0.480  -2.584  -0.167  0.00  0.00     0.169 HD
ENDROOT
BRANCH   1   5
ATOM      5  C5  <0> d           1.249  -0.680  -0.034  0.00  0.00     0.074 A 
ATOM      6  C4  <0> d           1.805   0.033   1.021  0.00  0.00     0.063 A 
ATOM      7  C3  <0> d           1.759   1.413   1.024  0.00  0.00     0.050 A 
ATOM      8 Cl1  <0> d           2.558  -0.812   2.338  0.00  0.00    -0.082 Cl
ATOM      9  C2  <0> d           1.160   2.098  -0.023  0.00  0.00     0.036 A 
ATOM     10  C1  <0> d           0.604   1.407  -1.079  0.00  0.00     0.044 A 
ATOM     11 Cl2  <0> d           1.112   3.833  -0.005  0.00  0.00    -0.084 Cl
ATOM     12  C6  <0> d           0.642   0.009  -1.095  0.00  0.00     0.070 A 
BRANCH  12  13
ATOM     13  C7  <0> d           0.050  -0.734  -2.219  0.00  0.00     0.211 C 
ATOM     14  O1  <0> d          -0.383  -0.131  -3.191  0.00  0.00    -0.644 OA
ATOM     15  O2  <0> d          -0.010  -1.956  -2.180  0.00  0.00    -0.644 OA
ENDBRANCH  12  13
ENDBRANCH   1   5
BRANCH   2  16
ATOM     16  C9  <0> d           2.540  -4.208   0.007  0.00  0.00     0.203 C 
ATOM     17  C13 <0> d           3.969  -4.650  -0.373  0.00  0.00     0.049 C 
ATOM     18  C12 <0> d           4.684  -5.007   0.941  0.00  0.00     0.003 C 
ATOM     19  C11 <0> d           3.665  -4.770   2.075  0.00  0.00     0.003 C 
ATOM     20  C10 <0> d           2.287  -4.884   1.378  0.00  0.00     0.049 C 
BRANCH  16  21
ATOM     21  N2  <0> d           1.572  -4.684  -0.990  0.00  0.00    -0.061 N 
ATOM     22  H12 <0> d           1.786  -4.275  -1.888  0.00  0.00     0.275 HD
ATOM     23  H13 <0> d           1.624  -5.689  -1.057  0.00  0.00     0.275 HD
ATOM     24  H14 <0> d           0.641  -4.412  -0.711  0.00  0.00     0.275 HD
ENDBRANCH  16  21
ENDBRANCH   2  16
TORSDOF 4
