REMARK  6 active torsions:
REMARK  status: ('A' for Active; 'I' for Inactive)
REMARK    1  A    between atoms: O1_2  and  C2_3 
REMARK    2  A    between atoms: C5_6  and  O4_22 
REMARK    3  A    between atoms: C6_7  and  C8_9 
REMARK    4  A    between atoms: C8_9  and  N1_10 
REMARK    5  A    between atoms: C10_12  and  N2_16 
REMARK    6  A    between atoms: C11_13  and  O2_15 
ROOT
ATOM      1  N1  <0> d          -2.902  -4.650   1.356  0.00  0.00    -0.062 N 
ATOM      2  C9  <0> d          -2.938  -6.135   1.387  0.00  0.00     0.273 C 
ATOM      3  C10 <0> d          -3.842  -6.477   2.591  0.00  0.00     0.279 C 
ATOM      4  C11 <0> d          -4.732  -5.234   2.790  0.00  0.00     0.179 C 
ATOM      5  C12 <0> d          -4.292  -4.245   1.689  0.00  0.00     0.269 C 
ATOM      6  H25 <0> d          -2.256  -4.296   2.046  0.00  0.00     0.280 HD
ENDROOT
BRANCH   1   7
ATOM      7  C8  <0> d          -2.535  -4.173   0.016  0.00  0.00     0.276 C 
BRANCH   7   8
ATOM      8  C6  <0> d          -2.477  -2.667   0.017  0.00  0.00     0.003 A 
ATOM      9  C5  <0> d          -3.650  -1.928   0.027  0.00  0.00     0.073 A 
ATOM     10  C4  <0> d          -3.596  -0.542   0.028  0.00  0.00     0.040 A 
ATOM     11  C3  <0> d          -2.374   0.102   0.020  0.00  0.00     0.039 A 
ATOM     12  C2  <0> d          -1.201  -0.638   0.010  0.00  0.00     0.069 A 
ATOM     13  C7  <0> d          -1.255  -2.023   0.003  0.00  0.00     0.048 A 
BRANCH   9  14
ATOM     14  O4  <0> d          -4.853  -2.562   0.036  0.00  0.00    -0.360 OA
ATOM     15  H24 <0> d          -5.208  -2.744  -0.845  0.00  0.00     0.217 HD
ENDBRANCH   9  14
BRANCH  12  16
ATOM     16  O1  <0> d           0.002  -0.004   0.002  0.00  0.00    -0.356 OA
ATOM     17  C1  <0> d          -0.017   1.425   0.010  0.00  0.00     0.210 C 
ENDBRANCH  12  16
ENDBRANCH   7   8
ENDBRANCH   1   7
BRANCH   4  18
ATOM     18  O2  <0> d          -4.514  -4.668   4.084  0.00  0.00    -0.392 OA
ATOM     19  H15 <0> d          -5.048  -3.883   4.266  0.00  0.00     0.210 HD
ENDBRANCH   4  18
BRANCH   3  20
ATOM     20  N2  <0> d          -4.666  -7.655   2.292  0.00  0.00     0.101 N 
ATOM     21  C16 <0> d          -5.446  -8.066   3.469  0.00  0.00     0.299 C 
ATOM     22  C15 <0> d          -6.242  -9.329   3.131  0.00  0.00     0.198 C 
ATOM     23  O3  <0> d          -7.072  -9.073   1.995  0.00  0.00    -0.388 OA
ATOM     24  C14 <0> d          -6.346  -8.672   0.830  0.00  0.00     0.198 C 
ATOM     25  C13 <0> d          -5.550  -7.402   1.145  0.00  0.00     0.299 C 
ENDBRANCH   3  20
TORSDOF 6
