REMARK  4 active torsions:
REMARK  status: ('A' for Active; 'I' for Inactive)
REMARK       I    between atoms: N1_2  and  C2_3 
REMARK    1  A    between atoms: C2_3  and  C3_5 
REMARK    2  A    between atoms: C6_9  and  N2_10 
REMARK       I    between atoms: N2_10  and  C7_11 
REMARK    3  A    between atoms: C7_11  and  C8_13 
REMARK    4  A    between atoms: C8_13  and  C9_14 
ROOT
ATOM      1  N2  <0> d           2.768  -2.341   0.192  0.00  0.00    -0.320 N 
ATOM      2  C7  <0> d           3.688  -3.185   0.699  0.00  0.00     0.226 C 
ATOM      3  O2  <0> d           3.533  -4.384   0.596  0.00  0.00    -0.273 OA
ATOM      4  H5  <0> d           2.892  -1.382   0.274  0.00  0.00     0.169 HD
ENDROOT
BRANCH   1   5
ATOM      5  C6  <0> d           1.645  -2.842  -0.449  0.00  0.00     0.093 A 
ATOM      6  C3  <0> d           0.605  -2.131  -1.026  0.00  0.00     0.073 A 
ATOM      7  C4  <0> d          -0.462  -2.898  -1.645  0.00  0.00    -0.026 A 
ATOM      8  C20 <0> d          -1.676  -2.291  -2.330  0.00  0.00     0.041 C 
ATOM      9  C5  <0> d          -0.295  -4.236  -1.568  0.00  0.00    -0.008 A 
ATOM     10  C19 <0> d          -2.314  -3.352  -3.229  0.00  0.00     0.005 C 
ATOM     11  C18 <0> d          -2.565  -4.632  -2.426  0.00  0.00     0.005 C 
ATOM     12  C17 <0> d          -1.215  -5.290  -2.104  0.00  0.00     0.047 C 
ATOM     13  S1  <0> d           1.231  -4.450  -0.700  0.00  0.00    -0.075 SA
BRANCH   6  14
ATOM     14  C2  <0> d           0.585  -0.664  -1.018  0.00  0.00     0.254 C 
ATOM     15  N1  <0> d           0.002  -0.004   0.002  0.00  0.00    -0.361 N 
ATOM     16  C1  <0> d          -0.018   1.461   0.010  0.00  0.00     0.149 C 
ATOM     17  H4  <0> d          -0.404  -0.499   0.731  0.00  0.00     0.162 HD
ATOM     18  O1  <0> d           1.095  -0.044  -1.932  0.00  0.00    -0.268 OA
ENDBRANCH   6  14
ENDBRANCH   1   5
BRANCH   2  19
ATOM     19  C8  <0> d           4.909  -2.641   1.395  0.00  0.00     0.144 C 
BRANCH  19  20
ATOM     20  C9  <0> d           5.770  -3.784   1.866  0.00  0.00    -0.014 A 
ATOM     21  C12 <0> d           6.781  -4.506   1.084  0.00  0.00     0.009 A 
ATOM     22  C11 <0> d           7.310  -5.473   1.956  0.00  0.00     0.086 A 
ATOM     23  C13 <0> d           7.255  -4.407  -0.223  0.00  0.00     0.057 A 
ATOM     24  O3  <0> d           6.668  -5.342   3.135  0.00  0.00    -0.321 OA
ATOM     25  C16 <0> d           8.308  -6.325   1.502  0.00  0.00     0.041 A 
ATOM     26  C10 <0> d           5.763  -4.349   3.081  0.00  0.00     0.151 A 
ATOM     27  C15 <0> d           8.764  -6.224   0.205  0.00  0.00     0.045 A 
ATOM     28  C14 <0> d           8.244  -5.266  -0.656  0.00  0.00     0.117 A 
ATOM     29  F1  <0> d           8.707  -5.176  -1.921  0.00  0.00    -0.206 F 
ENDBRANCH  19  20
ENDBRANCH   2  19
TORSDOF 4
