REMARK  5 active torsions:
REMARK  status: ('A' for Active; 'I' for Inactive)
REMARK    1  A    between atoms: C5_5  and  C8_8 
REMARK    2  A    between atoms: C5_5  and  N1_11 
REMARK       I    between atoms: N1_11  and  C9_12 
REMARK    3  A    between atoms: C9_12  and  C10_14 
REMARK    4  A    between atoms: C10_14  and  C11_15 
REMARK    5  A    between atoms: C11_15  and  C12_16 
ROOT
ATOM      1  N1  <0> d          -1.358  -2.098   2.449  0.00  0.00    -0.342 N 
ATOM      2  C9  <0> d          -0.882  -2.424   3.667  0.00  0.00     0.218 C 
ATOM      3  O3  <0> d           0.115  -3.108   3.765  0.00  0.00    -0.274 OA
ATOM      4  H14 <0> d          -2.155  -1.550   2.371  0.00  0.00     0.163 HD
ENDROOT
BRANCH   1   5
ATOM      5  C5  <0> d          -0.673  -2.570   1.244  0.00  0.00     0.121 C 
ATOM      6  C4  <0> d          -1.413  -2.063   0.004  0.00  0.00     0.043 C 
ATOM      7  C3  <0> d          -1.433  -0.534   0.013  0.00  0.00     0.007 C 
ATOM      8  C2  <0> d           0.002  -0.004   0.002  0.00  0.00    -0.019 C 
ATOM      9  C1  <0> d          -0.019   1.526   0.010  0.00  0.00     0.010 C 
ATOM     10  C7  <0> d           0.742  -0.511   1.242  0.00  0.00     0.007 C 
ATOM     11  C6  <0> d           0.763  -2.041   1.233  0.00  0.00     0.043 C 
BRANCH   5  12
ATOM     12  C8  <0> d          -0.652  -4.077   1.236  0.00  0.00     0.202 C 
ATOM     13  O1  <0> d          -0.125  -4.675   0.313  0.00  0.00    -0.646 OA
ATOM     14  O2  <0> d          -1.163  -4.699   2.152  0.00  0.00    -0.646 OA
ENDBRANCH   5  12
ENDBRANCH   1   5
BRANCH   2  15
ATOM     15  C10 <0> d          -1.587  -1.938   4.907  0.00  0.00     0.105 C 
BRANCH  15  16
ATOM     16  C11 <0> d          -0.847  -2.445   6.147  0.00  0.00     0.042 C 
BRANCH  16  17
ATOM     17  C12 <0> d          -1.563  -1.951   7.405  0.00  0.00     0.186 C 
ATOM     18  N2  <0> d          -2.900  -2.554   7.475  0.00  0.00    -0.071 N 
ATOM     19  C16 <0> d          -3.623  -2.028   8.639  0.00  0.00     0.232 C 
ATOM     20  H27 <0> d          -3.412  -2.333   6.635  0.00  0.00     0.277 HD
ATOM     21  H28 <0> d          -2.812  -3.556   7.560  0.00  0.00     0.277 HD
ATOM     22  C15 <0> d          -2.894  -2.430   9.922  0.00  0.00     0.027 C 
ATOM     23  C14 <0> d          -1.475  -1.855   9.898  0.00  0.00     0.004 C 
ATOM     24  C13 <0> d          -0.754  -2.351   8.641  0.00  0.00     0.033 C 
ENDBRANCH  16  17
ENDBRANCH  15  16
ENDBRANCH   2  15
TORSDOF 5
