REMARK  5 active torsions:
REMARK  status: ('A' for Active; 'I' for Inactive)
REMARK    1  A    between atoms: C2_2  and  C4_4 
REMARK    2  A    between atoms: C5_5  and  C8_11 
REMARK    3  A    between atoms: C8_11  and  N3_12 
REMARK    4  A    between atoms: N3_12  and  C9_13 
REMARK    5  A    between atoms: C9_13  and  C10_14 
ROOT
ATOM      1  N3  <0> d          -0.675  -3.139  -1.930  0.00  0.00    -0.067 N 
ATOM      2  H13 <0> d           0.011  -3.021  -1.199  0.00  0.00     0.277 HD
ATOM      3  H25 <0> d          -1.373  -3.804  -1.631  0.00  0.00     0.277 HD
ENDROOT
BRANCH   1   4
ATOM      4  C8  <0> d          -1.317  -1.849  -2.212  0.00  0.00     0.276 C 
BRANCH   4   5
ATOM      5  C5  <0> d          -1.992  -1.340  -0.965  0.00  0.00     0.034 A 
ATOM      6  C4  <0> d          -1.412  -0.526   0.013  0.00  0.00     0.069 A 
ATOM      7  N2  <0> d          -2.306  -0.299   0.941  0.00  0.00    -0.175 NA
ATOM      8  N1  <0> d          -3.489  -0.957   0.579  0.00  0.00    -0.262 N 
ATOM      9  C6  <0> d          -3.271  -1.591  -0.592  0.00  0.00     0.131 A 
ATOM     10  C7  <0> d          -4.740  -0.959   1.341  0.00  0.00     0.181 C 
ATOM     11 Cl1  <0> d          -4.421  -2.554  -1.465  0.00  0.00    -0.062 Cl
BRANCH   6  12
ATOM     12  C2  <0> d           0.002  -0.004   0.002  0.00  0.00     0.032 C 
ATOM     13  C1  <0> d          -0.019   1.526   0.010  0.00  0.00     0.016 C 
ATOM     14  C3  <0> d           0.742  -0.511   1.242  0.00  0.00     0.016 C 
ENDBRANCH   6  12
ENDBRANCH   4   5
ENDBRANCH   1   4
BRANCH   1  15
ATOM     15  C9  <0> d          -0.016  -3.635  -3.145  0.00  0.00     0.271 C 
BRANCH  15  16
ATOM     16  C10 <0> d           0.643  -4.959  -2.856  0.00  0.00    -0.030 A 
ATOM     17  C15 <0> d          -0.064  -6.135  -3.038  0.00  0.00     0.048 A 
ATOM     18  C14 <0> d           0.546  -7.350  -2.774  0.00  0.00     0.102 A 
ATOM     19  C13 <0> d           1.857  -7.386  -2.321  0.00  0.00     0.102 A 
ATOM     20  O1  <0> d          -0.138  -8.517  -2.953  0.00  0.00    -0.348 OA
ATOM     21  C12 <0> d           2.560  -6.207  -2.136  0.00  0.00     0.040 A 
ATOM     22  O2  <0> d           2.447  -8.588  -2.059  0.00  0.00    -0.348 OA
ATOM     23  C11 <0> d           1.949  -4.995  -2.404  0.00  0.00     0.012 A 
ATOM     24  C18 <0> d           2.706  -9.418  -3.193  0.00  0.00     0.178 C 
ATOM     25  C17 <0> d           1.473 -10.229  -3.561  0.00  0.00     0.053 C 
ATOM     26  C16 <0> d           0.318  -9.352  -4.019  0.00  0.00     0.178 C 
ENDBRANCH  15  16
ENDBRANCH   1  15
TORSDOF 5
