REMARK  3 active torsions:
REMARK  status: ('A' for Active; 'I' for Inactive)
REMARK    1  A    between atoms: C5_8  and  C6_10 
REMARK    2  A    between atoms: C6_10  and  C7_11 
REMARK    3  A    between atoms: C6_10  and  N4_18 
ROOT
ATOM      1  C6  <0> d           2.454   3.935  -0.001  0.00  0.00     0.265 C 
ENDROOT
BRANCH   1   2
ATOM      2  C5  <0> d           2.657   4.185  -1.473  0.00  0.00     0.077 A 
ATOM      3  C4  <0> d           3.479   3.568  -2.330  0.00  0.00     0.219 A 
ATOM      4  N2  <0> d           3.520   3.939  -3.652  0.00  0.00    -0.181 N 
ATOM      5  O1  <0> d           4.279   2.560  -1.888  0.00  0.00    -0.169 OA
ATOM      6  C3  <0> d           2.704   4.958  -4.039  0.00  0.00     0.198 A 
ATOM      7  N3  <0> d           4.203   3.572  -4.841  0.00  0.00    -0.148 NA
ATOM      8  N1  <0> d           2.867   5.189  -5.313  0.00  0.00    -0.206 NA
ATOM      9  S1  <0> d           1.869   5.390  -2.532  0.00  0.00    -0.048 SA
ATOM     10  C2  <0> d           3.777   4.348  -5.801  0.00  0.00     0.145 A 
ATOM     11  C1  <0> d           4.241   4.299  -7.234  0.00  0.00     0.095 C 
ENDBRANCH   1   2
BRANCH   1  12
ATOM     12  C7  <0> d           1.129   3.249   0.214  0.00  0.00    -0.019 A 
ATOM     13  C12 <0> d          -0.047   3.964   0.090  0.00  0.00     0.051 A 
ATOM     14  C11 <0> d          -1.264   3.333   0.287  0.00  0.00     0.117 A 
ATOM     15  C10 <0> d          -1.301   1.986   0.602  0.00  0.00     0.042 A 
ATOM     16  F1  <0> d          -2.414   4.031   0.167  0.00  0.00    -0.206 F 
ATOM     17  C9  <0> d          -0.123   1.274   0.731  0.00  0.00     0.004 A 
ATOM     18  C8  <0> d           1.091   1.904   0.534  0.00  0.00     0.010 A 
ENDBRANCH   1  12
BRANCH   1  19
ATOM     19  N4  <0> d           2.465   5.215   0.719  0.00  0.00    -0.057 N 
ATOM     20  C17 <0> d           2.253   5.011   2.158  0.00  0.00     0.240 C 
ATOM     21  C16 <0> d           2.126   6.368   2.854  0.00  0.00     0.008 C 
ATOM     22  C15 <0> d           3.402   7.180   2.616  0.00  0.00     0.011 C 
ATOM     23  C18 <0> d           1.927   6.155   4.356  0.00  0.00     0.011 C 
ATOM     24  C14 <0> d           3.625   7.337   1.110  0.00  0.00     0.008 C 
ATOM     25  C13 <0> d           3.709   5.952   0.465  0.00  0.00     0.240 C 
ATOM     26  C19 <0> d           2.458   8.115   0.499  0.00  0.00     0.011 C 
ATOM     27  H23 <0> d           1.631   5.825   0.341  0.00  0.00     0.281 HD
ENDBRANCH   1  19
TORSDOF 3
