REMARK  4 active torsions:
REMARK  status: ('A' for Active; 'I' for Inactive)
REMARK    1  A    between atoms: C4_4  and  N1_9 
REMARK       I    between atoms: N1_9  and  C9_10 
REMARK    2  A    between atoms: C9_10  and  C10_12 
REMARK       I    between atoms: C10_12  and  N2_14 
REMARK    3  A    between atoms: N2_14  and  C11_15 
REMARK    4  A    between atoms: C14_18  and  C17_21 
ROOT
ATOM      1  N1  <0> d           0.393   5.050  -1.208  0.00  0.00    -0.348 N 
ATOM      2  C9  <0> d           0.119   5.703  -2.355  0.00  0.00     0.310 C 
ATOM      3  O1  <0> d          -0.114   5.078  -3.368  0.00  0.00    -0.262 OA
ATOM      4  H15 <0> d           0.580   5.550  -0.398  0.00  0.00     0.163 HD
ENDROOT
BRANCH   2   5
ATOM      5  C10 <0> d           0.103   7.197  -2.378  0.00  0.00     0.313 C 
ATOM      6  O2  <0> d           0.337   7.822  -1.365  0.00  0.00    -0.262 OA
ATOM      7  N2  <0> d          -0.171   7.849  -3.525  0.00  0.00    -0.319 N 
ATOM      8  H16 <0> d          -0.291   7.353  -4.349  0.00  0.00     0.169 HD
BRANCH   7   9
ATOM      9  C11 <0> d          -0.281   9.242  -3.527  0.00  0.00     0.035 A 
ATOM     10  C16 <0> d           0.527  10.006  -2.693  0.00  0.00     0.030 A 
ATOM     11  C15 <0> d           0.416  11.382  -2.697  0.00  0.00     0.010 A 
ATOM     12  C14 <0> d          -0.498  12.001  -3.531  0.00  0.00    -0.051 A 
ATOM     13  C13 <0> d          -1.304  11.244  -4.362  0.00  0.00     0.010 A 
ATOM     14  C12 <0> d          -1.194   9.867  -4.366  0.00  0.00     0.030 A 
BRANCH  12  15
ATOM     15  C17 <0> d          -0.616  13.503  -3.533  0.00  0.00    -0.024 C 
ATOM     16  C18 <0> d           0.726  14.120  -3.932  0.00  0.00     0.019 C 
ATOM     17  C19 <0> d          -1.691  13.929  -4.536  0.00  0.00     0.019 C 
ATOM     18  C20 <0> d          -1.004  13.987  -2.135  0.00  0.00     0.019 C 
ENDBRANCH  12  15
ENDBRANCH   7   9
ENDBRANCH   2   5
BRANCH   1  19
ATOM     19  C4  <0> d           0.409   3.582  -1.185  0.00  0.00     0.089 C 
ATOM     20  C3  <0> d          -1.007   3.067  -0.929  0.00  0.00     0.063 C 
ATOM     21  C2  <0> d          -1.019   1.542  -0.865  0.00  0.00     0.121 C 
ATOM     22  C1  <0> d          -0.911   0.969  -2.283  0.00  0.00     0.046 C 
ATOM     23  C21 <0> d          -2.393   1.112  -0.303  0.00  0.00     0.046 C 
ATOM     24  N3  <0> d          -0.006   0.942   0.043  0.00  0.00    -0.059 N 
ATOM     25  C6  <0> d           1.339   1.580  -0.004  0.00  0.00     0.121 C 
ATOM     26  H33 <0> d           0.102  -0.047  -0.209  0.00  0.00     0.279 HD
ATOM     27  H34 <0> d          -0.358   1.014   1.005  0.00  0.00     0.279 HD
ATOM     28  C5  <0> d           1.308   3.107  -0.042  0.00  0.00     0.063 C 
ATOM     29  C7  <0> d           2.049   1.162   1.302  0.00  0.00     0.046 C 
ATOM     30  C8  <0> d           2.178   1.050  -1.170  0.00  0.00     0.046 C 
ENDBRANCH   1  19
TORSDOF 4
