REMARK  6 active torsions:
REMARK  status: ('A' for Active; 'I' for Inactive)
REMARK    1  A    between atoms: C2_2  and  N1_3 
REMARK    2  A    between atoms: N1_3  and  C3_4 
REMARK    3  A    between atoms: N1_3  and  S2_11 
REMARK    4  A    between atoms: S2_11  and  C7_14 
REMARK    5  A    between atoms: C7_14  and  C8_15 
REMARK    6  A    between atoms: C8_15  and  N2_18 
ROOT
ATOM      1  S2  <0> d          -0.399  -0.767  -2.562  0.00  0.00     0.231 S 
ATOM      2  O3  <0> d           0.295  -1.742  -3.327  0.00  0.00    -0.206 OA
ATOM      3  O4  <0> d          -1.672  -1.057  -2.001  0.00  0.00    -0.206 OA
ENDROOT
BRANCH   1   4
ATOM      4  N1  <0> d           0.580  -0.478  -1.258  0.00  0.00    -0.305 N 
BRANCH   4   5
ATOM      5  C2  <0> d           0.003   0.002   0.000  0.00  0.00     0.131 C 
ATOM      6  C1  <0> d           0.023   1.532   0.020  0.00  0.00     0.027 C 
ENDBRANCH   4   5
BRANCH   4   7
ATOM      7  C3  <0> d           2.024  -0.702  -1.363  0.00  0.00     0.110 C 
ATOM      8  C6  <0> d           2.432  -1.871  -0.435  0.00  0.00     0.166 C 
ATOM      9  S1  <0> d           4.136  -1.409   0.075  0.00  0.00     0.146 S 
ATOM     10  C5  <0> d           4.274   0.224  -0.767  0.00  0.00     0.142 C 
ATOM     11  O1  <0> d           4.158  -1.207   1.482  0.00  0.00    -0.228 OA
ATOM     12  O2  <0> d           5.059  -2.314  -0.516  0.00  0.00    -0.228 OA
ATOM     13  C4  <0> d           2.771   0.578  -0.950  0.00  0.00     0.042 C 
ENDBRANCH   4   7
ENDBRANCH   1   4
BRANCH   1  14
ATOM     14  C7  <0> d          -0.456   0.808  -3.460  0.00  0.00     0.201 C 
BRANCH  14  15
ATOM     15  C8  <0> d          -1.343   0.657  -4.698  0.00  0.00     0.131 C 
ATOM     16  C9  <0> d          -1.292   1.946  -5.521  0.00  0.00     0.046 C 
ATOM     17  C10 <0> d          -0.839  -0.511  -5.547  0.00  0.00     0.046 C 
BRANCH  15  18
ATOM     18  N2  <0> d          -2.727   0.398  -4.279  0.00  0.00    -0.070 N 
ATOM     19  H21 <0> d          -3.060   1.169  -3.720  0.00  0.00     0.275 HD
ATOM     20  H22 <0> d          -3.312   0.298  -5.096  0.00  0.00     0.275 HD
ATOM     21  H23 <0> d          -2.761  -0.452  -3.736  0.00  0.00     0.275 HD
ENDBRANCH  15  18
ENDBRANCH  14  15
ENDBRANCH   1  14
TORSDOF 6
