REMARK  3 active torsions:
REMARK  status: ('A' for Active; 'I' for Inactive)
REMARK    1  A    between atoms: C2_2  and  C3_3 
REMARK    2  A    between atoms: C2_2  and  N1_10 
REMARK       I    between atoms: N1_10  and  C9_11 
REMARK    3  A    between atoms: C9_11  and  C10_13 
ROOT
ATOM      1  N1  <0> d          -1.372  -0.511   0.012  0.00  0.00    -0.351 N 
ATOM      2  C9  <0> d          -2.051  -0.643  -1.145  0.00  0.00     0.248 C 
ATOM      3  O1  <0> d          -1.524  -0.341  -2.194  0.00  0.00    -0.271 OA
ATOM      4  H10 <0> d          -1.794  -0.752   0.852  0.00  0.00     0.163 HD
ENDROOT
BRANCH   1   5
ATOM      5  C2  <0> d           0.002  -0.004   0.002  0.00  0.00     0.113 C 
ATOM      6  C1  <0> d          -0.019   1.526   0.010  0.00  0.00     0.037 C 
BRANCH   5   7
ATOM      7  C3  <0> d           0.731  -0.503   1.223  0.00  0.00    -0.035 A 
ATOM      8  C8  <0> d           2.048  -0.911   1.123  0.00  0.00     0.028 A 
ATOM      9  C7  <0> d           2.718  -1.365   2.245  0.00  0.00     0.011 A 
ATOM     10  C6  <0> d           2.067  -1.419   3.464  0.00  0.00     0.019 A 
ATOM     11 Br1  <0> d           4.522  -1.915   2.110  0.00  0.00    -0.051 Br
ATOM     12  C5  <0> d           0.749  -1.016   3.562  0.00  0.00     0.002 A 
ATOM     13  C4  <0> d           0.081  -0.558   2.442  0.00  0.00     0.009 A 
ENDBRANCH   5   7
ENDBRANCH   1   5
BRANCH   2  14
ATOM     14  C10 <0> d          -3.465  -1.164  -1.134  0.00  0.00     0.238 C 
ATOM     15  O2  <0> d          -3.926  -1.320  -2.479  0.00  0.00    -0.373 OA
ATOM     16  C13 <0> d          -5.282  -1.766  -2.572  0.00  0.00     0.196 C 
ATOM     17  C12 <0> d          -6.191  -0.774  -1.841  0.00  0.00     0.258 C 
ATOM     18  N2  <0> d          -5.757  -0.655  -0.442  0.00  0.00    -0.070 N 
ATOM     19  C11 <0> d          -4.370  -0.172  -0.401  0.00  0.00     0.274 C 
ATOM     20  H13 <0> d          -5.813  -1.557   0.006  0.00  0.00     0.277 HD
ATOM     21  H18 <0> d          -6.356  -0.002   0.041  0.00  0.00     0.277 HD
ENDBRANCH   2  14
TORSDOF 3
