REMARK  3 active torsions:
REMARK  status: ('A' for Active; 'I' for Inactive)
REMARK    1  A    between atoms: C3_4  and  S1_8 
REMARK    2  A    between atoms: S1_8  and  N3_11 
REMARK    3  A    between atoms: N3_11  and  C6_12 
ROOT
ATOM      1  N3  <0> d          -0.700  -2.869  -3.141  0.00  0.00    -0.309 N 
ATOM      2  H11 <0> d          -1.605  -3.148  -3.348  0.00  0.00     0.172 HD
ENDROOT
BRANCH   1   3
ATOM      3  S1  <0> d           0.104  -3.548  -1.863  0.00  0.00     0.278 S 
ATOM      4  O1  <0> d          -0.771  -4.515  -1.300  0.00  0.00    -0.199 OA
ATOM      5  O2  <0> d           0.641  -2.474  -1.104  0.00  0.00    -0.199 OA
BRANCH   3   6
ATOM      6  C3  <0> d           1.477  -4.434  -2.522  0.00  0.00     0.188 A 
ATOM      7  N1  <0> d           1.568  -4.939  -3.761  0.00  0.00    -0.221 NA
ATOM      8  C2  <0> d           2.723  -5.530  -3.902  0.00  0.00     0.103 A 
ATOM      9  C1  <0> d           3.209  -6.223  -5.149  0.00  0.00     0.091 C 
ATOM     10  N2  <0> d           3.407  -5.424  -2.743  0.00  0.00    -0.347 N 
ATOM     11  C4  <0> d           2.619  -4.724  -1.870  0.00  0.00     0.137 A 
ATOM     12  C5  <0> d           4.745  -5.956  -2.472  0.00  0.00     0.157 C 
ENDBRANCH   3   6
ENDBRANCH   1   3
BRANCH   1  13
ATOM     13  C6  <0> d          -0.043  -1.847  -3.960  0.00  0.00     0.093 C 
ATOM     14  C13 <0> d          -0.472  -2.000  -5.419  0.00  0.00     0.032 C 
ATOM     15  C12 <0> d           0.136  -0.949  -6.294  0.00  0.00     0.019 C 
ATOM     16  C9  <0> d          -0.037   0.492  -5.779  0.00  0.00     0.017 C 
ATOM     17  C11 <0> d           1.683  -1.069  -6.389  0.00  0.00     0.237 C 
ATOM     18  C8  <0> d           0.307   0.588  -4.291  0.00  0.00     0.009 C 
ATOM     19  C10 <0> d           1.084   1.252  -6.539  0.00  0.00     0.237 C 
ATOM     20  C7  <0> d          -0.464  -0.452  -3.482  0.00  0.00     0.026 C 
ATOM     21  N4  <0> d           2.122   0.260  -6.879  0.00  0.00    -0.074 N 
ATOM     22  H18 <0> d           2.247   0.228  -7.880  0.00  0.00     0.277 HD
ATOM     23  H23 <0> d           2.993   0.514  -6.437  0.00  0.00     0.277 HD
ENDBRANCH   1  13
TORSDOF 3
