REMARK  4 active torsions:
REMARK  status: ('A' for Active; 'I' for Inactive)
REMARK    1  A    between atoms: C9_10  and  N1_13 
REMARK    2  A    between atoms: C10_11  and  O2_12 
REMARK    3  A    between atoms: N1_13  and  C12_15 
REMARK    4  A    between atoms: C12_15  and  C13_16 
ROOT
ATOM      1  C1  <0> d          -0.018   1.503   0.010  0.00  0.00     0.048 C 
ATOM      2  C2  <0> d           0.002  -0.004   0.002  0.00  0.00    -0.059 A 
ATOM      3  C3  <0> d           0.006  -0.689  -1.199  0.00  0.00     0.014 A 
ATOM      4  C4  <0> d           0.022  -2.070  -1.206  0.00  0.00    -0.050 A 
ATOM      5  C5  <0> d           0.036  -2.775  -0.013  0.00  0.00     0.012 A 
ATOM      6  C6  <0> d           0.036  -2.092   1.190  0.00  0.00     0.078 A 
ATOM      7  C7  <0> d           0.023  -0.701   1.193  0.00  0.00     0.044 A 
ATOM      8  O1  <0> d           0.061  -2.743   2.382  0.00  0.00    -0.348 OA
ATOM      9  C8  <0> d          -0.288  -4.128   2.394  0.00  0.00     0.212 C 
ATOM     10  C9  <0> d           0.506  -4.837   1.290  0.00  0.00     0.245 C 
ATOM     11  C10 <0> d           0.049  -4.282  -0.062  0.00  0.00     0.187 C 
ATOM     12  C14 <0> d           0.025  -2.814  -2.517  0.00  0.00     0.049 C 
ENDROOT
BRANCH  10  13
ATOM     13  N1  <0> d           0.248  -6.282   1.345  0.00  0.00    -0.056 N 
ATOM     14  C11 <0> d           1.010  -6.956   0.286  0.00  0.00     0.271 C 
ATOM     15  H19 <0> d          -0.737  -6.453   1.212  0.00  0.00     0.280 HD
BRANCH  13  16
ATOM     16  C12 <0> d           0.663  -6.803   2.655  0.00  0.00     0.347 C 
BRANCH  16  17
ATOM     17  C13 <0> d           0.287  -8.259   2.757  0.00  0.00     0.199 C 
ATOM     18  O3  <0> d          -0.275  -8.811   1.826  0.00  0.00    -0.647 OA
ATOM     19  O4  <0> d           0.544  -8.885   3.772  0.00  0.00    -0.647 OA
ENDBRANCH  16  17
ENDBRANCH  13  16
ENDBRANCH  10  13
BRANCH  11  20
ATOM     20  O2  <0> d          -1.266  -4.760  -0.352  0.00  0.00    -0.389 OA
ATOM     21  H10 <0> d          -1.619  -4.450  -1.198  0.00  0.00     0.210 HD
ENDBRANCH  11  20
TORSDOF 4
