REMARK  3 active torsions:
REMARK  status: ('A' for Active; 'I' for Inactive)
REMARK    1  A    between atoms: C2_2  and  C14_18 
REMARK       I    between atoms: N1_6  and  C7_8 
REMARK    2  A    between atoms: C7_8  and  C8_10 
REMARK    3  A    between atoms: C8_10  and  N2_11 
ROOT
ATOM      1  C1  <0> d          -0.019   1.526   0.010  0.00  0.00     0.028 C 
ATOM      2  C2  <0> d           0.002  -0.004   0.002  0.00  0.00     0.061 C 
ATOM      3  C3  <0> d           0.722  -0.498  -1.255  0.00  0.00     0.023 C 
ATOM      4  C4  <0> d           2.147   0.059  -1.281  0.00  0.00     0.021 C 
ATOM      5  C5  <0> d           2.912  -0.448  -0.055  0.00  0.00     0.126 C 
ATOM      6  N1  <0> d           2.151  -0.103   1.154  0.00  0.00    -0.349 N 
ATOM      7  C6  <0> d           0.743  -0.512   1.243  0.00  0.00     0.146 C 
ATOM      8  C7  <0> d           2.734   0.576   2.161  0.00  0.00     0.245 C 
ATOM      9  O1  <0> d           2.095   0.856   3.154  0.00  0.00    -0.272 OA
ENDROOT
BRANCH   8  10
ATOM     10  C8  <0> d           4.179   0.989   2.055  0.00  0.00     0.337 C 
BRANCH  10  11
ATOM     11  N2  <0> d           4.574   1.710   3.272  0.00  0.00    -0.061 N 
ATOM     12  C13 <0> d           4.512   0.831   4.358  0.00  0.00     0.265 C 
ATOM     13  C12 <0> d           4.835   1.527   5.694  0.00  0.00     0.297 C 
ATOM     14  N3  <0> d           6.269   1.653   5.821  0.00  0.00     0.085 N 
ATOM     15  C11 <0> d           6.795   2.954   5.347  0.00  0.00     0.271 C 
ATOM     16  H20 <0> d           6.741   0.885   5.367  0.00  0.00     0.315 HD
ATOM     17  C10 <0> d           6.120   3.416   4.044  0.00  0.00     0.057 C 
ATOM     18  C9  <0> d           5.925   2.277   3.075  0.00  0.00     0.237 C 
ATOM     19  H25 <0> d           3.924   2.466   3.428  0.00  0.00     0.280 HD
ENDBRANCH  10  11
ENDBRANCH   8  10
BRANCH   2  20
ATOM     20  C14 <0> d          -1.411  -0.526   0.011  0.00  0.00     0.183 C 
ATOM     21  O2  <0> d          -2.174  -0.237  -0.895  0.00  0.00    -0.647 OA
ATOM     22  O3  <0> d          -1.793  -1.238   0.925  0.00  0.00    -0.647 OA
ENDBRANCH   2  20
TORSDOF 3
