REMARK  2 active torsions:
REMARK  status: ('A' for Active; 'I' for Inactive)
REMARK    1  A    between atoms: C3_3  and  C7_7 
REMARK    2  A    between atoms: C9_9  and  N3_16 
ROOT
ATOM      1  C7  <0> d           3.570   1.967   1.229  0.00  0.00    -0.027 A 
ATOM      2  C8  <0> d           3.973   2.519   2.396  0.00  0.00     0.094 A 
ATOM      3  C9  <0> d           5.303   3.138   2.500  0.00  0.00     0.143 A 
ATOM      4  N1  <0> d           6.150   3.188   1.496  0.00  0.00    -0.221 NA
ATOM      5  C10 <0> d           5.875   2.681   0.296  0.00  0.00     0.125 A 
ATOM      6  S1  <0> d           7.024   2.780  -0.970  0.00  0.00    -0.061 SA
ATOM      7  C11 <0> d           4.538   2.011   0.064  0.00  0.00     0.187 A 
ATOM      8  C12 <0> d           3.875   2.711  -1.048  0.00  0.00     0.075 C 
ATOM      9  N2  <0> d           3.363   3.252  -1.906  0.00  0.00    -0.196 NA
ATOM     10  C13 <0> d           3.103   2.502   3.533  0.00  0.00     0.103 C 
ATOM     11  N4  <0> d           2.412   2.488   4.435  0.00  0.00    -0.191 NA
ENDROOT
BRANCH   1  12
ATOM     12  C3  <0> d           2.213   1.327   1.094  0.00  0.00     0.022 C 
ATOM     13  C2  <0> d           1.411   2.043  -0.000  0.00  0.00     0.013 C 
ATOM     14  C1  <0> d          -0.018   1.496   0.010  0.00  0.00     0.027 C 
ATOM     15  C6  <0> d           0.002  -0.004   0.002  0.00  0.00    -0.031 C 
ATOM     16  C5  <0> d           1.039  -0.717   0.304  0.00  0.00    -0.030 C 
ATOM     17  C4  <0> d           2.369  -0.143   0.695  0.00  0.00     0.036 C 
ENDBRANCH   1  12
BRANCH   3  18
ATOM     18  N3  <0> d           5.676   3.686   3.696  0.00  0.00    -0.383 N 
ATOM     19  H11 <0> d           5.068   3.662   4.451  0.00  0.00     0.157 HD
ATOM     20  H12 <0> d           6.548   4.100   3.789  0.00  0.00     0.157 HD
ENDBRANCH   3  18
TORSDOF 2
