REMARK  5 active torsions:
REMARK  status: ('A' for Active; 'I' for Inactive)
REMARK    1  A    between atoms: C4_4  and  C7_7 
REMARK    2  A    between atoms: C8_8  and  C16_18 
REMARK    3  A    between atoms: N1_10  and  C10_12 
REMARK       I    between atoms: C16_18  and  N3_20 
REMARK    4  A    between atoms: N3_20  and  N4_21 
REMARK       I    between atoms: N4_21  and  C17_22 
REMARK       I    between atoms: C17_22  and  N5_24 
REMARK    5  A    between atoms: N5_24  and  C18_25 
ROOT
ATOM      1  C7  <0> d           3.587  -0.809  -0.172  0.00  0.00     0.105 A 
ATOM      2  C8  <0> d           3.921  -2.021   0.583  0.00  0.00     0.082 A 
ATOM      3  C9  <0> d           5.162  -2.429   0.138  0.00  0.00     0.138 A 
ATOM      4  N1  <0> d           5.567  -1.560  -0.804  0.00  0.00    -0.244 N 
ATOM      5  N2  <0> d           4.591  -0.576  -0.988  0.00  0.00    -0.166 NA
ENDROOT
BRANCH   2   6
ATOM      6  C16 <0> d           3.095  -2.674   1.613  0.00  0.00     0.274 C 
ATOM      7  O1  <0> d           1.972  -2.267   1.840  0.00  0.00    -0.266 OA
ATOM      8  N3  <0> d           3.584  -3.722   2.305  0.00  0.00    -0.262 N 
ATOM      9  H12 <0> d           4.481  -4.046   2.125  0.00  0.00     0.190 HD
BRANCH   8  10
ATOM     10  N4  <0> d           2.799  -4.342   3.285  0.00  0.00    -0.248 N 
ATOM     11  C17 <0> d           3.288  -5.390   3.977  0.00  0.00     0.339 C 
ATOM     12  O2  <0> d           2.607  -5.929   4.828  0.00  0.00    -0.245 OA
ATOM     13  N5  <0> d           4.533  -5.841   3.727  0.00  0.00    -0.308 N 
ATOM     14  H14 <0> d           5.105  -5.365   3.104  0.00  0.00     0.170 HD
ATOM     15  H13 <0> d           1.903  -4.018   3.466  0.00  0.00     0.192 HD
BRANCH  13  16
ATOM     16  C18 <0> d           5.000  -6.992   4.363  0.00  0.00     0.039 A 
ATOM     17  C22 <0> d           6.349  -7.134   4.685  0.00  0.00     0.049 A 
ATOM     18  C21 <0> d           6.769  -8.285   5.318  0.00  0.00     0.118 A 
ATOM     19  N6  <0> d           5.915  -9.248   5.609  0.00  0.00    -0.273 NA
ATOM     20  C20 <0> d           4.632  -9.153   5.316  0.00  0.00     0.118 A 
ATOM     21  C19 <0> d           4.131  -8.032   4.688  0.00  0.00     0.049 A 
ENDBRANCH  13  16
ENDBRANCH   8  10
ENDBRANCH   2   6
BRANCH   1  22
ATOM     22  C4  <0> d           2.349  -0.004  -0.045  0.00  0.00    -0.005 A 
ATOM     23  C3  <0> d           1.837   0.298   1.216  0.00  0.00     0.014 A 
ATOM     24  C2  <0> d           0.685   1.048   1.329  0.00  0.00     0.001 A 
ATOM     25  C1  <0> d           0.038   1.502   0.193  0.00  0.00     0.000 A 
ATOM     26  C6  <0> d           0.541   1.206  -1.061  0.00  0.00     0.001 A 
ATOM     27  C5  <0> d           1.693   0.456  -1.186  0.00  0.00     0.014 A 
ENDBRANCH   1  22
BRANCH   4  28
ATOM     28  C10 <0> d           6.782  -1.631  -1.499  0.00  0.00     0.058 A 
ATOM     29  C15 <0> d           7.094  -0.673  -2.454  0.00  0.00     0.031 A 
ATOM     30  C14 <0> d           8.295  -0.744  -3.134  0.00  0.00     0.002 A 
ATOM     31  C13 <0> d           9.179  -1.774  -2.873  0.00  0.00     0.000 A 
ATOM     32  C12 <0> d           8.868  -2.733  -1.926  0.00  0.00     0.002 A 
ATOM     33  C11 <0> d           7.672  -2.665  -1.239  0.00  0.00     0.031 A 
ENDBRANCH   4  28
TORSDOF 5
