REMARK  7 active torsions:
REMARK  status: ('A' for Active; 'I' for Inactive)
REMARK    1  A    between atoms: C4_4  and  N1_7 
REMARK    2  A    between atoms: C10_12  and  S1_16 
REMARK    3  A    between atoms: S1_16  and  C12_17 
REMARK    4  A    between atoms: C12_17  and  C13_18 
REMARK       I    between atoms: C13_18  and  N5_20 
REMARK    5  A    between atoms: N5_20  and  C14_21 
REMARK    6  A    between atoms: C14_21  and  C15_22 
REMARK       I    between atoms: C15_22  and  N6_24 
REMARK    7  A    between atoms: N6_24  and  C16_25 
ROOT
ATOM      1  C13 <0> d           3.895   7.507   0.427  0.00  0.00     0.227 C 
ATOM      2  O1  <0> d           2.962   8.281   0.459  0.00  0.00    -0.273 OA
ATOM      3  N5  <0> d           3.669   6.183   0.312  0.00  0.00    -0.352 N 
ATOM      4  H10 <0> d           4.416   5.564   0.286  0.00  0.00     0.162 HD
ENDROOT
BRANCH   1   5
ATOM      5  C12 <0> d           5.308   8.025   0.516  0.00  0.00     0.183 C 
BRANCH   5   6
ATOM      6  S1  <0> d           5.280   9.829   0.662  0.00  0.00    -0.100 SA
BRANCH   6   7
ATOM      7  C10 <0> d           7.010  10.156   0.746  0.00  0.00     0.110 A 
ATOM      8  C8  <0> d           7.490  11.474   0.869  0.00  0.00     0.067 A 
ATOM      9  C7  <0> d           8.883  11.673   0.933  0.00  0.00     0.167 A 
ATOM     10  C9  <0> d           6.886  12.747   0.952  0.00  0.00     0.157 A 
ATOM     11  N1  <0> d           9.078  13.020   1.048  0.00  0.00    -0.215 N 
ATOM     12  N4  <0> d           9.687  10.613   0.875  0.00  0.00    -0.221 NA
ATOM     13  N2  <0> d           7.824  13.645   1.056  0.00  0.00    -0.177 NA
ATOM     14  C11 <0> d           9.191   9.400   0.761  0.00  0.00     0.236 A 
ATOM     15  N3  <0> d           7.893   9.163   0.701  0.00  0.00    -0.234 NA
BRANCH  11  16
ATOM     16  C4  <0> d          10.318  13.666   1.142  0.00  0.00     0.060 A 
ATOM     17  C3  <0> d          10.499  14.912   0.557  0.00  0.00     0.031 A 
ATOM     18  C2  <0> d          11.723  15.546   0.651  0.00  0.00     0.002 A 
ATOM     19  C1  <0> d          12.766  14.941   1.328  0.00  0.00     0.000 A 
ATOM     20  C6  <0> d          12.588  13.700   1.912  0.00  0.00     0.002 A 
ATOM     21  C5  <0> d          11.366  13.063   1.825  0.00  0.00     0.031 A 
ENDBRANCH  11  16
ENDBRANCH   6   7
ENDBRANCH   5   6
ENDBRANCH   1   5
BRANCH   3  22
ATOM     22  C14 <0> d           2.296   5.679   0.225  0.00  0.00     0.225 C 
BRANCH  22  23
ATOM     23  C15 <0> d           2.319   4.177   0.104  0.00  0.00     0.239 C 
ATOM     24  O2  <0> d           3.378   3.586   0.091  0.00  0.00    -0.271 OA
ATOM     25  N6  <0> d           1.163   3.491   0.009  0.00  0.00    -0.323 N 
ATOM     26  H13 <0> d           0.321   3.967  -0.061  0.00  0.00     0.169 HD
BRANCH  25  27
ATOM     27  C16 <0> d           1.178   2.090   0.013  0.00  0.00     0.077 A 
ATOM     28  C21 <0> d           0.139   1.381  -0.579  0.00  0.00     0.184 A 
ATOM     29  C20 <0> d           0.156  -0.003  -0.574  0.00  0.00     0.195 A 
ATOM     30  F1  <0> d          -0.884   2.043  -1.163  0.00  0.00    -0.200 F 
ATOM     31  C19 <0> d           1.210  -0.680   0.022  0.00  0.00     0.158 A 
ATOM     32  F2  <0> d          -0.852  -0.694  -1.149  0.00  0.00    -0.199 F 
ATOM     33  C18 <0> d           2.244   0.026   0.611  0.00  0.00     0.048 A 
ATOM     34  F3  <0> d           1.226  -2.031   0.026  0.00  0.00    -0.203 F 
ATOM     35  C17 <0> d           2.230   1.407   0.608  0.00  0.00     0.036 A 
ENDBRANCH  25  27
ENDBRANCH  22  23
ENDBRANCH   3  22
TORSDOF 7
