REMARK  3 active torsions:
REMARK  status: ('A' for Active; 'I' for Inactive)
REMARK    1  A    between atoms: C2_2  and  N3_11 
REMARK    2  A    between atoms: N3_11  and  S1_12 
REMARK    3  A    between atoms: S1_12  and  O5_15 
ROOT
ATOM      1  C1  <0> d          -2.639   0.354   0.788  0.00  0.00     0.128 A 
ATOM      2  C2  <0> d          -2.123   1.286   1.623  0.00  0.00     0.127 A 
ATOM      3  C3  <0> d          -2.865   1.668   2.772  0.00  0.00     0.278 A 
ATOM      4  O1  <0> d          -2.425   2.507   3.537  0.00  0.00    -0.265 OA
ATOM      5  N1  <0> d          -4.061   1.092   3.009  0.00  0.00    -0.274 N 
ATOM      6  H1  <0> d          -4.588   1.356   3.817  0.00  0.00     0.173 HD
ATOM      7  C4  <0> d          -4.548   0.164   2.165  0.00  0.00     0.327 A 
ATOM      8  O2  <0> d          -5.628  -0.345   2.394  0.00  0.00    -0.247 OA
ATOM      9  N2  <0> d          -3.859  -0.209   1.072  0.00  0.00    -0.316 N 
ATOM     10  H2  <0> d          -4.238  -0.904   0.461  0.00  0.00     0.170 HD
ENDROOT
BRANCH   2  11
ATOM     11  N3  <0> d          -0.872   1.871   1.353  0.00  0.00    -0.266 N 
ATOM     12  H4  <0> d          -0.510   2.541   1.955  0.00  0.00     0.180 HD
BRANCH  11  13
ATOM     13  S1  <0> d          -0.017   1.417   0.010  0.00  0.00     0.199 S 
ATOM     14  O3  <0> d           0.002  -0.004   0.002  0.00  0.00    -0.585 OA
ATOM     15  O4  <0> d           1.172   2.195   0.003  0.00  0.00    -0.585 OA
BRANCH  13  16
ATOM     16  O5  <0> d          -0.826   1.847  -1.205  0.00  0.00    -0.279 OA
ATOM     17  H5  <0> d          -0.413   1.628  -2.051  0.00  0.00     0.234 HD
ENDBRANCH  13  16
ENDBRANCH  11  13
ENDBRANCH   2  11
TORSDOF 3
