REMARK  2 active torsions:
REMARK  status: ('A' for Active; 'I' for Inactive)
REMARK    1  A    between atoms: C2_2  and  C4_4 
REMARK    2  A    between atoms: C4_4  and  N1_5 
ROOT
ATOM      1  N1  <0> d          -1.416  -1.993  -0.116  0.00  0.00    -0.316 N 
ATOM      2  C5  <0> d          -1.448  -2.664  -1.326  0.00  0.00     0.045 A 
ATOM      3  C6  <0> d          -1.500  -2.150  -2.623  0.00  0.00     0.033 A 
ATOM      4  C7  <0> d          -1.522  -3.061  -3.667  0.00  0.00     0.044 A 
ATOM      5  C8  <0> d          -1.494  -4.425  -3.447  0.00  0.00     0.117 A 
ATOM      6  C9  <0> d          -1.443  -4.950  -2.159  0.00  0.00     0.053 A 
ATOM      7  C10 <0> d          -1.419  -4.048  -1.116  0.00  0.00    -0.005 A 
ATOM      8  C11 <0> d          -1.365  -4.245   0.365  0.00  0.00     0.111 A 
ATOM      9  C12 <0> d          -1.363  -2.842   0.932  0.00  0.00     0.243 A 
ATOM     10  O1  <0> d          -1.323  -2.538   2.106  0.00  0.00    -0.271 OA
ATOM     11  C13 <0> d          -0.091  -4.978   0.779  0.00  0.00     0.132 C 
ATOM     12  C14 <0> d          -0.225  -6.461   0.574  0.00  0.00     0.225 C 
ATOM     13  O2  <0> d           0.738  -7.089   0.188  0.00  0.00    -0.273 OA
ATOM     14  N2  <0> d          -1.382  -7.116   0.805  0.00  0.00    -0.311 N 
ATOM     15  C15 <0> d          -2.531  -6.366   1.054  0.00  0.00     0.133 A 
ATOM     16  C16 <0> d          -2.562  -5.008   0.860  0.00  0.00     0.030 A 
ATOM     17  C17 <0> d          -3.830  -4.559   1.195  0.00  0.00     0.151 A 
ATOM     18  N3  <0> d          -4.546  -5.595   1.566  0.00  0.00    -0.185 NA
ATOM     19  N4  <0> d          -3.746  -6.745   1.474  0.00  0.00    -0.262 N 
ATOM     20  H1  <0> d          -4.023  -7.652   1.678  0.00  0.00     0.191 HD
ATOM     21  F1  <0> d          -1.518  -5.266  -4.504  0.00  0.00    -0.206 F 
ATOM     22  H16 <0> d          -1.414  -8.086   0.798  0.00  0.00     0.170 HD
ENDROOT
BRANCH   1  23
ATOM     23  C4  <0> d          -1.433  -0.534   0.013  0.00  0.00     0.136 C 
BRANCH  23  24
ATOM     24  C2  <0> d           0.002  -0.004   0.002  0.00  0.00    -0.004 C 
ATOM     25  C1  <0> d          -0.019   1.526   0.010  0.00  0.00     0.011 C 
ATOM     26  C3  <0> d           0.742  -0.511   1.242  0.00  0.00     0.011 C 
ENDBRANCH  23  24
ENDBRANCH   1  23
TORSDOF 2
