REMARK  9 active torsions:
REMARK  status: ('A' for Active; 'I' for Inactive)
REMARK    1  A    between atoms: C2_2  and  O1_3 
REMARK    2  A    between atoms: O1_3  and  C3_4 
REMARK    3  A    between atoms: C5_6  and  C11_16 
REMARK    4  A    between atoms: C8_9  and  O2_10 
REMARK    5  A    between atoms: O2_10  and  C9_11 
REMARK    6  A    between atoms: C9_11  and  C10_12 
REMARK       I    between atoms: C10_12  and  N1_14 
REMARK    7  A    between atoms: C11_16  and  N3_26 
REMARK    8  A    between atoms: C12_17  and  C13_18 
REMARK    9  A    between atoms: C12_17  and  N3_26 
ROOT
ATOM      1  C3  <0> d           0.806   1.987   2.993  0.00  0.00     0.104 A 
ATOM      2  C4  <0> d           1.347   1.611   4.213  0.00  0.00     0.048 A 
ATOM      3  C5  <0> d           0.937   0.439   4.819  0.00  0.00    -0.028 A 
ATOM      4  C6  <0> d          -0.012  -0.362   4.211  0.00  0.00     0.035 A 
ATOM      5  C7  <0> d          -0.559   0.009   2.996  0.00  0.00     0.070 A 
ATOM      6  C8  <0> d          -0.148   1.182   2.381  0.00  0.00     0.124 A 
ATOM      7 Cl1  <0> d          -1.756  -0.996   2.239  0.00  0.00    -0.081 Cl
ENDROOT
BRANCH   3   8
ATOM      8  C11 <0> d           1.526   0.032   6.145  0.00  0.00     0.271 C 
BRANCH   8   9
ATOM      9  N3  <0> d           0.705   0.597   7.232  0.00  0.00    -0.067 N 
ATOM     10  H20 <0> d          -0.255   0.240   7.153  0.00  0.00     0.277 HD
ATOM     11  H21 <0> d           0.696   1.621   7.154  0.00  0.00     0.277 HD
BRANCH   9  12
ATOM     12  C12 <0> d           1.259   0.214   8.545  0.00  0.00     0.271 C 
BRANCH  12  13
ATOM     13  C13 <0> d           0.401   0.804   9.634  0.00  0.00    -0.030 A 
ATOM     14  C17 <0> d          -0.678   0.101  10.147  0.00  0.00     0.028 A 
ATOM     15  C16 <0> d          -1.442   0.674  11.146  0.00  0.00     0.116 A 
ATOM     16  N2  <0> d          -1.154   1.874  11.611  0.00  0.00    -0.273 NA
ATOM     17  C15 <0> d          -0.135   2.571  11.148  0.00  0.00     0.116 A 
ATOM     18  C14 <0> d           0.676   2.061  10.152  0.00  0.00     0.028 A 
ENDBRANCH  12  13
ENDBRANCH   9  12
ENDBRANCH   8   9
ENDBRANCH   3   8
BRANCH   1  19
ATOM     19  O1  <0> d           1.210   3.140   2.396  0.00  0.00    -0.349 OA
BRANCH  19  20
ATOM     20  C2  <0> d           2.193   3.917   3.082  0.00  0.00     0.171 C 
ATOM     21  C1  <0> d           2.518   5.168   2.263  0.00  0.00     0.034 C 
ENDBRANCH  19  20
ENDBRANCH   1  19
BRANCH   6  22
ATOM     22  O2  <0> d          -0.682   1.547   1.184  0.00  0.00    -0.337 OA
BRANCH  22  23
ATOM     23  C9  <0> d          -0.013   1.086   0.008  0.00  0.00     0.278 C 
BRANCH  23  24
ATOM     24  C10 <0> d          -0.742   1.585  -1.213  0.00  0.00     0.239 C 
ATOM     25  O3  <0> d          -1.736   2.268  -1.088  0.00  0.00    -0.271 OA
ATOM     26  N1  <0> d          -0.288   1.272  -2.443  0.00  0.00    -0.368 N 
ATOM     27  H10 <0> d           0.507   0.726  -2.543  0.00  0.00     0.159 HD
ATOM     28  H11 <0> d          -0.758   1.594  -3.229  0.00  0.00     0.159 HD
ENDBRANCH  23  24
ENDBRANCH  22  23
ENDBRANCH   6  22
TORSDOF 9
