REMARK  4 active torsions:
REMARK  status: ('A' for Active; 'I' for Inactive)
REMARK    1  A    between atoms: C2_2  and  C3_3 
REMARK    2  A    between atoms: C3_3  and  C4_4 
REMARK    3  A    between atoms: C4_4  and  N1_5 
REMARK       I    between atoms: N2_15  and  C16_23 
REMARK    4  A    between atoms: C13_17  and  N4_19 
REMARK       I    between atoms: N4_19  and  C14_20 
ROOT
ATOM      1  N1  <0> d          -0.446   1.270  -2.726  0.00  0.00    -0.314 N 
ATOM      2  C5  <0> d          -0.468  -0.059  -3.159  0.00  0.00     0.053 A 
ATOM      3  C6  <0> d          -1.137  -1.170  -2.651  0.00  0.00    -0.034 A 
ATOM      4  C7  <0> d          -1.001  -2.401  -3.259  0.00  0.00     0.015 A 
ATOM      5  C8  <0> d          -0.202  -2.542  -4.378  0.00  0.00    -0.061 A 
ATOM      6  C9  <0> d           0.466  -1.444  -4.890  0.00  0.00     0.020 A 
ATOM      7  C10 <0> d           0.336  -0.213  -4.287  0.00  0.00     0.020 A 
ATOM      8  C11 <0> d           0.897   1.145  -4.563  0.00  0.00     0.224 A 
ATOM      9  C12 <0> d           0.334   2.046  -3.508  0.00  0.00     0.271 A 
ATOM     10  O1  <0> d           0.538   3.234  -3.381  0.00  0.00    -0.269 OA
ATOM     11  N2  <0> d           0.646   1.618  -5.924  0.00  0.00    -0.201 N 
ATOM     12  N3  <0> d           1.782   1.875  -6.669  0.00  0.00    -0.141 NA
ATOM     13  C13 <0> d           2.987   1.712  -6.201  0.00  0.00     0.191 A 
ATOM     14  S1  <0> d           2.723   1.133  -4.530  0.00  0.00    -0.042 SA
ATOM     15  C16 <0> d          -0.597   1.789  -6.414  0.00  0.00     0.238 C 
ATOM     16  O3  <0> d          -1.562   1.548  -5.719  0.00  0.00    -0.272 OA
ATOM     17  C17 <0> d          -0.789   2.279  -7.826  0.00  0.00     0.119 C 
ATOM     18  C18 <0> d          -0.058  -3.889  -5.038  0.00  0.00     0.048 C 
ATOM     19  C19 <0> d          -2.011  -1.027  -1.431  0.00  0.00     0.050 C 
ENDROOT
BRANCH  13  20
ATOM     20  N4  <0> d           4.194   1.934  -6.849  0.00  0.00    -0.305 N 
ATOM     21  C14 <0> d           4.204   2.376  -8.122  0.00  0.00     0.219 C 
ATOM     22  O2  <0> d           3.158   2.579  -8.702  0.00  0.00    -0.274 OA
ATOM     23  C15 <0> d           5.515   2.618  -8.826  0.00  0.00     0.117 C 
ATOM     24  H12 <0> d           5.030   1.772  -6.385  0.00  0.00     0.171 HD
ENDBRANCH  13  20
BRANCH   1  25
ATOM     25  C4  <0> d          -1.187   1.764  -1.563  0.00  0.00     0.132 C 
BRANCH  25  26
ATOM     26  C3  <0> d          -0.317   1.634  -0.311  0.00  0.00     0.020 C 
BRANCH  26  27
ATOM     27  C2  <0> d          -1.091   2.150   0.904  0.00  0.00    -0.003 C 
ATOM     28  C1  <0> d          -0.221   2.021   2.155  0.00  0.00     0.005 C 
ENDBRANCH  26  27
ENDBRANCH  25  26
ENDBRANCH   1  25
TORSDOF 4
