REMARK  4 active torsions:
REMARK  status: ('A' for Active; 'I' for Inactive)
REMARK    1  A    between atoms: C3_3  and  C5_6 
REMARK    2  A    between atoms: C5_6  and  C6_7 
REMARK    3  A    between atoms: C5_6  and  N1_13 
REMARK    4  A    between atoms: N1_13  and  C10_14 
ROOT
ATOM      1  C5  <0> d           4.377   0.797   0.139  0.00  0.00     0.283 C 
ENDROOT
BRANCH   1   2
ATOM      2  C3  <0> d           3.131   1.639   0.045  0.00  0.00     0.088 A 
ATOM      3  C2  <0> d           3.071   2.974   0.195  0.00  0.00     0.037 A 
ATOM      4  C1  <0> d           1.717   3.345   0.028  0.00  0.00     0.027 A 
ATOM      5  C4  <0> d           1.030   2.213  -0.213  0.00  0.00     0.142 A 
ATOM      6  O1  <0> d           1.892   1.183  -0.202  0.00  0.00    -0.325 OA
ENDBRANCH   1   2
BRANCH   1   7
ATOM      7  C6  <0> d           4.872   0.476  -1.248  0.00  0.00     0.021 A 
ATOM      8  S1  <0> d           4.295  -0.771  -2.387  0.00  0.00    -0.080 SA
ATOM      9  C9  <0> d           5.422  -0.428  -3.728  0.00  0.00     0.075 A 
ATOM     10  C8  <0> d           6.158   0.593  -3.223  0.00  0.00     0.032 A 
ATOM     11 Cl1  <0> d           5.549  -1.205  -5.276  0.00  0.00    -0.076 Cl
ATOM     12  C7  <0> d           5.875   1.056  -1.951  0.00  0.00     0.019 A 
ENDBRANCH   1   7
BRANCH   1  13
ATOM     13  N1  <0> d           4.072  -0.452   0.851  0.00  0.00    -0.048 N 
ATOM     14  H8  <0> d           3.304  -0.920   0.394  0.00  0.00     0.279 HD
ATOM     15  H18 <0> d           4.884  -1.051   0.842  0.00  0.00     0.279 HD
BRANCH  13  16
ATOM     16  C10 <0> d           3.705  -0.146   2.240  0.00  0.00     0.278 C 
ATOM     17  C15 <0> d           4.529   1.021   2.739  0.00  0.00     0.248 C 
ATOM     18  N2  <0> d           5.855   1.025   2.567  0.00  0.00    -0.359 N 
ATOM     19  O2  <0> d           3.986   1.949   3.301  0.00  0.00    -0.271 OA
ATOM     20  C14 <0> d           6.523  -0.093   1.881  0.00  0.00     0.122 C 
ATOM     21  H17 <0> d           6.380   1.772   2.894  0.00  0.00     0.162 HD
ATOM     22  C13 <0> d           6.511  -1.312   2.807  0.00  0.00     0.020 C 
ATOM     23  C12 <0> d           5.224  -2.100   2.646  0.00  0.00     0.004 C 
ATOM     24  C11 <0> d           3.989  -1.361   3.126  0.00  0.00     0.043 C 
ENDBRANCH  13  16
ENDBRANCH   1  13
TORSDOF 4
