REMARK  6 active torsions:
REMARK  status: ('A' for Active; 'I' for Inactive)
REMARK    1  A    between atoms: N1_2  and  C2_3 
REMARK       I    between atoms: N1_2  and  C7_10 
REMARK    2  A    between atoms: C2_3  and  C3_4 
REMARK       I    between atoms: C7_10  and  N2_12 
REMARK    3  A    between atoms: N2_12  and  C8_13 
REMARK    4  A    between atoms: C8_13  and  C9_14 
REMARK    5  A    between atoms: C9_14  and  C10_15 
REMARK    6  A    between atoms: C10_15  and  N3_16 
ROOT
ATOM      1  C1  <0> d          -0.018   1.461   0.010  0.00  0.00     0.154 C 
ATOM      2  N1  <0> d           0.002  -0.004   0.002  0.00  0.00    -0.334 N 
ATOM      3  C7  <0> d           0.000  -0.672  -1.169  0.00  0.00     0.318 C 
ATOM      4  O1  <0> d           0.017  -1.887  -1.175  0.00  0.00    -0.247 OA
ATOM      5  N2  <0> d          -0.020   0.009  -2.332  0.00  0.00    -0.343 N 
ATOM      6  H8  <0> d          -0.033   0.978  -2.327  0.00  0.00     0.164 HD
ENDROOT
BRANCH   2   7
ATOM      7  C2  <0> d           0.024  -0.743   1.267  0.00  0.00     0.166 C 
BRANCH   7   8
ATOM      8  C3  <0> d          -1.389  -1.016   1.714  0.00  0.00    -0.032 A 
ATOM      9  C6  <0> d          -2.026  -2.148   1.328  0.00  0.00     0.059 A 
ATOM     10  S1  <0> d          -3.616  -1.966   2.119  0.00  0.00    -0.094 SA
ATOM     11  C5  <0> d          -3.328  -0.389   2.903  0.00  0.00     0.051 A 
ATOM     12  C4  <0> d          -2.057  -0.112   2.519  0.00  0.00     0.036 A 
ATOM     13 Br1  <0> d          -4.492   0.632   3.989  0.00  0.00    -0.043 Br
ENDBRANCH   7   8
ENDBRANCH   2   7
BRANCH   5  14
ATOM     14  C8  <0> d          -0.022  -0.717  -3.605  0.00  0.00     0.126 C 
BRANCH  14  15
ATOM     15  C9  <0> d          -0.047   0.283  -4.762  0.00  0.00     0.040 C 
BRANCH  15  16
ATOM     16  C10 <0> d          -0.049  -0.475  -6.091  0.00  0.00     0.130 C 
BRANCH  16  17
ATOM     17  N3  <0> d          -0.073   0.483  -7.200  0.00  0.00    -0.352 N 
ATOM     18  C13 <0> d           1.001   1.022  -7.816  0.00  0.00     0.182 A 
ATOM     19  N4  <0> d           0.585   1.828  -8.754  0.00  0.00    -0.361 N 
ATOM     20  C12 <0> d          -0.757   1.838  -8.765  0.00  0.00     0.106 A 
ATOM     21  H18 <0> d           1.155   2.341  -9.348  0.00  0.00     0.166 HD
ATOM     22  C11 <0> d          -1.188   1.004  -7.800  0.00  0.00     0.108 A 
ENDBRANCH  16  17
ENDBRANCH  15  16
ENDBRANCH  14  15
ENDBRANCH   5  14
TORSDOF 6
