REMARK  7 active torsions:
REMARK  status: ('A' for Active; 'I' for Inactive)
REMARK    1  A    between atoms: N1_2  and  C2_3 
REMARK       I    between atoms: N1_2  and  C15_22 
REMARK    2  A    between atoms: C5_6  and  N2_9 
REMARK       I    between atoms: N2_9  and  C8_10 
REMARK    3  A    between atoms: C8_10  and  C9_12 
REMARK       I    between atoms: C9_12  and  N3_14 
REMARK    4  A    between atoms: N3_14  and  C10_15 
REMARK    5  A    between atoms: C10_15  and  C11_16 
REMARK    6  A    between atoms: C11_16  and  C12_17 
REMARK    7  A    between atoms: C15_22  and  O4_24 
ROOT
ATOM      1  N2  <0> d           0.073  -2.801   4.805  0.00  0.00    -0.319 N 
ATOM      2  C8  <0> d          -0.513  -2.278   5.900  0.00  0.00     0.313 C 
ATOM      3  O1  <0> d          -0.979  -1.158   5.863  0.00  0.00    -0.262 OA
ATOM      4  H8  <0> d           0.503  -3.670   4.853  0.00  0.00     0.169 HD
ENDROOT
BRANCH   1   5
ATOM      5  C5  <0> d           0.062  -2.092   3.600  0.00  0.00     0.035 A 
ATOM      6  C4  <0> d           0.155  -0.706   3.609  0.00  0.00     0.032 A 
ATOM      7  C3  <0> d           0.145  -0.006   2.420  0.00  0.00     0.032 A 
ATOM      8  C2  <0> d           0.043  -0.687   1.214  0.00  0.00     0.039 A 
ATOM      9  C7  <0> d          -0.055  -2.072   1.205  0.00  0.00     0.032 A 
ATOM     10  C6  <0> d          -0.040  -2.773   2.394  0.00  0.00     0.032 A 
BRANCH   8  11
ATOM     11  N1  <0> d           0.033   0.024   0.007  0.00  0.00    -0.298 N 
ATOM     12  C1  <0> d          -1.074   0.932  -0.299  0.00  0.00     0.162 C 
ATOM     13  C15 <0> d           1.043  -0.129  -0.873  0.00  0.00     0.366 C 
ATOM     14  O3  <0> d           1.914  -0.949  -0.662  0.00  0.00    -0.238 OA
BRANCH  13  15
ATOM     15  O4  <0> d           1.086   0.628  -1.986  0.00  0.00    -0.309 OA
ATOM     16  C16 <0> d           2.184   0.413  -2.875  0.00  0.00     0.215 C 
ENDBRANCH  13  15
ENDBRANCH   8  11
ENDBRANCH   1   5
BRANCH   2  17
ATOM     17  C9  <0> d          -0.591  -3.078   7.159  0.00  0.00     0.309 C 
ATOM     18  O2  <0> d          -0.126  -4.198   7.197  0.00  0.00    -0.262 OA
ATOM     19  N3  <0> d          -1.178  -2.555   8.254  0.00  0.00    -0.353 N 
ATOM     20  H9  <0> d          -1.550  -1.659   8.225  0.00  0.00     0.162 HD
BRANCH  19  21
ATOM     21  C10 <0> d          -1.254  -3.339   9.489  0.00  0.00     0.130 C 
BRANCH  21  22
ATOM     22  C11 <0> d          -1.962  -2.520  10.571  0.00  0.00     0.086 C 
BRANCH  22  23
ATOM     23  C12 <0> d          -2.040  -3.326  11.841  0.00  0.00     0.076 A 
ATOM     24  S1  <0> d          -3.255  -4.380  12.337  0.00  0.00    -0.085 SA
ATOM     25  C14 <0> d          -2.536  -4.865  13.898  0.00  0.00     0.070 A 
ATOM     26  C13 <0> d          -1.392  -4.134  13.885  0.00  0.00     0.124 A 
ATOM     27  N4  <0> d          -1.182  -3.372  12.830  0.00  0.00    -0.258 NA
ENDBRANCH  22  23
ENDBRANCH  21  22
ENDBRANCH  19  21
ENDBRANCH   2  17
TORSDOF 7
