REMARK  5 active torsions:
REMARK  status: ('A' for Active; 'I' for Inactive)
REMARK    1  A    between atoms: N1_3  and  C6_8 
REMARK    2  A    between atoms: C4_5  and  C5_6 
REMARK    3  A    between atoms: C5_6  and  O1_7 
REMARK    4  A    between atoms: C6_8  and  C7_9 
REMARK       I    between atoms: C7_9  and  N2_11 
REMARK    5  A    between atoms: N2_11  and  C8_12 
ROOT
ATOM      1  C7  <0> d           4.252   2.200   0.445  0.00  0.00     0.243 C 
ATOM      2  O2  <0> d           3.596   3.132   0.860  0.00  0.00    -0.272 OA
ATOM      3  N2  <0> d           5.596   2.225   0.543  0.00  0.00    -0.353 N 
ATOM      4  H15 <0> d           6.121   1.480   0.211  0.00  0.00     0.163 HD
ENDROOT
BRANCH   1   5
ATOM      5  C6  <0> d           3.565   1.013  -0.180  0.00  0.00     0.337 C 
BRANCH   5   6
ATOM      6  N1  <0> d           2.111   1.227  -0.168  0.00  0.00    -0.062 N 
ATOM      7  C2  <0> d           1.745   2.357  -1.061  0.00  0.00     0.236 C 
ATOM      8  C1  <0> d           0.257   2.120  -1.397  0.00  0.00     0.036 C 
ATOM      9  C4  <0> d           0.036   0.607  -1.195  0.00  0.00     0.037 C 
ATOM     10  C3  <0> d           1.409   0.056  -0.754  0.00  0.00     0.242 C 
ATOM     11  H20 <0> d           1.786   1.400   0.771  0.00  0.00     0.280 HD
BRANCH   9  12
ATOM     12  C5  <0> d          -0.402  -0.046  -2.507  0.00  0.00     0.170 C 
BRANCH  12  13
ATOM     13  O1  <0> d          -1.695   0.440  -2.873  0.00  0.00    -0.400 OA
ATOM     14  H12 <0> d          -2.037   0.067  -3.697  0.00  0.00     0.209 HD
ENDBRANCH  12  13
ENDBRANCH   9  12
ENDBRANCH   5   6
ENDBRANCH   1   5
BRANCH   3  15
ATOM     15  C8  <0> d           6.264   3.379   1.151  0.00  0.00     0.117 C 
ATOM     16  C11 <0> d           6.612   3.035   2.591  0.00  0.00     0.119 C 
ATOM     17  C10 <0> d           8.117   3.127   2.914  0.00  0.00     0.162 C 
ATOM     18 Cl1  <0> d           6.052   1.356   2.933  0.00  0.00    -0.122 Cl
ATOM     19  S1  <0> d           8.702   4.262   1.581  0.00  0.00     0.147 S 
ATOM     20  C9  <0> d           7.490   3.750   0.287  0.00  0.00     0.167 C 
ATOM     21  O3  <0> d          10.010   3.880   1.179  0.00  0.00    -0.228 OA
ATOM     22  O4  <0> d           8.446   5.607   1.961  0.00  0.00    -0.228 OA
ENDBRANCH   3  15
TORSDOF 5
