REMARK  3 active torsions:
REMARK  status: ('A' for Active; 'I' for Inactive)
REMARK    1  A    between atoms: C4_4  and  S1_10 
REMARK    2  A    between atoms: S1_10  and  N1_13 
REMARK    3  A    between atoms: N1_13  and  N2_14 
ROOT
ATOM      1  S1  <0> d          -0.045   0.063  -0.040  0.00  0.00     0.277 S 
ATOM      2  O1  <0> d           0.909  -0.458   0.875  0.00  0.00    -0.199 OA
ATOM      3  O2  <0> d          -1.441  -0.158   0.107  0.00  0.00    -0.199 OA
ENDROOT
BRANCH   1   4
ATOM      4  C4  <0> d           0.188   1.809  -0.072  0.00  0.00     0.087 A 
ATOM      5  C3  <0> d          -0.893   2.653   0.099  0.00  0.00     0.034 A 
ATOM      6  C2  <0> d          -0.710   4.024   0.079  0.00  0.00    -0.039 A 
ATOM      7  C1  <0> d          -1.887   4.944   0.271  0.00  0.00     0.050 C 
ATOM      8  C7  <0> d           0.554   4.549  -0.123  0.00  0.00     0.040 A 
ATOM      9  C6  <0> d           1.635   3.703  -0.299  0.00  0.00     0.032 A 
ATOM     10 Cl1  <0> d           0.783   6.270  -0.155  0.00  0.00    -0.084 Cl
ATOM     11  C5  <0> d           1.451   2.334  -0.274  0.00  0.00    -0.037 A 
ATOM     12  C8  <0> d           2.628   1.413  -0.466  0.00  0.00     0.050 C 
ENDBRANCH   1   4
BRANCH   1  13
ATOM     13  N1  <0> d           0.370  -0.514  -1.536  0.00  0.00    -0.214 N 
ATOM     14  H9  <0> d           1.113  -1.132  -1.628  0.00  0.00     0.201 HD
BRANCH  13  15
ATOM     15  N2  <0> d          -0.350  -0.110  -2.667  0.00  0.00    -0.231 N 
ATOM     16  C10 <0> d           0.160   0.289  -3.858  0.00  0.00     0.258 A 
ATOM     17  N4  <0> d          -0.849   0.578  -4.635  0.00  0.00    -0.142 NA
ATOM     18  N3  <0> d          -1.952   0.383  -4.002  0.00  0.00    -0.142 NA
ATOM     19  C9  <0> d          -1.697  -0.043  -2.796  0.00  0.00     0.258 A 
ENDBRANCH  13  15
ENDBRANCH   1  13
TORSDOF 3
