REMARK  3 active torsions:
REMARK  status: ('A' for Active; 'I' for Inactive)
REMARK    1  A    between atoms: C3_3  and  C7_9 
REMARK    2  A    between atoms: C4_4  and  O1_8 
REMARK    3  A    between atoms: C6_6  and  N1_7 
ROOT
ATOM      1  C1  <0> d          -0.017   1.388   0.010  0.00  0.00     0.030 A 
ATOM      2  C2  <0> d           1.164   2.096   0.002  0.00  0.00     0.020 A 
ATOM      3  C3  <0> d           2.385   1.419  -0.013  0.00  0.00     0.043 A 
ATOM      4  C4  <0> d           2.403   0.017  -0.021  0.00  0.00     0.081 A 
ATOM      5  C5  <0> d           1.212  -0.687  -0.013  0.00  0.00     0.066 A 
ATOM      6  C6  <0> d           0.002  -0.004   0.002  0.00  0.00     0.028 A 
ENDROOT
BRANCH   3   7
ATOM      7  C7  <0> d           3.652   2.176  -0.022  0.00  0.00     0.141 A 
ATOM      8  N3  <0> d           4.850   1.642  -0.035  0.00  0.00    -0.228 NA
ATOM      9  C13 <0> d           5.786   2.623  -0.043  0.00  0.00     0.086 A 
ATOM     10  C8  <0> d           5.101   3.851  -0.023  0.00  0.00     0.064 A 
ATOM     11  C12 <0> d           7.184   2.616  -0.059  0.00  0.00     0.035 A 
ATOM     12  N2  <0> d           3.754   3.542  -0.010  0.00  0.00    -0.338 N 
ATOM     13  C9  <0> d           5.816   5.040  -0.021  0.00  0.00     0.051 A 
ATOM     14  H1  <0> d           3.018   4.174   0.005  0.00  0.00     0.167 HD
ATOM     15  C10 <0> d           7.195   5.009  -0.038  0.00  0.00     0.013 A 
ATOM     16  C11 <0> d           7.871   3.797  -0.057  0.00  0.00     0.021 A 
ATOM     17 Br1  <0> d           8.171   6.629  -0.035  0.00  0.00    -0.051 Br
ENDBRANCH   3   7
BRANCH   4  18
ATOM     18  O1  <0> d           3.587  -0.649  -0.036  0.00  0.00    -0.360 OA
ATOM     19  H7  <0> d           3.938  -0.846   0.843  0.00  0.00     0.217 HD
ENDBRANCH   4  18
BRANCH   6  20
ATOM     20  N1  <0> d          -1.196  -0.715   0.010  0.00  0.00    -0.399 N 
ATOM     21  H5  <0> d          -2.042  -0.240   0.020  0.00  0.00     0.156 HD
ATOM     22  H6  <0> d          -1.185  -1.685   0.004  0.00  0.00     0.156 HD
ENDBRANCH   6  20
TORSDOF 3
