REMARK  5 active torsions:
REMARK  status: ('A' for Active; 'I' for Inactive)
REMARK    1  A    between atoms: C5_7  and  C7_10 
REMARK       I    between atoms: C7_10  and  N4_12 
REMARK    2  A    between atoms: N4_12  and  C8_13 
REMARK    3  A    between atoms: C8_13  and  C9_14 
REMARK    4  A    between atoms: C9_14  and  C10_15 
REMARK    5  A    between atoms: C9_14  and  N6_21 
ROOT
ATOM      1  C8  <0> d           0.137   1.442   5.688  0.00  0.00     0.161 C 
ENDROOT
BRANCH   1   2
ATOM      2  N4  <0> d          -1.130   2.124   5.411  0.00  0.00    -0.354 N 
ATOM      3  C7  <0> d          -1.301   2.781   4.247  0.00  0.00     0.257 C 
ATOM      4  O1  <0> d          -0.404   2.807   3.425  0.00  0.00    -0.267 OA
ATOM      5  H8  <0> d          -1.845   2.103   6.066  0.00  0.00     0.162 HD
BRANCH   3   6
ATOM      6  C5  <0> d          -2.568   3.464   3.970  0.00  0.00     0.097 A 
ATOM      7  C4  <0> d          -2.893   4.182   2.815  0.00  0.00     0.147 A 
ATOM      8  N1  <0> d          -2.441   4.601   1.593  0.00  0.00    -0.344 N 
ATOM      9  N2  <0> d          -4.151   4.646   2.973  0.00  0.00    -0.226 N 
ATOM     10  C1  <0> d          -1.122   4.324   1.018  0.00  0.00     0.157 C 
ATOM     11  C2  <0> d          -3.453   5.327   0.998  0.00  0.00     0.111 A 
ATOM     12  C3  <0> d          -4.489   5.355   1.833  0.00  0.00     0.137 A 
ATOM     13  N3  <0> d          -4.620   4.226   4.224  0.00  0.00    -0.178 NA
ATOM     14  C6  <0> d          -3.695   3.521   4.819  0.00  0.00     0.160 A 
ENDBRANCH   3   6
ENDBRANCH   1   2
BRANCH   1  15
ATOM     15  C9  <0> d           0.120   0.895   7.117  0.00  0.00     0.240 C 
BRANCH  15  16
ATOM     16  C10 <0> d           0.075   2.042   8.093  0.00  0.00    -0.008 A 
ATOM     17  C14 <0> d           1.228   2.734   8.412  0.00  0.00     0.125 A 
ATOM     18  N5  <0> d           1.196   3.743   9.261  0.00  0.00    -0.273 NA
ATOM     19  C13 <0> d           0.076   4.122   9.845  0.00  0.00     0.116 A 
ATOM     20  C12 <0> d          -1.115   3.474   9.579  0.00  0.00     0.020 A 
ATOM     21  C11 <0> d          -1.122   2.412   8.687  0.00  0.00     0.012 A 
ENDBRANCH  15  16
BRANCH  15  22
ATOM     22  N6  <0> d           1.332   0.099   7.351  0.00  0.00    -0.061 N 
ATOM     23  C18 <0> d           1.355  -1.073   6.449  0.00  0.00     0.236 C 
ATOM     24  C17 <0> d           1.991  -2.235   7.234  0.00  0.00     0.029 C 
ATOM     25  C16 <0> d           2.294  -1.657   8.635  0.00  0.00     0.029 C 
ATOM     26  C15 <0> d           1.325  -0.452   8.730  0.00  0.00     0.236 C 
ATOM     27  H23 <0> d           2.154   0.666   7.206  0.00  0.00     0.280 HD
ENDBRANCH  15  22
ENDBRANCH   1  15
TORSDOF 5
