REMARK  2 active torsions:
REMARK  status: ('A' for Active; 'I' for Inactive)
REMARK    1  A    between atoms: N1_7  and  C6_8 
REMARK    2  A    between atoms: C13_15  and  O2_16 
ROOT
ATOM      1  C6  <0> d          -0.028  -0.133   2.061  0.00  0.00     0.217 C 
ATOM      2  C7  <0> d          -1.399  -0.808   2.008  0.00  0.00     0.036 C 
ATOM      3  C8  <0> d          -2.081  -0.687   3.373  0.00  0.00     0.002 C 
ATOM      4  C9  <0> d          -2.611   0.737   3.553  0.00  0.00     0.000 C 
ATOM      5  C10 <0> d          -1.447   1.678   3.870  0.00  0.00     0.000 C 
ATOM      6  C11 <0> d          -0.526   1.022   4.901  0.00  0.00     0.002 C 
ATOM      7  C12 <0> d           0.824   0.709   4.254  0.00  0.00     0.034 C 
ATOM      8  C13 <0> d           0.684  -0.523   3.357  0.00  0.00     0.149 C 
ENDROOT
BRANCH   1   9
ATOM      9  N1  <0> d           0.776  -0.566   0.910  0.00  0.00    -0.052 N 
ATOM     10  C2  <0> d           1.888   0.373   0.708  0.00  0.00     0.142 C 
ATOM     11  C1  <0> d           2.766   0.402   1.961  0.00  0.00     0.048 C 
ATOM     12  C3  <0> d           2.724  -0.081  -0.491  0.00  0.00     0.206 C 
ATOM     13  C14 <0> d           1.331   1.773   0.442  0.00  0.00     0.048 C 
ATOM     14  O1  <0> d           3.195  -1.411  -0.261  0.00  0.00    -0.387 OA
ATOM     15  C4  <0> d           2.149  -2.360  -0.034  0.00  0.00     0.195 C 
ATOM     16  C5  <0> d           1.312  -1.910   1.166  0.00  0.00     0.262 C 
ATOM     17  H28 <0> d           0.198  -0.586   0.084  0.00  0.00     0.281 HD
ENDBRANCH   1   9
BRANCH   8  18
ATOM     18  O2  <0> d           1.982  -1.039   3.051  0.00  0.00    -0.393 OA
ATOM     19  H24 <0> d           2.513  -1.254   3.829  0.00  0.00     0.210 HD
ENDBRANCH   8  18
TORSDOF 2
