REMARK  1 active torsions:
REMARK  status: ('A' for Active; 'I' for Inactive)
REMARK    1  A    between atoms: N1_5  and  C9_11 
ROOT
ATOM      1  C1  <0> d           0.247   1.593  -0.038  0.00  0.00     0.040 C 
ATOM      2  C2  <0> d           0.197   0.064  -0.050  0.00  0.00     0.183 C 
ATOM      3  C3  <0> d           0.785  -0.456  -1.365  0.00  0.00     0.062 C 
ATOM      4  C4  <0> d          -0.227  -1.393  -2.031  0.00  0.00     0.275 C 
ATOM      5  N1  <0> d          -0.248  -2.672  -1.307  0.00  0.00     0.093 N 
ATOM      6  C5  <0> d          -0.976  -2.551  -0.039  0.00  0.00     0.278 C 
ATOM      7  C6  <0> d          -0.004  -2.703   1.131  0.00  0.00     0.035 C 
ATOM      8  C7  <0> d           1.260  -1.887   0.853  0.00  0.00     0.238 C 
ATOM      9  N2  <0> d           0.982  -0.461   1.077  0.00  0.00    -0.071 N 
ATOM     10  C8  <0> d          -0.667  -2.195   2.413  0.00  0.00     0.013 C 
ATOM     11  H14 <0> d           1.852   0.045   1.146  0.00  0.00     0.277 HD
ATOM     12  H27 <0> d           0.458  -0.350   1.932  0.00  0.00     0.277 HD
ENDROOT
BRANCH   5  13
ATOM     13  C9  <0> d          -0.816  -3.740  -2.141  0.00  0.00     0.224 C 
ATOM     14  C13 <0> d          -2.156  -3.278  -2.704  0.00  0.00     0.051 C 
ATOM     15  C12 <0> d          -2.887  -4.459  -3.348  0.00  0.00     0.142 C 
ATOM     16  S1  <0> d          -1.904  -5.065  -4.752  0.00  0.00     0.144 S 
ATOM     17  C11 <0> d          -0.282  -5.349  -3.983  0.00  0.00     0.142 C 
ATOM     18  O1  <0> d          -2.433  -6.316  -5.167  0.00  0.00    -0.228 OA
ATOM     19  O2  <0> d          -1.776  -4.016  -5.702  0.00  0.00    -0.228 OA
ATOM     20  C10 <0> d           0.159  -4.069  -3.268  0.00  0.00     0.051 C 
ENDBRANCH   5  13
TORSDOF 1
