REMARK  11 active torsions:
REMARK  status: ('A' for Active; 'I' for Inactive)
REMARK    1  A    between atoms: C2_2  and  O1_5 
REMARK    2  A    between atoms: O1_5  and  C5_6 
REMARK    3  A    between atoms: C5_6  and  C6_8 
REMARK    4  A    between atoms: C6_8  and  C7_9 
REMARK    5  A    between atoms: C7_9  and  C8_10 
REMARK    6  A    between atoms: C7_9  and  C25_31 
REMARK    7  A    between atoms: C8_10  and  N1_11 
REMARK    8  A    between atoms: C14_17  and  O5_30 
REMARK    9  A    between atoms: C22_26  and  O4_27 
REMARK   10  A    between atoms: C25_31  and  O7_33 
REMARK   11  A    between atoms: O7_33  and  C26_34 
ROOT
ATOM      1  N1  <0> d           6.321   0.022  -3.604  0.00  0.00    -0.066 N 
ATOM      2  C9  <0> d           6.958  -0.216  -4.868  0.00  0.00     0.236 C 
ATOM      3  C10 <0> d           8.029   0.771  -5.229  0.00  0.00     0.049 C 
ATOM      4  C11 <0> d           9.345   0.475  -4.538  0.00  0.00     0.036 C 
ATOM      5  C12 <0> d           9.829  -0.902  -4.851  0.00  0.00    -0.011 C 
ATOM      6  C13 <0> d          10.934  -1.185  -5.455  0.00  0.00     0.002 C 
ATOM      7  C14 <0> d          11.910  -0.154  -5.927  0.00  0.00     0.143 C 
ATOM      8  C15 <0> d          11.274   1.216  -6.034  0.00  0.00     0.069 C 
ATOM      9  C16 <0> d          10.370   1.558  -4.881  0.00  0.00     0.148 C 
ATOM     10  O3  <0> d          11.095   1.755  -3.661  0.00  0.00    -0.341 OA
ATOM     11  C17 <0> d          10.312   1.389  -2.623  0.00  0.00     0.110 A 
ATOM     12  C18 <0> d           9.213   0.621  -3.032  0.00  0.00     0.001 A 
ATOM     13  C19 <0> d           8.303   0.116  -2.156  0.00  0.00    -0.022 A 
ATOM     14  C20 <0> d           8.546   0.355  -0.794  0.00  0.00     0.012 A 
ATOM     15  C21 <0> d           9.610   1.114  -0.369  0.00  0.00     0.040 A 
ATOM     16  C22 <0> d          10.518   1.665  -1.265  0.00  0.00     0.102 A 
ATOM     17  C24 <0> d           7.002  -0.565  -2.468  0.00  0.00     0.274 C 
ATOM     18  H42 <0> d           6.261   1.019  -3.461  0.00  0.00     0.280 HD
ENDROOT
BRANCH   1  19
ATOM     19  C8  <0> d           4.957  -0.522  -3.661  0.00  0.00     0.250 C 
BRANCH  19  20
ATOM     20  C7  <0> d           4.165  -0.039  -2.444  0.00  0.00     0.120 C 
BRANCH  20  21
ATOM     21  C6  <0> d           2.801  -0.732  -2.415  0.00  0.00     0.127 C 
BRANCH  21  22
ATOM     22  C5  <0> d           2.071  -0.351  -1.154  0.00  0.00     0.260 C 
ATOM     23  O2  <0> d           2.587   0.399  -0.359  0.00  0.00    -0.265 OA
BRANCH  22  24
ATOM     24  O1  <0> d           0.846  -0.844  -0.913  0.00  0.00    -0.311 OA
BRANCH  24  25
ATOM     25  C2  <0> d           0.211  -0.441   0.302  0.00  0.00     0.060 C 
ATOM     26  C1  <0> d           0.051   1.081   0.313  0.00  0.00     0.045 C 
ATOM     27  C3  <0> d           1.070  -0.872   1.493  0.00  0.00     0.045 C 
ATOM     28  C4  <0> d          -1.166  -1.099   0.402  0.00  0.00     0.045 C 
ENDBRANCH  24  25
ENDBRANCH  22  24
ENDBRANCH  21  22
ENDBRANCH  20  21
BRANCH  20  29
ATOM     29  C25 <0> d           3.968   1.453  -2.533  0.00  0.00     0.265 C 
ATOM     30  O6  <0> d           2.851   1.913  -2.570  0.00  0.00    -0.265 OA
BRANCH  29  31
ATOM     31  O7  <0> d           5.032   2.269  -2.572  0.00  0.00    -0.311 OA
BRANCH  31  32
ATOM     32  C26 <0> d           4.771   3.672  -2.656  0.00  0.00     0.060 C 
ATOM     33  C27 <0> d           3.959   4.114  -1.437  0.00  0.00     0.045 C 
ATOM     34  C28 <0> d           6.097   4.436  -2.689  0.00  0.00     0.045 C 
ATOM     35  C29 <0> d           3.980   3.968  -3.931  0.00  0.00     0.045 C 
ENDBRANCH  31  32
ENDBRANCH  29  31
ENDBRANCH  20  29
ENDBRANCH  19  20
ENDBRANCH   1  19
BRANCH  16  36
ATOM     36  O4  <0> d          11.558   2.433  -0.845  0.00  0.00    -0.353 OA
ATOM     37  C23 <0> d          11.676   2.651   0.563  0.00  0.00     0.210 C 
ENDBRANCH  16  36
BRANCH   7  38
ATOM     38  O5  <0> d          13.001  -0.090  -5.006  0.00  0.00    -0.392 OA
ATOM     39  H32 <0> d          13.483  -0.922  -4.909  0.00  0.00     0.210 HD
ENDBRANCH   7  38
TORSDOF 11
