REMARK  4 active torsions:
REMARK  status: ('A' for Active; 'I' for Inactive)
REMARK    1  A    between atoms: C5_5  and  N2_13 
REMARK    2  A    between atoms: C7_7  and  S1_8 
REMARK    3  A    between atoms: S1_8  and  N1_11 
REMARK       I    between atoms: N2_13  and  C9_14 
REMARK    4  A    between atoms: C9_14  and  C10_16 
ROOT
ATOM      1  C1  <0> d           7.380  -2.654   0.610  0.00  0.00     0.050 C 
ATOM      2  C2  <0> d           6.004  -2.083   0.383  0.00  0.00    -0.039 A 
ATOM      3  C3  <0> d           5.809  -0.715   0.424  0.00  0.00     0.010 A 
ATOM      4  C4  <0> d           4.551  -0.188   0.212  0.00  0.00     0.030 A 
ATOM      5  C5  <0> d           3.477  -1.035  -0.033  0.00  0.00     0.036 A 
ATOM      6  C6  <0> d           3.676  -2.409  -0.074  0.00  0.00     0.055 A 
ATOM      7  C7  <0> d           4.939  -2.929   0.134  0.00  0.00     0.087 A 
ENDROOT
BRANCH   5   8
ATOM      8  N2  <0> d           2.200  -0.506  -0.244  0.00  0.00    -0.323 N 
ATOM      9  C9  <0> d           1.114  -1.169   0.199  0.00  0.00     0.259 C 
ATOM     10  O3  <0> d           1.237  -2.267   0.706  0.00  0.00    -0.267 OA
ATOM     11  H11 <0> d           2.096   0.339  -0.710  0.00  0.00     0.169 HD
BRANCH   9  12
ATOM     12  C10 <0> d          -0.225  -0.562   0.069  0.00  0.00     0.070 A 
ATOM     13  C15 <0> d          -1.355  -1.247   0.528  0.00  0.00     0.133 A 
ATOM     14  C14 <0> d          -2.606  -0.671   0.403  0.00  0.00     0.062 A 
ATOM     15  F1  <0> d          -1.224  -2.467   1.093  0.00  0.00    -0.205 F 
ATOM     16  C13 <0> d          -2.740   0.578  -0.175  0.00  0.00     0.013 A 
ATOM     17  C12 <0> d          -1.623   1.264  -0.626  0.00  0.00     0.020 A 
ATOM     18 Br1  <0> d          -4.454   1.359  -0.343  0.00  0.00    -0.051 Br
ATOM     19  C11 <0> d          -0.371   0.700  -0.513  0.00  0.00     0.021 A 
ENDBRANCH   9  12
ENDBRANCH   5   8
BRANCH   7  20
ATOM     20  S1  <0> d           5.192  -4.672   0.082  0.00  0.00     0.259 S 
ATOM     21  O1  <0> d           3.922  -5.260  -0.163  0.00  0.00    -0.201 OA
ATOM     22  O2  <0> d           6.311  -4.895  -0.765  0.00  0.00    -0.201 OA
BRANCH  20  23
ATOM     23  N1  <0> d           5.648  -5.146   1.602  0.00  0.00    -0.320 N 
ATOM     24  C8  <0> d           4.710  -5.020   2.721  0.00  0.00     0.159 C 
ATOM     25  H7  <0> d           6.536  -5.506   1.752  0.00  0.00     0.171 HD
ENDBRANCH  20  23
ENDBRANCH   7  20
TORSDOF 4
