REMARK  8 active torsions:
REMARK  status: ('A' for Active; 'I' for Inactive)
REMARK    1  A    between atoms: C2_2  and  C3_3 
REMARK    2  A    between atoms: C3_3  and  N1_4 
REMARK    3  A    between atoms: N1_4  and  C4_5 
REMARK    4  A    between atoms: N1_4  and  C8_9 
REMARK    5  A    between atoms: C4_5  and  C5_6 
REMARK    6  A    between atoms: C8_9  and  C9_10 
REMARK       I    between atoms: C9_10  and  N2_12 
REMARK    7  A    between atoms: N2_12  and  C10_13 
REMARK    8  A    between atoms: C13_16  and  N3_20 
ROOT
ATOM      1  C9  <0> d          -0.411  -4.174  -1.536  0.00  0.00     0.248 C 
ATOM      2  O1  <0> d           0.622  -4.793  -1.681  0.00  0.00    -0.271 OA
ATOM      3  N2  <0> d          -1.513  -4.800  -1.076  0.00  0.00    -0.323 N 
ATOM      4  H17 <0> d          -2.351  -4.316  -1.005  0.00  0.00     0.169 HD
ENDROOT
BRANCH   3   5
ATOM      5  C10 <0> d          -1.447  -6.149  -0.701  0.00  0.00     0.078 A 
ATOM      6  C15 <0> d          -2.460  -7.024  -1.075  0.00  0.00     0.064 A 
ATOM      7  C14 <0> d          -2.392  -8.355  -0.710  0.00  0.00     0.055 A 
ATOM      8 Cl1  <0> d          -3.805  -6.447  -2.007  0.00  0.00    -0.082 Cl
ATOM      9  C13 <0> d          -1.318  -8.816   0.041  0.00  0.00     0.029 A 
ATOM     10  C12 <0> d          -0.309  -7.940   0.420  0.00  0.00     0.055 A 
ATOM     11  C11 <0> d          -0.373  -6.611   0.050  0.00  0.00     0.064 A 
ATOM     12 Cl2  <0> d           0.889  -5.516   0.523  0.00  0.00    -0.082 Cl
BRANCH   9  13
ATOM     13  N3  <0> d          -1.253 -10.162   0.416  0.00  0.00    -0.399 N 
ATOM     14  H20 <0> d          -0.503 -10.484   0.940  0.00  0.00     0.156 HD
ATOM     15  H21 <0> d          -1.958 -10.774   0.151  0.00  0.00     0.156 HD
ENDBRANCH   9  13
ENDBRANCH   3   5
BRANCH   1  16
ATOM     16  C8  <0> d          -0.462  -2.705  -1.869  0.00  0.00     0.337 C 
BRANCH  16  17
ATOM     17  N1  <0> d           0.862  -2.260  -2.324  0.00  0.00    -0.062 N 
ATOM     18  H22 <0> d           1.559  -2.532  -1.647  0.00  0.00     0.280 HD
BRANCH  17  19
ATOM     19  C3  <0> d           0.864  -0.798  -2.468  0.00  0.00     0.235 C 
BRANCH  19  20
ATOM     20  C2  <0> d           0.667  -0.150  -1.096  0.00  0.00     0.023 C 
ATOM     21  C1  <0> d           0.811   1.368  -1.224  0.00  0.00     0.007 C 
ENDBRANCH  19  20
ENDBRANCH  17  19
BRANCH  17  22
ATOM     22  C4  <0> d           1.169  -2.880  -3.619  0.00  0.00     0.240 C 
BRANCH  22  23
ATOM     23  C5  <0> d           2.596  -2.516  -4.033  0.00  0.00     0.011 A 
ATOM     24  C7  <0> d           3.150  -3.164  -5.304  0.00  0.00     0.007 A 
ATOM     25  C6  <0> d           2.772  -1.681  -5.303  0.00  0.00     0.007 A 
ENDBRANCH  22  23
ENDBRANCH  17  22
ENDBRANCH  16  17
ENDBRANCH   1  16
TORSDOF 8
