REMARK  2 active torsions:
REMARK  status: ('A' for Active; 'I' for Inactive)
REMARK    1  A    between atoms: C3_3  and  C5_6 
REMARK    2  A    between atoms: C9_10  and  C14_22 
ROOT
ATOM      1  C5  <0> d          -1.250   2.203   0.020  0.00  0.00     0.056 C 
ATOM      2  C6  <0> d          -2.097   1.907  -1.220  0.00  0.00     0.069 C 
ATOM      3  C7  <0> d          -3.356   2.738  -1.184  0.00  0.00     0.022 C 
ATOM      4  C8  <0> d          -3.924   3.088  -0.011  0.00  0.00     0.024 C 
ATOM      5  C9  <0> d          -5.183   3.917   0.023  0.00  0.00     0.099 C 
ATOM      6  C10 <0> d          -5.883   3.898  -1.304  0.00  0.00     0.067 A 
ATOM      7  C11 <0> d          -5.227   3.516  -2.435  0.00  0.00     0.122 A 
ATOM      8  N1  <0> d          -5.890   3.521  -3.639  0.00  0.00    -0.294 N 
ATOM      9  H3  <0> d          -5.412   3.244  -4.472  0.00  0.00     0.172 HD
ATOM     10  C12 <0> d          -7.181   3.897  -3.701  0.00  0.00     0.328 A 
ATOM     11  O2  <0> d          -7.753   3.898  -4.774  0.00  0.00    -0.247 OA
ATOM     12  N2  <0> d          -7.847   4.273  -2.595  0.00  0.00    -0.275 N 
ATOM     13  H4  <0> d          -8.807   4.547  -2.662  0.00  0.00     0.173 HD
ATOM     14  C13 <0> d          -7.233   4.283  -1.395  0.00  0.00     0.260 A 
ATOM     15  O3  <0> d          -7.843   4.623  -0.396  0.00  0.00    -0.267 OA
ATOM     16  N3  <0> d          -3.912   3.128  -2.372  0.00  0.00    -0.345 N 
ATOM     17  C20 <0> d          -3.358   2.694   1.215  0.00  0.00     0.159 C 
ATOM     18  O4  <0> d          -3.905   3.010   2.253  0.00  0.00    -0.293 OA
ATOM     19  C21 <0> d          -2.085   1.894   1.268  0.00  0.00     0.095 C 
ATOM     20  H10 <0> d          -3.372   3.131  -3.178  0.00  0.00     0.167 HD
ENDROOT
BRANCH   5  21
ATOM     21  C14 <0> d          -4.829   5.339   0.375  0.00  0.00    -0.043 A 
ATOM     22  C19 <0> d          -3.996   6.067  -0.453  0.00  0.00     0.030 A 
ATOM     23  C18 <0> d          -3.675   7.374  -0.135  0.00  0.00     0.050 A 
ATOM     24  C17 <0> d          -4.179   7.949   1.020  0.00  0.00     0.133 A 
ATOM     25 Br1  <0> d          -2.541   8.374  -1.272  0.00  0.00    -0.048 Br
ATOM     26  C16 <0> d          -5.009   7.215   1.851  0.00  0.00     0.044 A 
ATOM     27  F1  <0> d          -3.862   9.224   1.335  0.00  0.00    -0.205 F 
ATOM     28  C15 <0> d          -5.333   5.912   1.528  0.00  0.00     0.011 A 
ENDBRANCH   5  21
BRANCH   1  29
ATOM     29  C3  <0> d          -0.016   1.339   0.009  0.00  0.00     0.057 A 
ATOM     30  C2  <0> d           1.254   1.781  -0.000  0.00  0.00     0.035 A 
ATOM     31  C1  <0> d           2.086   0.638  -0.014  0.00  0.00     0.027 A 
ATOM     32  C4  <0> d           1.274  -0.435  -0.012  0.00  0.00     0.142 A 
ATOM     33  O1  <0> d           0.002  -0.004   0.002  0.00  0.00    -0.327 OA
ENDBRANCH   1  29
TORSDOF 2
