REMARK  5 active torsions:
REMARK  status: ('A' for Active; 'I' for Inactive)
REMARK       I    between atoms: N1_2  and  C2_3 
REMARK    1  A    between atoms: C2_3  and  C3_5 
REMARK    2  A    between atoms: C6_8  and  N2_11 
REMARK       I    between atoms: N2_11  and  C9_12 
REMARK    3  A    between atoms: C9_12  and  C10_14 
REMARK    4  A    between atoms: C10_14  and  O3_15 
REMARK    5  A    between atoms: O3_15  and  C11_16 
ROOT
ATOM      1  C10 <0> d          -2.204  -8.528   0.187  0.00  0.00     0.278 C 
ENDROOT
BRANCH   1   2
ATOM      2  C9  <0> d          -2.232  -7.025   0.082  0.00  0.00     0.246 C 
ATOM      3  N2  <0> d          -1.079  -6.335  -0.022  0.00  0.00    -0.325 N 
ATOM      4  H10 <0> d          -0.237  -6.808  -0.106  0.00  0.00     0.169 HD
ATOM      5  O2  <0> d          -3.293  -6.436   0.091  0.00  0.00    -0.271 OA
BRANCH   3   6
ATOM      6  C6  <0> d          -1.098  -4.940  -0.008  0.00  0.00     0.034 A 
ATOM      7  C5  <0> d          -2.044  -4.266   0.757  0.00  0.00     0.030 A 
ATOM      8  C4  <0> d          -2.064  -2.890   0.774  0.00  0.00     0.019 A 
ATOM      9  C3  <0> d          -1.133  -2.170   0.021  0.00  0.00     0.032 A 
ATOM     10  C8  <0> d          -0.188  -2.850  -0.751  0.00  0.00     0.019 A 
ATOM     11  C7  <0> d          -0.169  -4.226  -0.758  0.00  0.00     0.030 A 
BRANCH   9  12
ATOM     12  C2  <0> d          -1.153  -0.694   0.036  0.00  0.00     0.251 C 
ATOM     13  N1  <0> d          -2.065  -0.039   0.781  0.00  0.00    -0.361 N 
ATOM     14  C1  <0> d          -2.084   1.425   0.796  0.00  0.00     0.149 C 
ATOM     15  H5  <0> d          -2.709  -0.538   1.308  0.00  0.00     0.162 HD
ATOM     16  O1  <0> d          -0.345  -0.069  -0.623  0.00  0.00    -0.268 OA
ENDBRANCH   9  12
ENDBRANCH   3   6
ENDBRANCH   1   2
BRANCH   1  17
ATOM     17  O3  <0> d          -3.541  -9.024   0.285  0.00  0.00    -0.342 OA
BRANCH  17  18
ATOM     18  C11 <0> d          -3.693 -10.371   0.387  0.00  0.00     0.068 C 
ATOM     19  C22 <0> d          -5.002 -10.898   0.487  0.00  0.00     0.037 C 
ATOM     20  C21 <0> d          -5.238 -12.233   0.273  0.00  0.00     0.013 C 
ATOM     21  C14 <0> d          -4.117 -13.051   0.157  0.00  0.00    -0.019 C 
ATOM     22  C13 <0> d          -2.737 -12.613   0.598  0.00  0.00     0.142 C 
ATOM     23  C15 <0> d          -3.920 -14.246  -0.492  0.00  0.00    -0.001 A 
ATOM     24  C12 <0> d          -2.590 -11.145   0.395  0.00  0.00     0.039 C 
ATOM     25  N3  <0> d          -1.794 -13.489  -0.066  0.00  0.00    -0.377 N 
ATOM     26  C20 <0> d          -2.454 -14.465  -0.624  0.00  0.00     0.039 A 
ATOM     27  H20 <0> d          -0.831 -13.374  -0.091  0.00  0.00     0.160 HD
ATOM     28  C19 <0> d          -1.978 -15.626  -1.291  0.00  0.00     0.030 A 
ATOM     29  C18 <0> d          -2.917 -16.493  -1.764  0.00  0.00     0.002 A 
ATOM     30  C17 <0> d          -4.288 -16.292  -1.625  0.00  0.00     0.001 A 
ATOM     31  C16 <0> d          -4.827 -15.201  -1.005  0.00  0.00     0.014 A 
ENDBRANCH  17  18
ENDBRANCH   1  17
TORSDOF 5
