REMARK  2 active torsions:
REMARK  status: ('A' for Active; 'I' for Inactive)
REMARK    1  A    between atoms: C11_13  and  O2_26 
REMARK    2  A    between atoms: N4_19  and  C15_20 
ROOT
ATOM      1  C1  <0> d          -0.018   1.461   0.010  0.00  0.00     0.159 C 
ATOM      2  N1  <0> d           0.002  -0.004   0.002  0.00  0.00    -0.321 N 
ATOM      3  C2  <0> d          -1.135  -0.793   0.003  0.00  0.00     0.044 A 
ATOM      4  C3  <0> d          -2.478  -0.413   0.013  0.00  0.00     0.030 A 
ATOM      5  C4  <0> d          -3.424  -1.426   0.011  0.00  0.00     0.002 A 
ATOM      6  C5  <0> d          -3.067  -2.759  -0.000  0.00  0.00     0.001 A 
ATOM      7  C6  <0> d          -1.733  -3.152  -0.009  0.00  0.00     0.011 A 
ATOM      8  C7  <0> d          -0.786  -2.150  -0.007  0.00  0.00    -0.008 A 
ATOM      9  C8  <0> d           0.708  -2.195  -0.015  0.00  0.00     0.110 A 
ATOM     10  C9  <0> d           1.131  -0.744  -0.013  0.00  0.00     0.242 A 
ATOM     11  O1  <0> d           2.269  -0.324  -0.022  0.00  0.00    -0.271 OA
ATOM     12  C10 <0> d           1.236  -2.896  -1.266  0.00  0.00     0.115 C 
ATOM     13  C11 <0> d           1.214  -4.390  -1.109  0.00  0.00     0.141 C 
ATOM     14  N2  <0> d           1.389  -4.996   0.027  0.00  0.00    -0.209 NA
ATOM     15  C12 <0> d           1.557  -4.258   1.162  0.00  0.00     0.163 A 
ATOM     16  C13 <0> d           1.242  -2.904   1.198  0.00  0.00     0.032 A 
ATOM     17  C14 <0> d           1.514  -2.440   2.471  0.00  0.00     0.152 A 
ATOM     18  N3  <0> d           1.960  -3.442   3.194  0.00  0.00    -0.177 NA
ATOM     19  N4  <0> d           1.988  -4.599   2.397  0.00  0.00    -0.215 N 
ENDROOT
BRANCH  13  20
ATOM     20  O2  <0> d           1.000  -5.143  -2.207  0.00  0.00    -0.348 OA
ATOM     21  H16 <0> d           0.997  -6.095  -2.037  0.00  0.00     0.219 HD
ENDBRANCH  13  20
BRANCH  19  22
ATOM     22  C15 <0> d           2.392  -5.875   2.809  0.00  0.00     0.060 A 
ATOM     23  C20 <0> d           3.422  -6.017   3.729  0.00  0.00     0.031 A 
ATOM     24  C19 <0> d           3.814  -7.277   4.138  0.00  0.00     0.002 A 
ATOM     25  C18 <0> d           3.189  -8.397   3.622  0.00  0.00     0.000 A 
ATOM     26  C17 <0> d           2.167  -8.260   2.701  0.00  0.00     0.002 A 
ATOM     27  C16 <0> d           1.767  -7.003   2.293  0.00  0.00     0.031 A 
ENDBRANCH  19  22
TORSDOF 2
