REMARK  3 active torsions:
REMARK  status: ('A' for Active; 'I' for Inactive)
REMARK    1  A    between atoms: C2_2  and  C4_4 
REMARK    2  A    between atoms: C4_4  and  N1_5 
REMARK    3  A    between atoms: C7_8  and  C9_10 
ROOT
ATOM      1  C9  <0> d          -5.564   0.028  -2.091  0.00  0.00     0.111 A 
ATOM      2  N2  <0> d          -6.559  -0.697  -2.505  0.00  0.00    -0.228 NA
ATOM      3  C10 <0> d          -7.718  -0.233  -1.949  0.00  0.00     0.148 A 
ATOM      4  H2  <0> d          -5.506   1.656  -0.796  0.00  0.00     0.167 HD
ATOM      5  C11 <0> d          -7.389   0.834  -1.174  0.00  0.00     0.045 A 
ATOM      6  N3  <0> d          -6.036   0.984  -1.254  0.00  0.00    -0.345 N 
ATOM      7  C12 <0> d          -8.299   1.713  -0.376  0.00  0.00     0.061 C 
ATOM      8  C13 <0> d          -9.497   0.982   0.170  0.00  0.00     0.026 C 
ATOM      9  C14 <0> d         -10.528   0.647  -0.873  0.00  0.00     0.123 C 
ATOM     10  N4  <0> d         -10.196  -0.480  -1.701  0.00  0.00    -0.356 N 
ATOM     11  C15 <0> d          -9.027  -0.838  -2.181  0.00  0.00     0.272 C 
ATOM     12  O1  <0> d          -9.036  -1.804  -2.920  0.00  0.00    -0.266 OA
ATOM     13  H24 <0> d         -10.939  -1.058  -1.938  0.00  0.00     0.162 HD
ENDROOT
BRANCH   1  14
ATOM     14  C7  <0> d          -4.120  -0.167  -2.474  0.00  0.00     0.083 C 
ATOM     15  C6  <0> d          -3.394   1.193  -2.535  0.00  0.00     0.042 C 
ATOM     16  C5  <0> d          -2.274   1.097  -1.477  0.00  0.00     0.235 C 
ATOM     17  N1  <0> d          -2.024  -0.360  -1.327  0.00  0.00    -0.070 N 
ATOM     18  C8  <0> d          -3.377  -0.970  -1.385  0.00  0.00     0.247 C 
ATOM     19  H25 <0> d          -1.450  -0.701  -2.084  0.00  0.00     0.279 HD
BRANCH  17  20
ATOM     20  C4  <0> d          -1.388  -0.642  -0.033  0.00  0.00     0.238 C 
BRANCH  20  21
ATOM     21  C2  <0> d           0.050  -0.119  -0.046  0.00  0.00     0.003 C 
ATOM     22  C1  <0> d           0.665  -0.283   1.345  0.00  0.00     0.011 C 
ATOM     23  C3  <0> d           0.871  -0.913  -1.064  0.00  0.00     0.011 C 
ENDBRANCH  20  21
ENDBRANCH  17  20
ENDBRANCH   1  14
TORSDOF 3
