REMARK  6 active torsions:
REMARK  status: ('A' for Active; 'I' for Inactive)
REMARK    1  A    between atoms: C3_3  and  C7_10 
REMARK    2  A    between atoms: C5_5  and  N1_7 
REMARK    3  A    between atoms: C8_11  and  C12_22 
REMARK    4  A    between atoms: C9_12  and  C11_17 
REMARK    5  A    between atoms: C9_12  and  O4_21 
REMARK    6  A    between atoms: C12_22  and  C13_24 
ROOT
ATOM      1  C7  <0> d           2.711   1.513  -0.235  0.00  0.00     0.136 C 
ATOM      2  C8  <0> d           2.929   0.704  -1.519  0.00  0.00     0.153 C 
ATOM      3  C9  <0> d           3.949  -0.403  -1.230  0.00  0.00     0.248 C 
ATOM      4  N2  <0> d           3.480  -1.205  -0.099  0.00  0.00    -0.303 N 
ATOM      5  C10 <0> d           2.707  -0.674   0.860  0.00  0.00     0.319 C 
ATOM      6  O3  <0> d           2.353  -1.382   1.783  0.00  0.00    -0.247 OA
ATOM      7  N3  <0> d           2.309   0.606   0.841  0.00  0.00    -0.333 N 
ATOM      8  H7  <0> d           3.733  -2.140  -0.042  0.00  0.00     0.167 HD
ATOM      9  H8  <0> d           1.743   0.939   1.556  0.00  0.00     0.165 HD
ENDROOT
BRANCH   1  10
ATOM     10  C3  <0> d           1.628   2.536  -0.463  0.00  0.00    -0.032 A 
ATOM     11  C2  <0> d           0.301   2.186  -0.302  0.00  0.00     0.009 A 
ATOM     12  C1  <0> d          -0.692   3.123  -0.517  0.00  0.00     0.003 A 
ATOM     13  C6  <0> d          -0.358   4.413  -0.881  0.00  0.00     0.036 A 
ATOM     14  C5  <0> d           0.970   4.764  -1.042  0.00  0.00     0.103 A 
ATOM     15  C4  <0> d           1.963   3.826  -0.833  0.00  0.00     0.045 A 
BRANCH  14  16
ATOM     16  N1  <0> d           1.328   6.145  -1.438  0.00  0.00    -0.116 N 
ATOM     17  O1  <0> d           2.497   6.454  -1.580  0.00  0.00    -0.532 OA
ATOM     18  O2  <0> d           0.453   6.972  -1.623  0.00  0.00    -0.532 OA
ENDBRANCH  14  16
ENDBRANCH   1  10
BRANCH   2  19
ATOM     19  C12 <0> d           1.625   0.089  -1.957  0.00  0.00     0.172 C 
ATOM     20  O5  <0> d           1.062  -0.712  -1.242  0.00  0.00    -0.292 OA
BRANCH  19  21
ATOM     21  C13 <0> d           1.035   0.462  -3.253  0.00  0.00     0.028 A 
ATOM     22  C17 <0> d           1.606   1.474  -4.030  0.00  0.00     0.131 A 
ATOM     23  N4  <0> d           1.081   1.802  -5.192  0.00  0.00    -0.272 NA
ATOM     24  C16 <0> d           0.001   1.207  -5.662  0.00  0.00     0.116 A 
ATOM     25  C15 <0> d          -0.628   0.200  -4.951  0.00  0.00     0.020 A 
ATOM     26  C14 <0> d          -0.114  -0.189  -3.727  0.00  0.00     0.018 A 
ENDBRANCH  19  21
ENDBRANCH   2  19
BRANCH   3  27
ATOM     27  C11 <0> d           4.098  -1.295  -2.463  0.00  0.00     0.438 C 
ATOM     28  F1  <0> d           2.895  -1.969  -2.700  0.00  0.00    -0.166 F 
ATOM     29  F2  <0> d           4.418  -0.507  -3.574  0.00  0.00    -0.166 F 
ATOM     30  F3  <0> d           5.119  -2.227  -2.244  0.00  0.00    -0.166 F 
ENDBRANCH   3  27
BRANCH   3  31
ATOM     31  O4  <0> d           5.212   0.183  -0.908  0.00  0.00    -0.363 OA
ATOM     32  H9  <0> d           5.905  -0.462  -0.709  0.00  0.00     0.213 HD
ENDBRANCH   3  31
TORSDOF 6
