REMARK  5 active torsions:
REMARK  status: ('A' for Active; 'I' for Inactive)
REMARK    1  A    between atoms: C2_2  and  C3_3 
REMARK    2  A    between atoms: C5_9  and  C16_23 
REMARK    3  A    between atoms: C6_10  and  C7_12 
REMARK       I    between atoms: C7_12  and  N5_14 
REMARK    4  A    between atoms: N5_14  and  C8_15 
REMARK    5  A    between atoms: C19_26  and  O2_30 
ROOT
ATOM      1  C3  <0> d          -2.689  -3.607  -1.924  0.00  0.00     0.145 A 
ATOM      2  N1  <0> d          -3.829  -4.123  -1.554  0.00  0.00    -0.133 NA
ATOM      3  N2  <0> d          -4.193  -3.629  -0.421  0.00  0.00    -0.121 NA
ATOM      4  C4  <0> d          -3.300  -2.770  -0.015  0.00  0.00     0.207 A 
ATOM      5  N3  <0> d          -2.306  -2.729  -0.951  0.00  0.00    -0.236 N 
ATOM      6  N4  <0> d          -1.177  -1.975  -0.912  0.00  0.00    -0.219 NA
ATOM      7  C5  <0> d          -1.280  -0.804  -0.040  0.00  0.00     0.133 C 
ATOM      8  C6  <0> d          -1.585  -1.234   1.401  0.00  0.00     0.171 C 
ATOM      9  S1  <0> d          -3.313  -1.800   1.460  0.00  0.00    -0.072 SA
ATOM     10  H8  <0> d          -0.375  -2.538  -0.669  0.00  0.00     0.148 HD
ENDROOT
BRANCH   8  11
ATOM     11  C7  <0> d          -0.667  -2.359   1.804  0.00  0.00     0.238 C 
ATOM     12  O1  <0> d          -1.055  -3.507   1.751  0.00  0.00    -0.272 OA
ATOM     13  N5  <0> d           0.586  -2.090   2.221  0.00  0.00    -0.326 N 
ATOM     14  H9  <0> d           0.868  -1.170   2.345  0.00  0.00     0.169 HD
BRANCH  13  15
ATOM     15  C8  <0> d           1.479  -3.136   2.477  0.00  0.00     0.041 A 
ATOM     16  C13 <0> d           2.421  -3.015   3.489  0.00  0.00    -0.035 A 
ATOM     17  C12 <0> d           3.298  -4.053   3.742  0.00  0.00     0.009 A 
ATOM     18  C14 <0> d           2.484  -1.756   4.315  0.00  0.00     0.050 C 
ATOM     19  C11 <0> d           3.244  -5.206   2.981  0.00  0.00     0.007 A 
ATOM     20  C10 <0> d           2.311  -5.327   1.968  0.00  0.00    -0.060 A 
ATOM     21  C9  <0> d           1.428  -4.296   1.714  0.00  0.00     0.037 A 
ATOM     22  C15 <0> d           2.257  -6.585   1.141  0.00  0.00     0.048 C 
ENDBRANCH  13  15
ENDBRANCH   8  11
BRANCH   7  23
ATOM     23  C16 <0> d           0.022  -0.046  -0.068  0.00  0.00    -0.035 A 
ATOM     24  C21 <0> d           0.015   1.336  -0.088  0.00  0.00     0.035 A 
ATOM     25  C20 <0> d           1.209   2.034  -0.113  0.00  0.00     0.068 A 
ATOM     26  C19 <0> d           2.414   1.345  -0.119  0.00  0.00     0.089 A 
ATOM     27 Cl1  <0> d           1.200   3.770  -0.139  0.00  0.00    -0.081 Cl
ATOM     28  C18 <0> d           2.417  -0.042  -0.100  0.00  0.00     0.039 A 
ATOM     29  C17 <0> d           1.222  -0.734  -0.074  0.00  0.00     0.012 A 
BRANCH  26  30
ATOM     30  O2  <0> d           3.589   2.028  -0.145  0.00  0.00    -0.354 OA
ATOM     31  C22 <0> d           4.790   1.253  -0.151  0.00  0.00     0.210 C 
ENDBRANCH  26  30
ENDBRANCH   7  23
BRANCH   1  32
ATOM     32  C2  <0> d          -1.935  -3.921  -3.190  0.00  0.00     0.077 C 
ATOM     33  C1  <0> d          -0.978  -5.088  -2.937  0.00  0.00     0.013 C 
ENDBRANCH   1  32
TORSDOF 5
