REMARK  3 active torsions:
REMARK  status: ('A' for Active; 'I' for Inactive)
REMARK    1  A    between atoms: C10_10  and  N1_11 
REMARK       I    between atoms: N1_11  and  C11_12 
REMARK    2  A    between atoms: C11_12  and  C12_14 
REMARK    3  A    between atoms: C15_17  and  N2_20 
ROOT
ATOM      1  C12 <0> d           6.250   1.800   1.359  0.00  0.00     0.032 A 
ATOM      2  C13 <0> d           6.418   1.336   2.666  0.00  0.00     0.019 A 
ATOM      3  C14 <0> d           7.276   1.990   3.522  0.00  0.00     0.033 A 
ATOM      4  C15 <0> d           7.975   3.111   3.086  0.00  0.00     0.062 A 
ATOM      5  C16 <0> d           7.810   3.575   1.786  0.00  0.00     0.033 A 
ATOM      6  C17 <0> d           6.957   2.923   0.923  0.00  0.00     0.019 A 
ENDROOT
BRANCH   1   7
ATOM      7  C11 <0> d           5.330   1.101   0.438  0.00  0.00     0.252 C 
ATOM      8  N1  <0> d           4.649   0.018   0.860  0.00  0.00    -0.348 N 
ATOM      9  H12 <0> d           4.762  -0.302   1.769  0.00  0.00     0.163 HD
ATOM     10  O1  <0> d           5.189   1.503  -0.701  0.00  0.00    -0.268 OA
BRANCH   8  11
ATOM     11  C10 <0> d           3.736  -0.675  -0.053  0.00  0.00     0.118 C 
ATOM     12  C4  <0> d           2.393   0.006  -0.025  0.00  0.00    -0.029 A 
ATOM     13  C3  <0> d           2.372   1.395  -0.016  0.00  0.00     0.010 A 
ATOM     14  C5  <0> d           1.208  -0.694  -0.013  0.00  0.00    -0.050 A 
ATOM     15  C2  <0> d           1.174   2.078   0.002  0.00  0.00     0.001 A 
ATOM     16  C1  <0> d          -0.017   1.375   0.010  0.00  0.00     0.001 A 
ATOM     17  C6  <0> d           0.002  -0.004   0.002  0.00  0.00     0.007 A 
ATOM     18  C7  <0> d           1.155  -2.199  -0.005  0.00  0.00     0.039 C 
ATOM     19  C8  <0> d           2.493  -2.786  -0.452  0.00  0.00     0.007 C 
ATOM     20  C9  <0> d           3.607  -2.135   0.376  0.00  0.00     0.030 C 
ENDBRANCH   8  11
ENDBRANCH   1   7
BRANCH   4  21
ATOM     21  N2  <0> d           8.845   3.773   3.957  0.00  0.00    -0.195 N 
ATOM     22  N5  <0> d           8.677   3.942   5.339  0.00  0.00    -0.058 NA
ATOM     23  N4  <0> d           9.676   4.597   5.816  0.00  0.00    -0.128 NA
ATOM     24  C19 <0> d          10.543   4.909   4.827  0.00  0.00     0.128 A 
ATOM     25  C18 <0> d          10.028   4.390   3.625  0.00  0.00     0.183 A 
ATOM     26  C20 <0> d          11.761   5.602   4.796  0.00  0.00     0.039 A 
ATOM     27  N3  <0> d          10.687   4.555   2.487  0.00  0.00    -0.239 NA
ATOM     28  C22 <0> d          11.832   5.203   2.445  0.00  0.00     0.119 A 
ATOM     29  C21 <0> d          12.399   5.742   3.591  0.00  0.00     0.022 A 
ENDBRANCH   4  21
TORSDOF 3
