REMARK  5 active torsions:
REMARK  status: ('A' for Active; 'I' for Inactive)
REMARK    1  A    between atoms: C2_2  and  N1_3 
REMARK    2  A    between atoms: C4_5  and  C12_15 
REMARK       I    between atoms: C12_15  and  N3_17 
REMARK    3  A    between atoms: N3_17  and  C13_18 
REMARK    4  A    between atoms: C13_18  and  C14_19 
REMARK    5  A    between atoms: C14_19  and  N4_25 
ROOT
ATOM      1  C12 <0> d          -0.577   1.384   0.552  0.00  0.00     0.257 C 
ATOM      2  O2  <0> d          -1.704   1.766   0.803  0.00  0.00    -0.267 OA
ATOM      3  N3  <0> d          -0.364   0.101   0.199  0.00  0.00    -0.354 N 
ATOM      4  H12 <0> d           0.654  -0.244  -0.032  0.00  0.00     0.162 HD
ENDROOT
BRANCH   3   5
ATOM      5  C13 <0> d          -1.489  -0.835   0.123  0.00  0.00     0.164 C 
BRANCH   5   6
ATOM      6  C14 <0> d          -0.961  -2.249  -0.127  0.00  0.00     0.175 C 
ATOM      7  C19 <0> d          -2.135  -3.191  -0.399  0.00  0.00     0.043 C 
ATOM      8  C18 <0> d          -2.901  -2.708  -1.632  0.00  0.00     0.003 C 
ATOM      9  C17 <0> d          -1.965  -2.697  -2.842  0.00  0.00     0.000 C 
ATOM     10  C16 <0> d          -0.791  -1.754  -2.570  0.00  0.00     0.003 C 
ATOM     11  C15 <0> d          -0.025  -2.237  -1.337  0.00  0.00     0.043 C 
BRANCH   6  12
ATOM     12  N4  <0> d          -0.225  -2.712   1.057  0.00  0.00     0.103 N 
ATOM     13  C23 <0> d           0.989  -1.912   1.270  0.00  0.00     0.301 C 
ATOM     14  C22 <0> d           1.767  -2.475   2.461  0.00  0.00     0.264 C 
ATOM     15  N5  <0> d           0.910  -2.455   3.655  0.00  0.00    -0.072 N 
ATOM     16  C21 <0> d          -0.303  -3.255   3.443  0.00  0.00     0.264 C 
ATOM     17  C24 <0> d           1.646  -2.918   4.839  0.00  0.00     0.269 C 
ATOM     18  H36 <0> d           0.604  -1.414   3.836  0.00  0.00     0.279 HD
ATOM     19  C20 <0> d          -1.081  -2.692   2.251  0.00  0.00     0.301 C 
ENDBRANCH   6  12
ENDBRANCH   5   6
ENDBRANCH   3   5
BRANCH   1  20
ATOM     20  C4  <0> d           0.553   2.323   0.629  0.00  0.00     0.098 A 
ATOM     21  C3  <0> d           1.835   1.903   0.347  0.00  0.00     0.114 A 
ATOM     22  N1  <0> d           2.888   2.731   0.400  0.00  0.00    -0.340 N 
ATOM     23  C7  <0> d           2.779   4.057   0.751  0.00  0.00     0.144 A 
ATOM     24  C6  <0> d           1.521   4.601   1.065  0.00  0.00     0.061 A 
ATOM     25  N2  <0> d           3.857   4.830   0.793  0.00  0.00    -0.235 NA
ATOM     26  C5  <0> d           0.335   3.728   1.013  0.00  0.00     0.203 A 
ATOM     27  C10 <0> d           1.418   5.947   1.420  0.00  0.00     0.021 A 
ATOM     28  O1  <0> d          -0.777   4.150   1.277  0.00  0.00    -0.286 OA
ATOM     29  C9  <0> d           2.577   6.702   1.446  0.00  0.00     0.028 A 
ATOM     30  C8  <0> d           3.785   6.102   1.125  0.00  0.00     0.033 A 
ATOM     31  C11 <0> d           5.045   6.927   1.154  0.00  0.00     0.070 C 
BRANCH  22  32
ATOM     32  C2  <0> d           4.214   2.199   0.078  0.00  0.00     0.125 C 
ATOM     33  C1  <0> d           4.922   1.778   1.367  0.00  0.00     0.027 C 
ENDBRANCH  22  32
ENDBRANCH   1  20
TORSDOF 5
