REMARK  8 active torsions:
REMARK  status: ('A' for Active; 'I' for Inactive)
REMARK    1  A    between atoms: C3_4  and  C10_11 
REMARK    2  A    between atoms: C11_12  and  C12_13 
REMARK    3  A    between atoms: C11_12  and  N4_27 
REMARK       I    between atoms: C12_13  and  N2_15 
REMARK    4  A    between atoms: N2_15  and  C13_16 
REMARK    5  A    between atoms: C13_16  and  C14_17 
REMARK    6  A    between atoms: C14_17  and  C15_18 
REMARK       I    between atoms: N4_27  and  C23_28 
REMARK    7  A    between atoms: C23_28  and  C24_30 
REMARK    8  A    between atoms: C27_33  and  O3_36 
ROOT
ATOM      1  C10 <0> d          -0.978  -3.142   1.231  0.00  0.00     0.020 C 
ATOM      2  C11 <0> d          -1.918  -4.083   1.117  0.00  0.00     0.100 C 
ENDROOT
BRANCH   2   3
ATOM      3  C12 <0> d          -2.572  -4.622   2.325  0.00  0.00     0.268 C 
ATOM      4  O1  <0> d          -3.428  -5.480   2.221  0.00  0.00    -0.266 OA
ATOM      5  N2  <0> d          -2.221  -4.165   3.543  0.00  0.00    -0.355 N 
ATOM      6  H12 <0> d          -1.538  -3.481   3.626  0.00  0.00     0.162 HD
BRANCH   5   7
ATOM      7  C13 <0> d          -2.870  -4.700   4.742  0.00  0.00     0.127 C 
BRANCH   7   8
ATOM      8  C14 <0> d          -2.293  -4.016   5.983  0.00  0.00     0.056 C 
BRANCH   8   9
ATOM      9  C15 <0> d          -2.961  -4.567   7.217  0.00  0.00    -0.048 A 
ATOM     10  C22 <0> d          -4.268  -4.109   7.824  0.00  0.00     0.155 A 
ATOM     11  N3  <0> d          -4.482  -4.955   9.003  0.00  0.00    -0.385 N 
ATOM     12  C21 <0> d          -3.474  -5.787   9.109  0.00  0.00     0.038 A 
ATOM     13  H31 <0> d          -5.241  -4.905   9.605  0.00  0.00     0.160 HD
ATOM     14  C16 <0> d          -2.510  -5.567   8.008  0.00  0.00    -0.006 A 
ATOM     15  C20 <0> d          -3.182  -6.805  10.059  0.00  0.00     0.030 A 
ATOM     16  C17 <0> d          -1.309  -6.409   7.958  0.00  0.00     0.014 A 
ATOM     17  C18 <0> d          -1.128  -7.350   8.913  0.00  0.00     0.001 A 
ATOM     18  C19 <0> d          -2.056  -7.540   9.946  0.00  0.00     0.002 A 
ENDBRANCH   8   9
ENDBRANCH   7   8
ENDBRANCH   5   7
ENDBRANCH   2   3
BRANCH   2  19
ATOM     19  N4  <0> d          -2.283  -4.559  -0.148  0.00  0.00    -0.319 N 
ATOM     20  C23 <0> d          -2.178  -5.873  -0.431  0.00  0.00     0.256 C 
ATOM     21  O2  <0> d          -1.683  -6.631   0.381  0.00  0.00    -0.267 OA
ATOM     22  H23 <0> d          -2.612  -3.943  -0.822  0.00  0.00     0.169 HD
BRANCH  20  23
ATOM     23  C24 <0> d          -2.663  -6.391  -1.724  0.00  0.00     0.032 A 
ATOM     24  C29 <0> d          -2.555  -7.752  -2.019  0.00  0.00     0.020 A 
ATOM     25  C28 <0> d          -3.014  -8.233  -3.225  0.00  0.00     0.038 A 
ATOM     26  C27 <0> d          -3.575  -7.363  -4.154  0.00  0.00     0.068 A 
ATOM     27  C26 <0> d          -3.679  -6.007  -3.867  0.00  0.00     0.038 A 
ATOM     28  C25 <0> d          -3.227  -5.520  -2.660  0.00  0.00     0.020 A 
BRANCH  26  29
ATOM     29  O3  <0> d          -4.021  -7.839  -5.343  0.00  0.00    -0.356 OA
ATOM     30  C30 <0> d          -3.883  -9.243  -5.573  0.00  0.00     0.210 C 
ENDBRANCH  26  29
ENDBRANCH  20  23
ENDBRANCH   2  19
BRANCH   1  31
ATOM     31  C3  <0> d          -0.395  -2.506  -0.005  0.00  0.00     0.064 A 
ATOM     32  C2  <0> d          -0.760  -1.014  -0.063  0.00  0.00     0.136 A 
ATOM     33  N1  <0> d           0.522  -0.304  -0.037  0.00  0.00    -0.384 N 
ATOM     34  C1  <0> d           0.675   1.153  -0.076  0.00  0.00     0.149 C 
ATOM     35  C5  <0> d           1.575  -1.218   0.022  0.00  0.00     0.036 A 
ATOM     36  C4  <0> d           1.116  -2.526   0.051  0.00  0.00    -0.022 A 
ATOM     37  C6  <0> d           2.951  -0.981   0.059  0.00  0.00     0.030 A 
ATOM     38  C9  <0> d           2.006  -3.579   0.115  0.00  0.00     0.010 A 
ATOM     39  C8  <0> d           3.368  -3.337   0.142  0.00  0.00     0.001 A 
ATOM     40  C7  <0> d           3.836  -2.037   0.118  0.00  0.00     0.002 A 
ENDBRANCH   1  31
TORSDOF 8
