REMARK  5 active torsions:
REMARK  status: ('A' for Active; 'I' for Inactive)
REMARK    1  A    between atoms: C5_6  and  N2_8 
REMARK    2  A    between atoms: C14_18  and  S1_19 
REMARK    3  A    between atoms: S1_19  and  C15_20 
REMARK    4  A    between atoms: C15_20  and  C16_21 
REMARK       I    between atoms: C16_21  and  N4_23 
REMARK       I    between atoms: N4_23  and  C17_24 
REMARK       I    between atoms: C17_24  and  N5_26 
REMARK    5  A    between atoms: N5_26  and  C18_27 
ROOT
ATOM      1  N2  <0> d          -9.924   1.926  -4.837  0.00  0.00    -0.241 N 
ATOM      2  C7  <0> d         -10.404   2.509  -5.960  0.00  0.00     0.268 A 
ATOM      3  O1  <0> d         -11.586   2.775  -6.077  0.00  0.00    -0.267 OA
ATOM      4  C8  <0> d          -9.447   2.805  -7.035  0.00  0.00     0.059 A 
ATOM      5  C9  <0> d          -9.844   3.399  -8.232  0.00  0.00     0.019 A 
ATOM      6  C10 <0> d          -8.913   3.652  -9.200  0.00  0.00     0.001 A 
ATOM      7  C11 <0> d          -7.577   3.324  -9.004  0.00  0.00     0.002 A 
ATOM      8  C12 <0> d          -7.161   2.740  -7.841  0.00  0.00     0.030 A 
ATOM      9  C13 <0> d          -8.089   2.469  -6.832  0.00  0.00     0.050 A 
ATOM     10  N3  <0> d          -7.720   1.892  -5.664  0.00  0.00    -0.335 N 
ATOM     11  C14 <0> d          -8.591   1.638  -4.720  0.00  0.00     0.156 A 
ATOM     12  H28 <0> d          -6.667   1.625  -5.492  0.00  0.00     0.168 HD
ENDROOT
BRANCH  11  13
ATOM     13  S1  <0> d          -8.023   0.884  -3.232  0.00  0.00    -0.084 SA
BRANCH  13  14
ATOM     14  C15 <0> d          -6.260   0.729  -3.612  0.00  0.00     0.185 C 
BRANCH  14  15
ATOM     15  C16 <0> d          -5.549   0.090  -2.447  0.00  0.00     0.235 C 
ATOM     16  O2  <0> d          -6.172  -0.228  -1.457  0.00  0.00    -0.272 OA
ATOM     17  N4  <0> d          -4.220  -0.126  -2.505  0.00  0.00    -0.279 N 
ATOM     18  C17 <0> d          -3.584  -0.698  -1.462  0.00  0.00     0.323 C 
ATOM     19  H15 <0> d          -3.654   0.163  -3.402  0.00  0.00     0.173 HD
ATOM     20  O3  <0> d          -4.209  -1.017  -0.470  0.00  0.00    -0.247 OA
ATOM     21  N5  <0> d          -2.255  -0.914  -1.520  0.00  0.00    -0.338 N 
ATOM     22  H16 <0> d          -1.689  -0.625  -2.418  0.00  0.00     0.164 HD
BRANCH  21  23
ATOM     23  C18 <0> d          -1.564  -1.535  -0.388  0.00  0.00     0.089 C 
ATOM     24  C23 <0> d          -0.091  -1.123  -0.401  0.00  0.00     0.004 C 
ATOM     25  C22 <0> d           0.631  -1.772   0.782  0.00  0.00     0.006 C 
ATOM     26  C24 <0> d           0.014   0.399  -0.290  0.00  0.00     0.012 C 
ATOM     27  C21 <0> d           0.526  -3.294   0.671  0.00  0.00     0.001 C 
ATOM     28  C20 <0> d          -0.948  -3.706   0.685  0.00  0.00     0.002 C 
ATOM     29  C19 <0> d          -1.669  -3.058  -0.498  0.00  0.00     0.026 C 
ENDBRANCH  21  23
ENDBRANCH  14  15
ENDBRANCH  13  14
ENDBRANCH  11  13
BRANCH   1  30
ATOM     30  C5  <0> d         -10.794   1.621  -3.789  0.00  0.00     0.139 A 
ATOM     31  N1  <0> d         -11.372   0.431  -3.742  0.00  0.00    -0.243 NA
ATOM     32  C4  <0> d         -12.196   0.100  -2.767  0.00  0.00     0.119 A 
ATOM     33  C3  <0> d         -12.495   0.995  -1.758  0.00  0.00     0.026 A 
ATOM     34  C2  <0> d         -11.914   2.255  -1.773  0.00  0.00    -0.057 A 
ATOM     35  C1  <0> d         -12.217   3.257  -0.689  0.00  0.00     0.048 C 
ATOM     36  C6  <0> d         -11.049   2.571  -2.807  0.00  0.00     0.058 A 
ENDBRANCH   1  30
TORSDOF 5
