REMARK  5 active torsions:
REMARK  status: ('A' for Active; 'I' for Inactive)
REMARK    1  A    between atoms: C2_2  and  C3_3 
REMARK    2  A    between atoms: C3_3  and  C4_4 
REMARK    3  A    between atoms: N1_7  and  C7_11 
REMARK    4  A    between atoms: C7_11  and  C8_12 
REMARK    5  A    between atoms: C8_12  and  S1_13 
ROOT
ATOM      1  C4  <0> d           0.763  -2.041   1.233  0.00  0.00     0.112 A 
ATOM      2  C5  <0> d           1.582  -2.569   2.394  0.00  0.00     0.256 A 
ATOM      3  O1  <0> d           1.369  -2.405   3.576  0.00  0.00    -0.270 OA
ATOM      4  N1  <0> d           2.597  -3.261   1.838  0.00  0.00    -0.267 N 
ATOM      5  C6  <0> d           2.533  -3.243   0.502  0.00  0.00     0.326 A 
ATOM      6  O2  <0> d           3.338  -3.797  -0.220  0.00  0.00    -0.247 OA
ATOM      7  N2  <0> d           1.478  -2.543   0.047  0.00  0.00    -0.325 N 
ATOM      8  C10 <0> d          -0.662  -2.597   1.278  0.00  0.00     0.049 C 
ATOM      9  H8  <0> d           1.235  -2.397  -0.881  0.00  0.00     0.165 HD
ENDROOT
BRANCH   4  10
ATOM     10  C7  <0> d           3.641  -3.947   2.603  0.00  0.00     0.152 C 
BRANCH  10  11
ATOM     11  C8  <0> d           3.201  -5.383   2.892  0.00  0.00     0.160 C 
BRANCH  11  12
ATOM     12  S1  <0> d           4.494  -6.233   3.839  0.00  0.00     0.142 S 
ATOM     13  O3  <0> d           5.650  -6.346   3.021  0.00  0.00    -0.228 OA
ATOM     14  O4  <0> d           4.606  -5.606   5.110  0.00  0.00    -0.228 OA
ATOM     15  C9  <0> d           3.794  -7.889   4.077  0.00  0.00     0.161 C 
ENDBRANCH  11  12
ENDBRANCH  10  11
ENDBRANCH   4  10
BRANCH   1  16
ATOM     16  C3  <0> d           0.742  -0.511   1.242  0.00  0.00     0.040 C 
BRANCH  16  17
ATOM     17  C2  <0> d           0.002  -0.004   0.002  0.00  0.00    -0.002 C 
ATOM     18  C1  <0> d          -0.019   1.526   0.010  0.00  0.00     0.005 C 
ENDBRANCH  16  17
ENDBRANCH   1  16
TORSDOF 5
