REMARK  7 active torsions:
REMARK  status: ('A' for Active; 'I' for Inactive)
REMARK    1  A    between atoms: N1_2  and  S1_3 
REMARK    2  A    between atoms: S1_3  and  C2_6 
REMARK    3  A    between atoms: C5_9  and  C6_11 
REMARK    4  A    between atoms: C6_11  and  N2_12 
REMARK       I    between atoms: N2_12  and  C7_13 
REMARK       I    between atoms: C7_13  and  N3_15 
REMARK    5  A    between atoms: N3_15  and  C8_16 
REMARK    6  A    between atoms: C8_16  and  C9_17 
REMARK    7  A    between atoms: C12_20  and  N5_23 
ROOT
ATOM      1  N2  <0> d          -0.960   0.487   7.413  0.00  0.00    -0.338 N 
ATOM      2  C7  <0> d          -1.183   0.943   8.662  0.00  0.00     0.316 C 
ATOM      3  O3  <0> d          -1.991   1.831   8.850  0.00  0.00    -0.247 OA
ATOM      4  N3  <0> d          -0.510   0.412   9.702  0.00  0.00    -0.339 N 
ATOM      5  H9  <0> d          -0.316  -0.222   7.263  0.00  0.00     0.164 HD
ATOM      6  H10 <0> d           0.135  -0.297   9.552  0.00  0.00     0.164 HD
ENDROOT
BRANCH   1   7
ATOM      7  C6  <0> d          -1.692   1.063   6.282  0.00  0.00     0.170 C 
BRANCH   7   8
ATOM      8  C5  <0> d          -1.262   0.384   5.007  0.00  0.00     0.002 A 
ATOM      9  C4  <0> d          -1.779  -0.719   4.412  0.00  0.00     0.018 A 
ATOM     10  C3  <0> d          -1.217  -1.168   3.231  0.00  0.00     0.034 A 
ATOM     11  C2  <0> d          -0.166  -0.494   2.705  0.00  0.00     0.120 A 
ATOM     12  S2  <0> d           0.064   0.818   3.894  0.00  0.00    -0.080 SA
BRANCH  11  13
ATOM     13  S1  <0> d           0.742  -0.829   1.233  0.00  0.00     0.265 S 
ATOM     14  O1  <0> d           0.570  -2.212   0.955  0.00  0.00    -0.200 OA
ATOM     15  O2  <0> d           2.024  -0.240   1.403  0.00  0.00    -0.200 OA
BRANCH  13  16
ATOM     16  N1  <0> d           0.002  -0.004   0.002  0.00  0.00    -0.319 N 
ATOM     17  C1  <0> d          -0.018   1.461   0.010  0.00  0.00     0.159 C 
ATOM     18  H4  <0> d          -0.418  -0.491  -0.724  0.00  0.00     0.171 HD
ENDBRANCH  13  16
ENDBRANCH  11  13
ENDBRANCH   7   8
ENDBRANCH   1   7
BRANCH   4  19
ATOM     19  C8  <0> d          -0.752   0.908  11.060  0.00  0.00     0.164 C 
BRANCH  19  20
ATOM     20  C9  <0> d           0.120   0.155  12.032  0.00  0.00    -0.025 A 
ATOM     21  C13 <0> d           1.383   0.619  12.338  0.00  0.00     0.098 A 
ATOM     22  N4  <0> d           2.153  -0.029  13.193  0.00  0.00    -0.352 N 
ATOM     23  C12 <0> d           1.754  -1.148  13.777  0.00  0.00     0.102 A 
ATOM     24  H22 <0> d           3.035   0.321  13.394  0.00  0.00     0.166 HD
ATOM     25  C11 <0> d           0.494  -1.675  13.510  0.00  0.00     0.049 A 
ATOM     26  C10 <0> d          -0.337  -1.015  12.623  0.00  0.00     0.014 A 
BRANCH  23  27
ATOM     27  N5  <0> d           2.599  -1.800  14.666  0.00  0.00    -0.376 N 
ATOM     28  C14 <0> d           2.163  -3.038  15.317  0.00  0.00     0.150 C 
ATOM     29  C15 <0> d           3.927  -1.251  14.953  0.00  0.00     0.150 C 
ENDBRANCH  23  27
ENDBRANCH  19  20
ENDBRANCH   4  19
TORSDOF 7
