REMARK  4 active torsions:
REMARK  status: ('A' for Active; 'I' for Inactive)
REMARK    1  A    between atoms: C6_6  and  N1_7 
REMARK    2  A    between atoms: N2_13  and  C11_14 
REMARK    3  A    between atoms: C11_14  and  C12_15 
REMARK    4  A    between atoms: C12_15  and  C13_16 
ROOT
ATOM      1  C13 <0> d           4.748   3.792   3.162  0.00  0.00     0.125 C 
ATOM      2  C14 <0> d           5.375   3.256   4.381  0.00  0.00     0.059 C 
ATOM      3  N3  <0> d           5.859   2.841   5.322  0.00  0.00    -0.197 NA
ENDROOT
BRANCH   1   4
ATOM      4  C12 <0> d           4.490   2.651   2.176  0.00  0.00     0.034 C 
BRANCH   4   5
ATOM      5  C11 <0> d           3.839   3.209   0.909  0.00  0.00     0.133 C 
BRANCH   5   6
ATOM      6  N2  <0> d           3.592   2.116  -0.035  0.00  0.00    -0.318 N 
ATOM      7  C3  <0> d           2.378   1.410  -0.009  0.00  0.00     0.043 A 
ATOM      8  C2  <0> d           1.171   2.091   0.002  0.00  0.00     0.032 A 
ATOM      9  C4  <0> d           2.400   0.022  -0.006  0.00  0.00    -0.029 A 
ATOM     10  C1  <0> d          -0.017   1.385   0.010  0.00  0.00     0.031 A 
ATOM     11  C6  <0> d           0.002  -0.004   0.002  0.00  0.00     0.026 A 
ATOM     12  C5  <0> d           1.214  -0.684  -0.007  0.00  0.00     0.038 A 
ATOM     13  C7  <0> d           3.716  -0.706   0.018  0.00  0.00     0.041 C 
ATOM     14  C8  <0> d           4.362  -0.680  -1.369  0.00  0.00     0.014 C 
ATOM     15  C9  <0> d           4.222   0.718  -1.972  0.00  0.00     0.103 C 
ATOM     16  C10 <0> d           4.524   1.770  -0.942  0.00  0.00     0.224 C 
ATOM     17  O1  <0> d           5.611   2.309  -0.928  0.00  0.00    -0.273 OA
BRANCH  11  18
ATOM     18  N1  <0> d          -1.200  -0.719   0.004  0.00  0.00    -0.399 N 
ATOM     19  H4  <0> d          -2.046  -0.245   0.010  0.00  0.00     0.156 HD
ATOM     20  H5  <0> d          -1.188  -1.689  -0.002  0.00  0.00     0.156 HD
ENDBRANCH  11  18
ENDBRANCH   5   6
ENDBRANCH   4   5
ENDBRANCH   1   4
TORSDOF 4
