REMARK  5 active torsions:
REMARK  status: ('A' for Active; 'I' for Inactive)
REMARK    1  A    between atoms: C2_2  and  C3_3 
REMARK    2  A    between atoms: C3_3  and  C4_4 
REMARK    3  A    between atoms: C4_4  and  N1_5 
REMARK    4  A    between atoms: C10_11  and  N2_14 
REMARK       I    between atoms: N2_14  and  C13_15 
REMARK    5  A    between atoms: C13_15  and  C14_17 
ROOT
ATOM      1  N2  <0> d          -2.099  -6.856  -0.977  0.00  0.00    -0.321 N 
ATOM      2  C13 <0> d          -1.341  -7.862  -1.455  0.00  0.00     0.277 C 
ATOM      3  O1  <0> d          -0.920  -7.818  -2.595  0.00  0.00    -0.266 OA
ATOM      4  H18 <0> d          -2.368  -6.851  -0.045  0.00  0.00     0.169 HD
ENDROOT
BRANCH   1   5
ATOM      5  C10 <0> d          -2.499  -5.818  -1.825  0.00  0.00     0.043 A 
ATOM      6  C9  <0> d          -2.586  -6.033  -3.194  0.00  0.00     0.030 A 
ATOM      7  C8  <0> d          -2.982  -5.006  -4.029  0.00  0.00     0.003 A 
ATOM      8  C7  <0> d          -3.291  -3.765  -3.503  0.00  0.00     0.009 A 
ATOM      9  C6  <0> d          -3.205  -3.547  -2.140  0.00  0.00    -0.022 A 
ATOM     10  C5  <0> d          -3.475  -2.320  -1.298  0.00  0.00     0.274 C 
ATOM     11  C11 <0> d          -2.810  -4.571  -1.299  0.00  0.00     0.002 A 
ATOM     12  N1  <0> d          -2.808  -2.571  -0.001  0.00  0.00    -0.063 N 
ATOM     13  C12 <0> d          -2.808  -4.047   0.119  0.00  0.00     0.276 C 
ATOM     14  H23 <0> d          -3.331  -2.155   0.755  0.00  0.00     0.280 HD
BRANCH  12  15
ATOM     15  C4  <0> d          -1.432  -2.056  -0.020  0.00  0.00     0.235 C 
BRANCH  15  16
ATOM     16  C3  <0> d          -1.461  -0.526  -0.018  0.00  0.00     0.027 C 
BRANCH  16  17
ATOM     17  C2  <0> d          -0.028   0.011  -0.038  0.00  0.00    -0.003 C 
ATOM     18  C1  <0> d          -0.057   1.540  -0.036  0.00  0.00     0.005 C 
ENDBRANCH  16  17
ENDBRANCH  15  16
ENDBRANCH  12  15
ENDBRANCH   1   5
BRANCH   2  19
ATOM     19  C14 <0> d          -1.020  -9.018  -0.594  0.00  0.00     0.156 A 
ATOM     20  N4  <0> d          -1.470  -9.073   0.636  0.00  0.00    -0.166 NA
ATOM     21  N3  <0> d          -1.243 -10.040   1.442  0.00  0.00    -0.242 N 
ATOM     22  C21 <0> d          -0.499 -11.119   1.122  0.00  0.00     0.272 A 
ATOM     23  H1  <0> d          -1.623  -9.994   2.334  0.00  0.00     0.192 HD
ATOM     24  C20 <0> d           0.079 -11.194  -0.227  0.00  0.00     0.046 A 
ATOM     25  O2  <0> d          -0.310 -12.008   1.931  0.00  0.00    -0.266 OA
ATOM     26  C15 <0> d          -0.188 -10.119  -1.105  0.00  0.00     0.016 A 
ATOM     27  C19 <0> d           0.860 -12.263  -0.656  0.00  0.00     0.018 A 
ATOM     28  C16 <0> d           0.332 -10.134  -2.395  0.00  0.00     0.015 A 
ATOM     29  C17 <0> d           1.104 -11.202  -2.801  0.00  0.00     0.001 A 
ATOM     30  C18 <0> d           1.365 -12.259  -1.938  0.00  0.00     0.001 A 
ENDBRANCH   2  19
TORSDOF 5
