REMARK  2 active torsions:
REMARK  status: ('A' for Active; 'I' for Inactive)
REMARK    1  A    between atoms: C3_3  and  C10_12 
REMARK    2  A    between atoms: C11_13  and  C13_16 
ROOT
ATOM      1  C10 <0> d          -1.220   2.143   0.019  0.00  0.00     0.041 C 
ATOM      2  C11 <0> d          -0.018   1.471   0.010  0.00  0.00     0.093 C 
ATOM      3  C12 <0> d           1.212   2.204   0.002  0.00  0.00     0.103 C 
ATOM      4  N2  <0> d           2.188   2.785  -0.004  0.00  0.00    -0.191 NA
ENDROOT
BRANCH   2   5
ATOM      5  C13 <0> d           0.002  -0.004   0.002  0.00  0.00     0.174 A 
ATOM      6  N5  <0> d           1.109  -0.804  -0.018  0.00  0.00    -0.316 N 
ATOM      7  C14 <0> d           0.647  -2.085  -0.029  0.00  0.00     0.130 A 
ATOM      8  C15 <0> d           2.510  -0.383  -0.014  0.00  0.00     0.132 C 
ATOM      9  N4  <0> d          -0.655  -2.031  -0.008  0.00  0.00    -0.134 NA
ATOM     10  C19 <0> d           1.507  -3.322  -0.074  0.00  0.00     0.081 C 
ATOM     11  N3  <0> d          -1.045  -0.805   0.007  0.00  0.00    -0.129 NA
ATOM     12  C18 <0> d           2.632  -3.190   0.948  0.00  0.00     0.008 C 
ATOM     13  C17 <0> d           3.827  -2.484   0.316  0.00  0.00     0.002 C 
ATOM     14  C16 <0> d           3.361  -1.450  -0.708  0.00  0.00     0.020 C 
ENDBRANCH   2   5
BRANCH   1  15
ATOM     15  C3  <0> d          -1.240   3.561   0.027  0.00  0.00     0.000 A 
ATOM     16  C2  <0> d          -0.543   4.393   0.877  0.00  0.00     0.017 A 
ATOM     17  C1  <0> d           0.384   3.937   1.974  0.00  0.00     0.069 C 
ATOM     18  N1  <0> d          -0.819   5.686   0.571  0.00  0.00    -0.358 N 
ATOM     19  C9  <0> d          -1.710   5.755  -0.480  0.00  0.00     0.043 A 
ATOM     20  H1  <0> d          -0.444   6.454   1.030  0.00  0.00     0.166 HD
ATOM     21  C4  <0> d          -2.015   4.441  -0.869  0.00  0.00     0.003 A 
ATOM     22  C8  <0> d          -2.301   6.820  -1.154  0.00  0.00     0.030 A 
ATOM     23  C5  <0> d          -2.899   4.211  -1.919  0.00  0.00     0.014 A 
ATOM     24  C6  <0> d          -3.474   5.278  -2.574  0.00  0.00     0.001 A 
ATOM     25  C7  <0> d          -3.174   6.577  -2.191  0.00  0.00     0.002 A 
ENDBRANCH   1  15
TORSDOF 2
