REMARK  9 active torsions:
REMARK  status: ('A' for Active; 'I' for Inactive)
REMARK    1  A    between atoms: C2_2  and  N1_27 
REMARK    2  A    between atoms: C3_3  and  C4_4 
REMARK    3  A    between atoms: C3_3  and  N1_27 
REMARK    4  A    between atoms: C7_7  and  O1_10 
REMARK    5  A    between atoms: C10_11  and  C11_12 
REMARK    6  A    between atoms: C10_11  and  N1_27 
REMARK    7  A    between atoms: C16_17  and  C17_18 
REMARK    8  A    between atoms: C16_17  and  N2_29 
REMARK    9  A    between atoms: C17_18  and  C18_19 
ROOT
ATOM      1  C11 <0> d           1.959  -1.922   0.004  0.00  0.00     0.015 C 
ATOM      2  C12 <0> d           3.292  -1.488  -0.612  0.00  0.00     0.034 C 
ATOM      3  C13 <0> d           4.422  -1.764   0.384  0.00  0.00     0.235 C 
ATOM      4  C14 <0> d           3.201  -3.626   1.341  0.00  0.00     0.235 C 
ATOM      5  C15 <0> d           2.035  -3.405   0.375  0.00  0.00     0.034 C 
ATOM      6  N2  <0> d           4.457  -3.212   0.680  0.00  0.00    -0.071 N 
ATOM      7  H36 <0> d           4.556  -3.730  -0.201  0.00  0.00     0.279 HD
ENDROOT
BRANCH   1   8
ATOM      8  C10 <0> d           0.833  -1.705  -1.009  0.00  0.00     0.240 C 
BRANCH   8   9
ATOM      9  N1  <0> d           0.708  -0.257  -1.280  0.00  0.00    -0.067 N 
ATOM     10  H35 <0> d           1.632   0.117  -1.528  0.00  0.00     0.280 HD
BRANCH   9  11
ATOM     11  C2  <0> d           0.215   0.442  -0.075  0.00  0.00     0.231 C 
ATOM     12  C1  <0> d           0.444   1.944  -0.249  0.00  0.00     0.034 C 
ENDBRANCH   9  11
BRANCH   9  13
ATOM     13  C3  <0> d          -0.219  -0.033  -2.409  0.00  0.00     0.273 C 
BRANCH  13  14
ATOM     14  C4  <0> d           0.470  -0.432  -3.688  0.00  0.00    -0.032 A 
ATOM     15  C9  <0> d           0.274  -1.697  -4.212  0.00  0.00     0.011 A 
ATOM     16  C8  <0> d           0.904  -2.066  -5.384  0.00  0.00     0.037 A 
ATOM     17  C7  <0> d           1.734  -1.166  -6.037  0.00  0.00     0.065 A 
ATOM     18  C6  <0> d           1.929   0.103  -5.510  0.00  0.00     0.037 A 
ATOM     19  C5  <0> d           1.292   0.468  -4.340  0.00  0.00     0.011 A 
BRANCH  17  20
ATOM     20  O1  <0> d           2.356  -1.526  -7.190  0.00  0.00    -0.361 OA
ATOM     21  H12 <0> d           1.847  -1.332  -7.989  0.00  0.00     0.217 HD
ENDBRANCH  17  20
ENDBRANCH  13  14
ENDBRANCH   9  13
ENDBRANCH   8   9
ENDBRANCH   1   8
BRANCH   6  22
ATOM     22  C16 <0> d           5.611  -3.521   1.550  0.00  0.00     0.239 C 
BRANCH  22  23
ATOM     23  C17 <0> d           6.861  -2.846   0.983  0.00  0.00     0.067 C 
BRANCH  23  24
ATOM     24  C18 <0> d           8.048  -3.178   1.850  0.00  0.00    -0.051 A 
ATOM     25  C23 <0> d           8.749  -4.351   1.641  0.00  0.00    -0.056 A 
ATOM     26  C22 <0> d           9.838  -4.657   2.436  0.00  0.00     0.007 A 
ATOM     27  C24 <0> d           8.325  -5.298   0.547  0.00  0.00     0.049 C 
ATOM     28  C21 <0> d          10.227  -3.789   3.439  0.00  0.00     0.001 A 
ATOM     29  C20 <0> d           9.526  -2.615   3.647  0.00  0.00     0.001 A 
ATOM     30  C19 <0> d           8.440  -2.308   2.850  0.00  0.00     0.007 A 
ENDBRANCH  23  24
ENDBRANCH  22  23
ENDBRANCH   6  22
TORSDOF 9
