REMARK  5 active torsions:
REMARK  status: ('A' for Active; 'I' for Inactive)
REMARK    1  A    between atoms: C3_3  and  C11_16 
REMARK    2  A    between atoms: N3_6  and  C4_7 
REMARK       I    between atoms: C11_16  and  N5_18 
REMARK    3  A    between atoms: N5_18  and  C12_19 
REMARK    4  A    between atoms: C14_21  and  O3_27 
REMARK    5  A    between atoms: C17_24  and  O2_25 
ROOT
ATOM      1  C1  <0> d           0.006   1.505   0.009  0.00  0.00     0.073 C 
ATOM      2  C2  <0> d           0.028  -0.002   0.001  0.00  0.00     0.072 A 
ATOM      3  C3  <0> d           0.027  -0.811  -1.099  0.00  0.00     0.172 A 
ATOM      4  N1  <0> d           0.052  -2.091  -0.687  0.00  0.00    -0.124 NA
ATOM      5  N2  <0> d           0.068  -2.130   0.599  0.00  0.00    -0.058 NA
ATOM      6  N3  <0> d           0.059  -0.814   1.082  0.00  0.00    -0.193 N 
ENDROOT
BRANCH   3   7
ATOM      7  C11 <0> d           0.002  -0.358  -2.503  0.00  0.00     0.278 C 
ATOM      8  O1  <0> d          -0.019   0.831  -2.757  0.00  0.00    -0.265 OA
ATOM      9  N5  <0> d           0.004  -1.262  -3.503  0.00  0.00    -0.319 N 
ATOM     10  H12 <0> d           0.087  -2.207  -3.302  0.00  0.00     0.169 HD
BRANCH   9  11
ATOM     11  C12 <0> d          -0.114  -0.835  -4.832  0.00  0.00     0.071 A 
ATOM     12  C17 <0> d          -0.801  -1.618  -5.757  0.00  0.00     0.095 A 
ATOM     13  C16 <0> d          -0.921  -1.190  -7.069  0.00  0.00     0.042 A 
ATOM     14  C15 <0> d          -0.350   0.005  -7.464  0.00  0.00     0.039 A 
ATOM     15  C14 <0> d           0.339   0.784  -6.546  0.00  0.00     0.070 A 
ATOM     16  C13 <0> d           0.458   0.364  -5.230  0.00  0.00     0.069 A 
BRANCH  12  17
ATOM     17  O2  <0> d          -1.358  -2.797  -5.371  0.00  0.00    -0.354 OA
ATOM     18  C18 <0> d          -2.047  -3.548  -6.373  0.00  0.00     0.210 C 
ENDBRANCH  12  17
BRANCH  15  19
ATOM     19  O3  <0> d           0.899   1.959  -6.937  0.00  0.00    -0.356 OA
ATOM     20  C19 <0> d           0.739   2.330  -8.308  0.00  0.00     0.210 C 
ENDBRANCH  15  19
ENDBRANCH   9  11
ENDBRANCH   3   7
BRANCH   6  21
ATOM     21  C4  <0> d           0.077  -0.418   2.419  0.00  0.00     0.196 A 
ATOM     22  S1  <0> d           0.115  -1.386   3.798  0.00  0.00    -0.053 SA
ATOM     23  C6  <0> d           0.120  -0.082   4.995  0.00  0.00     0.011 A 
ATOM     24  C5  <0> d           0.081   1.033   4.218  0.00  0.00     0.050 A 
ATOM     25  C7  <0> d           0.153  -0.153   6.484  0.00  0.00     0.048 C 
ATOM     26  N4  <0> d           0.061   0.801   2.910  0.00  0.00    -0.226 NA
ATOM     27  C10 <0> d           0.063   2.417   4.851  0.00  0.00     0.060 C 
ATOM     28  C9  <0> d          -0.365   2.282   6.314  0.00  0.00     0.006 C 
ATOM     29  C8  <0> d           0.506   1.242   7.024  0.00  0.00     0.006 C 
ENDBRANCH   6  21
TORSDOF 5
