REMARK  8 active torsions:
REMARK  status: ('A' for Active; 'I' for Inactive)
REMARK    1  A    between atoms: C2_2  and  C3_3 
REMARK    2  A    between atoms: C3_3  and  C4_4 
REMARK    3  A    between atoms: N3_13  and  C8_14 
REMARK    4  A    between atoms: C8_14  and  C9_15 
REMARK    5  A    between atoms: C14_20  and  C15_21 
REMARK    6  A    between atoms: C15_21  and  N4_22 
REMARK    7  A    between atoms: N4_22  and  C16_23 
REMARK    8  A    between atoms: N4_22  and  C18_25 
ROOT
ATOM      1  C3  <0> d           0.243   0.123  -0.854  0.00  0.00     0.026 C 
ATOM      2  N3  <0> d          -0.437  -0.099  -1.997  0.00  0.00    -0.388 N 
ATOM      3  H8  <0> d           0.037  -0.371  -2.798  0.00  0.00     0.159 HD
ENDROOT
BRANCH   2   4
ATOM      4  C8  <0> d          -1.891   0.070  -2.029  0.00  0.00     0.158 C 
BRANCH   4   5
ATOM      5  C9  <0> d          -2.403  -0.237  -3.413  0.00  0.00    -0.033 A 
ATOM      6  C14 <0> d          -2.582  -1.550  -3.808  0.00  0.00    -0.025 A 
ATOM      7  C13 <0> d          -3.055  -1.831  -5.076  0.00  0.00     0.009 A 
ATOM      8  C12 <0> d          -3.341  -0.801  -5.952  0.00  0.00     0.001 A 
ATOM      9  C11 <0> d          -3.157   0.512  -5.558  0.00  0.00     0.001 A 
ATOM     10  C10 <0> d          -2.688   0.793  -4.289  0.00  0.00     0.009 A 
BRANCH   6  11
ATOM     11  C15 <0> d          -2.265  -2.673  -2.854  0.00  0.00     0.274 C 
BRANCH  11  12
ATOM     12  N4  <0> d          -3.379  -2.844  -1.912  0.00  0.00    -0.068 N 
ATOM     13  H27 <0> d          -3.567  -1.966  -1.451  0.00  0.00     0.280 HD
BRANCH  12  14
ATOM     14  C16 <0> d          -4.577  -3.279  -2.642  0.00  0.00     0.231 C 
ATOM     15  C17 <0> d          -5.767  -3.334  -1.683  0.00  0.00     0.034 C 
ENDBRANCH  12  14
BRANCH  12  16
ATOM     16  C18 <0> d          -3.021  -3.856  -0.909  0.00  0.00     0.231 C 
ATOM     17  C19 <0> d          -2.627  -5.155  -1.615  0.00  0.00     0.034 C 
ENDBRANCH  12  16
ENDBRANCH  11  12
ENDBRANCH   6  11
ENDBRANCH   4   5
ENDBRANCH   2   4
BRANCH   1  18
ATOM     18  C2  <0> d          -0.503   0.416   0.422  0.00  0.00     0.053 C 
ATOM     19  C1  <0> d          -0.781  -0.893   1.163  0.00  0.00     0.011 C 
ENDBRANCH   1  18
BRANCH   1  20
ATOM     20  C4  <0> d           1.625   0.082  -0.853  0.00  0.00     0.122 A 
ATOM     21  C7  <0> d           2.392  -0.054  -2.104  0.00  0.00     0.265 A 
ATOM     22  N2  <0> d           3.738  -0.081  -2.027  0.00  0.00    -0.299 N 
ATOM     23  O2  <0> d           1.826  -0.134  -3.178  0.00  0.00    -0.267 OA
ATOM     24  C6  <0> d           4.374   0.000  -0.850  0.00  0.00     0.181 A 
ATOM     25  H7  <0> d           4.258  -0.166  -2.841  0.00  0.00     0.171 HD
ATOM     26  N1  <0> d           3.741   0.119   0.326  0.00  0.00    -0.299 N 
ATOM     27  S1  <0> d           6.085  -0.051  -0.848  0.00  0.00    -0.040 SA
ATOM     28  C5  <0> d           2.395   0.166   0.401  0.00  0.00     0.265 A 
ATOM     29  H6  <0> d           4.264   0.173   1.142  0.00  0.00     0.171 HD
ATOM     30  O1  <0> d           1.833   0.274   1.474  0.00  0.00    -0.267 OA
ENDBRANCH   1  20
TORSDOF 8
