REMARK  4 active torsions:
REMARK  status: ('A' for Active; 'I' for Inactive)
REMARK    1  A    between atoms: C2_2  and  C3_3 
REMARK    2  A    between atoms: C3_3  and  N1_4 
REMARK    3  A    between atoms: C4_5  and  C10_17 
REMARK    4  A    between atoms: C10_17  and  N5_23 
ROOT
ATOM      1  N1  <0> d          -1.953   0.575  -4.068  0.00  0.00    -0.326 N 
ATOM      2  C4  <0> d          -0.987   1.384  -3.590  0.00  0.00     0.135 A 
ATOM      3  N2  <0> d          -0.932   2.478  -4.307  0.00  0.00    -0.213 NA
ATOM      4  C5  <0> d          -1.855   2.433  -5.271  0.00  0.00     0.168 A 
ATOM      5  C6  <0> d          -2.529   1.225  -5.141  0.00  0.00     0.151 A 
ATOM      6  C7  <0> d          -3.569   0.917  -6.044  0.00  0.00     0.280 A 
ATOM      7  O1  <0> d          -4.175  -0.135  -5.950  0.00  0.00    -0.265 OA
ATOM      8  N3  <0> d          -3.885   1.802  -7.012  0.00  0.00    -0.273 N 
ATOM      9  H1  <0> d          -4.620   1.588  -7.655  0.00  0.00     0.173 HD
ATOM     10  C8  <0> d          -3.224   2.967  -7.127  0.00  0.00     0.330 A 
ATOM     11  O2  <0> d          -3.536   3.741  -8.012  0.00  0.00    -0.246 OA
ATOM     12  N4  <0> d          -2.227   3.300  -6.286  0.00  0.00    -0.286 N 
ATOM     13  C9  <0> d          -1.532   4.580  -6.445  0.00  0.00     0.163 C 
ENDROOT
BRANCH   2  14
ATOM     14  C10 <0> d          -0.099   1.073  -2.413  0.00  0.00     0.313 C 
BRANCH  14  15
ATOM     15  N5  <0> d          -0.751   1.565  -1.180  0.00  0.00    -0.060 N 
ATOM     16  C11 <0> d          -0.013   1.086   0.008  0.00  0.00     0.261 C 
ATOM     17  C12 <0> d          -0.731   1.580   1.266  0.00  0.00     0.195 C 
ATOM     18  O3  <0> d          -0.815   3.008   1.231  0.00  0.00    -0.388 OA
ATOM     19  C13 <0> d          -1.503   3.517   0.086  0.00  0.00     0.195 C 
ATOM     20  C14 <0> d          -0.792   3.042  -1.183  0.00  0.00     0.261 C 
ATOM     21  H22 <0> d          -1.712   1.205  -1.144  0.00  0.00     0.280 HD
ENDBRANCH  14  15
ENDBRANCH   2  14
BRANCH   1  22
ATOM     22  C3  <0> d          -2.324  -0.742  -3.546  0.00  0.00     0.130 C 
BRANCH  22  23
ATOM     23  C2  <0> d          -3.409  -0.581  -2.479  0.00  0.00     0.016 C 
ATOM     24  C1  <0> d          -3.796  -1.957  -1.933  0.00  0.00     0.006 C 
ENDBRANCH  22  23
ENDBRANCH   1  22
TORSDOF 4
