REMARK  3 active torsions:
REMARK  status: ('A' for Active; 'I' for Inactive)
REMARK    1  A    between atoms: C3_5  and  N4_11 
REMARK    2  A    between atoms: N4_11  and  C6_12 
REMARK    3  A    between atoms: C6_12  and  C7_13 
ROOT
ATOM      1  C1  <0> d          -0.018   1.461   0.010  0.00  0.00     0.165 C 
ATOM      2  N1  <0> d           0.002  -0.004   0.002  0.00  0.00    -0.266 N 
ATOM      3  C2  <0> d          -1.157  -0.694   0.004  0.00  0.00     0.298 A 
ATOM      4  O1  <0> d          -2.224  -0.108   0.012  0.00  0.00    -0.264 OA
ATOM      5  C3  <0> d          -1.115  -2.166  -0.005  0.00  0.00     0.213 A 
ATOM      6  N2  <0> d           0.047  -2.765  -0.014  0.00  0.00    -0.145 NA
ATOM      7  N3  <0> d           1.223  -2.004  -0.015  0.00  0.00    -0.222 N 
ATOM      8  C4  <0> d           1.177  -0.660  -0.013  0.00  0.00     0.347 A 
ATOM      9  O2  <0> d           2.216  -0.027  -0.019  0.00  0.00    -0.245 OA
ATOM     10  C5  <0> d           2.521  -2.682  -0.026  0.00  0.00     0.185 C 
ENDROOT
BRANCH   5  11
ATOM     11  N4  <0> d          -2.296  -2.909  -0.003  0.00  0.00    -0.365 N 
ATOM     12  H7  <0> d          -3.154  -2.456   0.004  0.00  0.00     0.161 HD
BRANCH  11  13
ATOM     13  C6  <0> d          -2.240  -4.373  -0.012  0.00  0.00     0.160 C 
BRANCH  13  14
ATOM     14  C7  <0> d          -3.640  -4.929  -0.007  0.00  0.00    -0.034 A 
ATOM     15  C10 <0> d          -4.286  -5.176  -1.173  0.00  0.00     0.058 A 
ATOM     16  S1  <0> d          -5.854  -5.807  -0.601  0.00  0.00    -0.113 SA
ATOM     17  C9  <0> d          -5.547  -5.690   1.154  0.00  0.00     0.050 A 
ATOM     18  C8  <0> d          -4.288  -5.190   1.186  0.00  0.00     0.016 A 
ENDBRANCH  13  14
ENDBRANCH  11  13
ENDBRANCH   5  11
TORSDOF 3
