REMARK  6 active torsions:
REMARK  status: ('A' for Active; 'I' for Inactive)
REMARK       I    between atoms: C2_2  and  N1_4 
REMARK    1  A    between atoms: N1_4  and  C3_5 
REMARK    2  A    between atoms: C3_5  and  C4_6 
REMARK    3  A    between atoms: N2_10  and  C9_12 
REMARK    4  A    between atoms: C9_12  and  N3_13 
REMARK    5  A    between atoms: C11_16  and  C12_18 
REMARK    6  A    between atoms: C15_21  and  N6_24 
ROOT
ATOM      1  N3  <0> d          -5.279  -6.677   0.459  0.00  0.00    -0.235 N 
ATOM      2  C10 <0> d          -6.054  -7.179  -0.519  0.00  0.00     0.233 A 
ATOM      3  N4  <0> d          -7.207  -7.510   0.001  0.00  0.00    -0.220 NA
ATOM      4  C11 <0> d          -7.209  -7.235   1.312  0.00  0.00     0.180 A 
ATOM      5  N5  <0> d          -6.041  -6.725   1.638  0.00  0.00    -0.149 NA
ENDROOT
BRANCH   1   6
ATOM      6  C9  <0> d          -3.907  -6.182   0.322  0.00  0.00     0.386 C 
BRANCH   6   7
ATOM      7  N2  <0> d          -3.928  -4.725   0.134  0.00  0.00    -0.053 N 
ATOM      8  C7  <0> d          -4.585  -4.407  -1.139  0.00  0.00     0.237 C 
ATOM      9  C6  <0> d          -4.683  -2.888  -1.302  0.00  0.00     0.028 C 
ATOM     10  C5  <0> d          -3.274  -2.288  -1.288  0.00  0.00     0.009 C 
ATOM     11  C4  <0> d          -2.571  -2.688   0.012  0.00  0.00     0.029 C 
ATOM     12  C8  <0> d          -2.552  -4.214   0.127  0.00  0.00     0.243 C 
ATOM     13  H23 <0> d          -4.440  -4.298   0.892  0.00  0.00     0.281 HD
BRANCH  11  14
ATOM     14  C3  <0> d          -1.136  -2.159   0.001  0.00  0.00     0.128 C 
BRANCH  14  15
ATOM     15  N1  <0> d          -1.156  -0.694   0.009  0.00  0.00    -0.361 N 
ATOM     16  C2  <0> d           0.002  -0.004   0.002  0.00  0.00     0.213 C 
ATOM     17  C1  <0> d          -0.018   1.503   0.010  0.00  0.00     0.117 C 
ATOM     18  O1  <0> d           1.060  -0.596  -0.011  0.00  0.00    -0.274 OA
ATOM     19  H5  <0> d          -2.002  -0.220   0.020  0.00  0.00     0.162 HD
ENDBRANCH  14  15
ENDBRANCH  11  14
ENDBRANCH   6   7
ENDBRANCH   1   6
BRANCH   4  20
ATOM     20  C12 <0> d          -8.339  -7.471   2.244  0.00  0.00     0.014 A 
ATOM     21  C17 <0> d          -9.528  -8.025   1.774  0.00  0.00     0.018 A 
ATOM     22  C16 <0> d         -10.575  -8.248   2.647  0.00  0.00     0.037 A 
ATOM     23  C15 <0> d         -10.449  -7.911   3.982  0.00  0.00     0.102 A 
ATOM     24  C14 <0> d          -9.272  -7.355   4.453  0.00  0.00     0.037 A 
ATOM     25  C13 <0> d          -8.218  -7.134   3.591  0.00  0.00     0.018 A 
BRANCH  23  26
ATOM     26  N6  <0> d         -11.576  -8.146   4.912  0.00  0.00    -0.116 N 
ATOM     27  O2  <0> d         -11.468  -7.853   6.080  0.00  0.00    -0.532 OA
ATOM     28  O3  <0> d         -12.605  -8.632   4.503  0.00  0.00    -0.532 OA
ENDBRANCH  23  26
ENDBRANCH   4  20
TORSDOF 6
