REMARK  5 active torsions:
REMARK  status: ('A' for Active; 'I' for Inactive)
REMARK    1  A    between atoms: C4_4  and  S1_7 
REMARK    2  A    between atoms: S1_7  and  O3_10 
REMARK    3  A    between atoms: O3_10  and  C7_11 
REMARK    4  A    between atoms: C10_14  and  C13_17 
REMARK    5  A    between atoms: N1_18  and  C14_19 
ROOT
ATOM      1  C7  <0> d           3.638  -2.037   2.033  0.00  0.00     0.089 A 
ATOM      2  C8  <0> d           2.462  -1.724   2.704  0.00  0.00     0.039 A 
ATOM      3  C9  <0> d           1.746  -2.714   3.340  0.00  0.00     0.015 A 
ATOM      4  C10 <0> d           2.203  -4.035   3.309  0.00  0.00    -0.019 A 
ATOM      5  C11 <0> d           3.386  -4.345   2.633  0.00  0.00     0.015 A 
ATOM      6  C12 <0> d           4.093  -3.350   1.995  0.00  0.00     0.039 A 
ENDROOT
BRANCH   1   7
ATOM      7  O3  <0> d           4.342  -1.058   1.408  0.00  0.00    -0.229 OA
BRANCH   7   8
ATOM      8  S1  <0> d           3.934  -0.832  -0.041  0.00  0.00     0.303 S 
ATOM      9  O1  <0> d           3.674  -2.114  -0.595  0.00  0.00    -0.193 OA
ATOM     10  O2  <0> d           4.890   0.060  -0.597  0.00  0.00    -0.193 OA
BRANCH   8  11
ATOM     11  C4  <0> d           2.396   0.029  -0.020  0.00  0.00     0.086 A 
ATOM     12  C3  <0> d           2.377   1.411  -0.013  0.00  0.00     0.026 A 
ATOM     13  C2  <0> d           1.171   2.086   0.002  0.00  0.00     0.002 A 
ATOM     14  C1  <0> d          -0.017   1.378   0.010  0.00  0.00     0.000 A 
ATOM     15  C6  <0> d           0.002  -0.004   0.002  0.00  0.00     0.002 A 
ATOM     16  C5  <0> d           1.208  -0.679  -0.012  0.00  0.00     0.026 A 
ENDBRANCH   8  11
ENDBRANCH   7   8
ENDBRANCH   1   7
BRANCH   4  17
ATOM     17  C13 <0> d           1.439  -5.097   3.989  0.00  0.00     0.126 C 
ATOM     18  N1  <0> d           1.864  -6.319   3.959  0.00  0.00    -0.252 NA
BRANCH  18  19
ATOM     19  C14 <0> d           1.106  -7.375   4.634  0.00  0.00     0.355 A 
ATOM     20  N4  <0> d           1.953  -8.077   5.612  0.00  0.00    -0.142 NA
ATOM     21  N3  <0> d           2.012  -9.261   5.248  0.00  0.00    -0.147 NA
ATOM     22  C15 <0> d           1.301  -9.505   4.117  0.00  0.00     0.229 A 
ATOM     23  N2  <0> d           0.726  -8.433   3.680  0.00  0.00    -0.342 N 
ATOM     24  H13 <0> d           0.166  -8.343   2.893  0.00  0.00     0.164 HD
ENDBRANCH  18  19
ENDBRANCH   4  17
TORSDOF 5
