REMARK  3 active torsions:
REMARK  status: ('A' for Active; 'I' for Inactive)
REMARK    1  A    between atoms: C5_6  and  N3_11 
REMARK    2  A    between atoms: C6_7  and  C7_8 
REMARK    3  A    between atoms: N3_11  and  C8_12 
ROOT
ATOM      1  C1  <0> d          -0.612   1.430  -0.003  0.00  0.00     0.049 C 
ATOM      2  C2  <0> d          -0.307  -0.046  -0.004  0.00  0.00    -0.043 A 
ATOM      3  C3  <0> d          -0.198  -0.746  -1.192  0.00  0.00     0.032 A 
ATOM      4  C4  <0> d           0.083  -2.100  -1.162  0.00  0.00     0.007 A 
ATOM      5  N1  <0> d           0.248  -2.739  -0.020  0.00  0.00    -0.346 N 
ATOM      6  C5  <0> d           0.155  -2.118   1.146  0.00  0.00     0.116 A 
ATOM      7  C6  <0> d          -0.121  -0.741   1.197  0.00  0.00     0.051 A 
ATOM      8  C16 <0> d           0.201  -2.861  -2.458  0.00  0.00     0.068 C 
ATOM      9  H20 <0> d           0.444  -3.689  -0.034  0.00  0.00     0.167 HD
ENDROOT
BRANCH   6  10
ATOM     10  N3  <0> d           0.336  -2.828   2.320  0.00  0.00    -0.367 N 
ATOM     11  H8  <0> d           0.348  -2.362   3.171  0.00  0.00     0.161 HD
BRANCH  10  12
ATOM     12  C8  <0> d           0.509  -4.282   2.277  0.00  0.00     0.117 C 
ATOM     13  C13 <0> d          -0.858  -4.959   2.259  0.00  0.00    -0.022 A 
ATOM     14  C12 <0> d          -1.079  -6.074   3.011  0.00  0.00    -0.009 A 
ATOM     15  C14 <0> d          -1.931  -4.493   1.499  0.00  0.00     0.017 A 
ATOM     16  C11 <0> d          -0.111  -6.779   3.904  0.00  0.00     0.047 C 
ATOM     17  S2  <0> d          -2.772  -6.480   2.674  0.00  0.00    -0.106 SA
ATOM     18  C10 <0> d           1.303  -6.273   3.578  0.00  0.00     0.007 C 
ATOM     19  C9  <0> d           1.274  -4.743   3.518  0.00  0.00     0.030 C 
ATOM     20  C15 <0> d          -3.116  -5.143   1.531  0.00  0.00     0.051 A 
ENDBRANCH  10  12
ENDBRANCH   6  10
BRANCH   7  21
ATOM     21  C7  <0> d          -0.221  -0.043   2.490  0.00  0.00     0.108 C 
ATOM     22  S1  <0> d           1.150   0.748   3.143  0.00  0.00    -0.060 SA
ATOM     23  N2  <0> d          -1.390  -0.027   3.159  0.00  0.00    -0.389 N 
ATOM     24  H6  <0> d          -2.185  -0.411   2.756  0.00  0.00     0.157 HD
ATOM     25  H7  <0> d          -1.438   0.368   4.044  0.00  0.00     0.157 HD
ENDBRANCH   7  21
TORSDOF 3
