REMARK  5 active torsions:
REMARK  status: ('A' for Active; 'I' for Inactive)
REMARK    1  A    between atoms: C2_2  and  C4_4 
REMARK    2  A    between atoms: C4_4  and  C5_5 
REMARK    3  A    between atoms: C4_4  and  N2_9 
REMARK    4  A    between atoms: C5_5  and  N1_6 
REMARK    5  A    between atoms: C14_17  and  N4_18 
ROOT
ATOM      1  N2  <0> d           1.514   0.019  -1.489  0.00  0.00    -0.173 N 
ATOM      2  C8  <0> d           2.024   0.806  -2.509  0.00  0.00     0.081 A 
ATOM      3  C9  <0> d           1.450   1.545  -3.531  0.00  0.00     0.034 A 
ATOM      4  C10 <0> d           2.253   2.241  -4.412  0.00  0.00     0.021 A 
ATOM      5  C11 <0> d           3.634   2.206  -4.280  0.00  0.00     0.013 A 
ATOM      6  C12 <0> d           4.221   1.476  -3.270  0.00  0.00     0.053 A 
ATOM      7  C13 <0> d           3.421   0.767  -2.371  0.00  0.00     0.104 A 
ATOM      8  N3  <0> d           3.696  -0.022  -1.299  0.00  0.00    -0.063 NA
ATOM      9  C14 <0> d           2.577  -0.459  -0.776  0.00  0.00     0.701 A 
ATOM     10 Br1  <0> d           4.717   3.166  -5.498  0.00  0.00    -0.051 Br
ENDROOT
BRANCH   1  11
ATOM     11  C4  <0> d           0.099  -0.246  -1.221  0.00  0.00     0.137 C 
BRANCH  11  12
ATOM     12  C2  <0> d          -0.258   0.254   0.180  0.00  0.00     0.003 C 
ATOM     13  C1  <0> d           0.134   1.727   0.311  0.00  0.00     0.011 C 
ATOM     14  C3  <0> d          -1.763   0.104   0.408  0.00  0.00     0.011 C 
ENDBRANCH  11  12
BRANCH  11  15
ATOM     15  C5  <0> d          -0.163  -1.751  -1.307  0.00  0.00     0.260 C 
BRANCH  15  16
ATOM     16  N1  <0> d           0.065  -2.210  -2.684  0.00  0.00    -0.077 N 
ATOM     17  C6  <0> d          -0.044  -3.674  -2.736  0.00  0.00     0.269 C 
ATOM     18  C7  <0> d          -0.940  -1.611  -3.572  0.00  0.00     0.269 C 
ATOM     19  H22 <0> d           0.988  -1.931  -2.983  0.00  0.00     0.279 HD
ENDBRANCH  15  16
ENDBRANCH  11  15
ENDBRANCH   1  11
BRANCH   9  20
ATOM     20  N4  <0> d           2.486  -1.281   0.327  0.00  0.00    -0.233 N 
ATOM     21  H20 <0> d           1.616  -1.563   0.651  0.00  0.00     0.174 HD
ATOM     22  H21 <0> d           3.291  -1.578   0.778  0.00  0.00     0.174 HD
ENDBRANCH   9  20
TORSDOF 5
