REMARK  5 active torsions:
REMARK  status: ('A' for Active; 'I' for Inactive)
REMARK    1  A    between atoms: C5_5  and  N1_9 
REMARK       I    between atoms: N1_9  and  C9_10 
REMARK       I    between atoms: C9_10  and  N2_12 
REMARK       I    between atoms: N2_12  and  C10_13 
REMARK    2  A    between atoms: C10_13  and  C11_15 
REMARK    3  A    between atoms: C11_15  and  S1_17 
REMARK    4  A    between atoms: S1_17  and  C13_18 
REMARK    5  A    between atoms: C15_23  and  C17_26 
ROOT
ATOM      1  C11 <0> d          -5.922   2.392   0.728  0.00  0.00     0.144 C 
ATOM      2  C12 <0> d          -5.921   2.915  -0.710  0.00  0.00     0.031 C 
ENDROOT
BRANCH   1   3
ATOM      3  C10 <0> d          -4.623   1.680   1.004  0.00  0.00     0.239 C 
ATOM      4  N2  <0> d          -3.541   2.381   1.397  0.00  0.00    -0.278 N 
ATOM      5  C9  <0> d          -2.379   1.745   1.644  0.00  0.00     0.327 C 
ATOM      6  H12 <0> d          -3.606   3.473   1.516  0.00  0.00     0.173 HD
ATOM      7  N1  <0> d          -1.297   2.446   2.037  0.00  0.00    -0.308 N 
ATOM      8  O1  <0> d          -2.307   0.538   1.513  0.00  0.00    -0.247 OA
ATOM      9  H11 <0> d          -1.380   3.526   2.225  0.00  0.00     0.170 HD
ATOM     10  O2  <0> d          -4.551   0.477   0.873  0.00  0.00    -0.272 OA
BRANCH   7  11
ATOM     11  C5  <0> d          -0.067   1.799   2.205  0.00  0.00     0.042 A 
ATOM     12  C4  <0> d          -0.027   0.492   2.674  0.00  0.00     0.030 A 
ATOM     13  C3  <0> d           1.188  -0.145   2.833  0.00  0.00     0.009 A 
ATOM     14  C2  <0> d           2.363   0.516   2.526  0.00  0.00    -0.061 A 
ATOM     15  C1  <0> d           3.687  -0.183   2.700  0.00  0.00     0.048 C 
ATOM     16  C7  <0> d           2.326   1.817   2.058  0.00  0.00     0.015 A 
ATOM     17  C6  <0> d           1.114   2.460   1.898  0.00  0.00    -0.035 A 
ATOM     18  C8  <0> d           1.075   3.878   1.388  0.00  0.00     0.050 C 
ENDBRANCH   7  11
ENDBRANCH   1   3
BRANCH   1  19
ATOM     19  S1  <0> d          -7.303   1.237   0.950  0.00  0.00    -0.076 SA
BRANCH  19  20
ATOM     20  C13 <0> d          -8.736   2.241   0.740  0.00  0.00     0.197 A 
ATOM     21  N5  <0> d         -10.051   1.812   0.812  0.00  0.00    -0.265 N 
ATOM     22  C14 <0> d         -10.779   2.959   0.585  0.00  0.00     0.201 A 
ATOM     23  C15 <0> d         -10.767   0.652   1.047  0.00  0.00     0.060 A 
ATOM     24  N4  <0> d          -9.961   3.945   0.392  0.00  0.00    -0.121 NA
ATOM     25  S2  <0> d         -12.458   2.390   0.689  0.00  0.00    -0.059 SA
ATOM     26  N3  <0> d          -8.748   3.524   0.483  0.00  0.00    -0.121 NA
ATOM     27  C16 <0> d         -12.114   0.672   1.035  0.00  0.00     0.084 A 
BRANCH  23  28
ATOM     28  C17 <0> d         -10.052  -0.616   1.304  0.00  0.00    -0.008 A 
ATOM     29  C22 <0> d         -10.551  -1.525   2.239  0.00  0.00     0.014 A 
ATOM     30  C21 <0> d          -9.879  -2.707   2.474  0.00  0.00     0.001 A 
ATOM     31  C20 <0> d          -8.713  -2.992   1.786  0.00  0.00     0.000 A 
ATOM     32  C19 <0> d          -8.213  -2.095   0.858  0.00  0.00     0.001 A 
ATOM     33  C18 <0> d          -8.878  -0.913   0.610  0.00  0.00     0.014 A 
ENDBRANCH  23  28
ENDBRANCH  19  20
ENDBRANCH   1  19
TORSDOF 5
