REMARK  4 active torsions:
REMARK  status: ('A' for Active; 'I' for Inactive)
REMARK    1  A    between atoms: C2_2  and  C4_4 
REMARK    2  A    between atoms: C7_7  and  C10_10 
REMARK    3  A    between atoms: C7_7  and  N1_13 
REMARK    4  A    between atoms: N1_13  and  C11_14 
ROOT
ATOM      1  C4  <0> d          -0.550  -1.386  -0.889  0.00  0.00    -0.011 C 
ATOM      2  C5  <0> d          -1.051  -2.596  -1.679  0.00  0.00     0.008 C 
ATOM      3  C6  <0> d          -2.387  -3.067  -1.101  0.00  0.00     0.051 C 
ATOM      4  C7  <0> d          -3.412  -1.935  -1.198  0.00  0.00     0.212 C 
ATOM      5  C8  <0> d          -2.911  -0.724  -0.408  0.00  0.00     0.051 C 
ATOM      6  C9  <0> d          -1.575  -0.254  -0.986  0.00  0.00     0.008 C 
ENDROOT
BRANCH   4   7
ATOM      7  C10 <0> d          -4.728  -2.398  -0.629  0.00  0.00     0.210 C 
ATOM      8  O1  <0> d          -5.087  -2.010   0.470  0.00  0.00    -0.646 OA
ATOM      9  O2  <0> d          -5.433  -3.161  -1.266  0.00  0.00    -0.646 OA
ENDBRANCH   4   7
BRANCH   4  10
ATOM     10  N1  <0> d          -3.593  -1.559  -2.607  0.00  0.00    -0.052 N 
ATOM     11  H17 <0> d          -2.695  -1.352  -3.018  0.00  0.00     0.279 HD
ATOM     12  H27 <0> d          -4.023  -2.323  -3.106  0.00  0.00     0.279 HD
BRANCH  10  13
ATOM     13  C11 <0> d          -4.455  -0.372  -2.690  0.00  0.00     0.191 C 
ATOM     14  C15 <0> d          -4.457   0.160  -4.126  0.00  0.00     0.059 C 
ATOM     15  C14 <0> d          -5.419   1.348  -4.220  0.00  0.00     0.169 C 
ATOM     16  O3  <0> d          -6.724   0.936  -3.810  0.00  0.00    -0.391 OA
ATOM     17  C13 <0> d          -6.792   0.473  -2.459  0.00  0.00     0.169 C 
ATOM     18  C12 <0> d          -5.886  -0.750  -2.294  0.00  0.00     0.059 C 
ENDBRANCH  10  13
ENDBRANCH   4  10
BRANCH   1  19
ATOM     19  C2  <0> d           0.786  -0.915  -1.467  0.00  0.00    -0.019 C 
ATOM     20  C1  <0> d           1.286   0.295  -0.676  0.00  0.00     0.010 C 
ATOM     21  C3  <0> d           1.810  -2.047  -1.369  0.00  0.00     0.010 C 
ENDBRANCH   1  19
TORSDOF 4
