REMARK  4 active torsions:
REMARK  status: ('A' for Active; 'I' for Inactive)
REMARK    1  A    between atoms: C2_2  and  N1_3 
REMARK    2  A    between atoms: N2_6  and  C7_11 
REMARK    3  A    between atoms: C7_11  and  C8_12 
REMARK    4  A    between atoms: C8_12  and  C9_13 
ROOT
ATOM      1  C9  <0> d           4.137  -0.699  -6.766  0.00  0.00     0.109 A 
ATOM      2  N3  <0> d           4.914   0.156  -7.481  0.00  0.00    -0.311 N 
ATOM      3  H1  <0> d           5.047   1.061  -7.157  0.00  0.00     0.170 HD
ATOM      4  C10 <0> d           5.503  -0.227  -8.629  0.00  0.00     0.260 A 
ATOM      5  O3  <0> d           6.198   0.551  -9.259  0.00  0.00    -0.267 OA
ATOM      6  C11 <0> d           5.299  -1.566  -9.098  0.00  0.00     0.076 A 
ATOM      7  C12 <0> d           5.835  -2.189 -10.313  0.00  0.00    -0.016 A 
ATOM      8  C13 <0> d           5.490  -3.486 -10.519  0.00  0.00     0.050 A 
ATOM      9  S1  <0> d           4.451  -3.926  -9.156  0.00  0.00    -0.062 SA
ATOM     10  C14 <0> d           4.482  -2.374  -8.293  0.00  0.00     0.117 A 
ATOM     11  N4  <0> d           3.938  -1.927  -7.166  0.00  0.00    -0.227 NA
ATOM     12  S2  <0> d           5.990  -4.500 -11.864  0.00  0.00    -0.122 SA
ATOM     13  C15 <0> d           6.754  -3.275 -12.980  0.00  0.00     0.080 C 
ATOM     14  C16 <0> d           7.601  -2.338 -12.107  0.00  0.00     0.015 C 
ATOM     15  C17 <0> d           6.714  -1.417 -11.285  0.00  0.00     0.042 C 
ENDROOT
BRANCH   1  16
ATOM     16  C8  <0> d           3.498  -0.225  -5.486  0.00  0.00     0.098 C 
BRANCH  16  17
ATOM     17  C7  <0> d           2.686  -1.364  -4.868  0.00  0.00     0.134 C 
BRANCH  17  18
ATOM     18  N2  <0> d           2.065  -0.903  -3.624  0.00  0.00    -0.342 N 
ATOM     19  C4  <0> d           0.734  -0.296  -3.653  0.00  0.00     0.146 C 
ATOM     20  C3  <0> d          -0.074  -0.718  -2.429  0.00  0.00     0.146 C 
ATOM     21  N1  <0> d           0.688  -0.476  -1.203  0.00  0.00    -0.343 N 
ATOM     22  C6  <0> d           2.020  -0.683  -1.182  0.00  0.00     0.311 C 
ATOM     23  C5  <0> d           2.722  -1.040  -2.454  0.00  0.00     0.311 C 
ATOM     24  O2  <0> d           2.641  -0.584  -0.144  0.00  0.00    -0.262 OA
ATOM     25  O1  <0> d           3.866  -1.441  -2.435  0.00  0.00    -0.262 OA
BRANCH  21  26
ATOM     26  C2  <0> d           0.002  -0.004   0.002  0.00  0.00     0.122 C 
ATOM     27  C1  <0> d          -0.019   1.526   0.010  0.00  0.00     0.026 C 
ENDBRANCH  21  26
ENDBRANCH  17  18
ENDBRANCH  16  17
ENDBRANCH   1  16
TORSDOF 4
