REMARK  9 active torsions:
REMARK  status: ('A' for Active; 'I' for Inactive)
REMARK    1  A    between atoms: C2_2  and  O1_3 
REMARK    2  A    between atoms: O1_3  and  C3_4 
REMARK    3  A    between atoms: C3_4  and  C4_6 
REMARK    4  A    between atoms: C5_7  and  C8_13 
REMARK    5  A    between atoms: C8_13  and  N4_32 
REMARK    6  A    between atoms: C10_15  and  C11_16 
REMARK    7  A    between atoms: C10_15  and  N4_32 
REMARK       I    between atoms: C11_16  and  N3_18 
REMARK    8  A    between atoms: N3_18  and  C12_19 
REMARK    9  A    between atoms: C17_24  and  C18_25 
ROOT
ATOM      1  C9  <0> d          -3.980   3.521   1.029  0.00  0.00     0.270 C 
ATOM      2  N4  <0> d          -3.501   2.126   1.120  0.00  0.00    -0.061 N 
ATOM      3  H22 <0> d          -2.884   2.038   1.937  0.00  0.00     0.280 HD
ENDROOT
BRANCH   2   4
ATOM      4  C8  <0> d          -2.740   1.772  -0.097  0.00  0.00     0.292 C 
BRANCH   4   5
ATOM      5  C5  <0> d          -1.402   2.464  -0.049  0.00  0.00     0.053 A 
ATOM      6  C4  <0> d          -0.388   1.903   0.644  0.00  0.00     0.059 A 
ATOM      7  C7  <0> d           0.942   2.629   0.660  0.00  0.00     0.171 A 
ATOM      8  N2  <0> d           1.018   3.899  -0.081  0.00  0.00    -0.338 N 
ATOM      9  C6  <0> d          -0.084   4.334  -0.722  0.00  0.00     0.320 A 
ATOM     10  H7  <0> d           1.842   4.410  -0.108  0.00  0.00     0.164 HD
ATOM     11  N1  <0> d          -1.236   3.651  -0.704  0.00  0.00    -0.310 N 
ATOM     12  O3  <0> d          -0.032   5.381  -1.337  0.00  0.00    -0.247 OA
ATOM     13  H6  <0> d          -1.994   4.018  -1.185  0.00  0.00     0.170 HD
BRANCH   6  14
ATOM     14  C3  <0> d          -0.560   0.675   1.326  0.00  0.00     0.292 C 
ATOM     15  O2  <0> d          -1.663   0.167   1.395  0.00  0.00    -0.259 OA
BRANCH  14  16
ATOM     16  O1  <0> d           0.500   0.069   1.901  0.00  0.00    -0.318 OA
BRANCH  16  17
ATOM     17  C2  <0> d           0.254  -1.168   2.573  0.00  0.00     0.174 C 
ATOM     18  C1  <0> d           1.564  -1.701   3.156  0.00  0.00     0.034 C 
ENDBRANCH  16  17
ENDBRANCH  14  16
ENDBRANCH   6  14
ENDBRANCH   4   5
ENDBRANCH   2   4
BRANCH   2  19
ATOM     19  C10 <0> d          -4.647   1.207   1.284  0.00  0.00     0.337 C 
BRANCH  19  20
ATOM     20  C11 <0> d          -5.271   1.445   2.635  0.00  0.00     0.248 C 
ATOM     21  O4  <0> d          -4.820   2.297   3.370  0.00  0.00    -0.271 OA
ATOM     22  N3  <0> d          -6.331   0.710   3.026  0.00  0.00    -0.325 N 
ATOM     23  H17 <0> d          -6.642  -0.025   2.474  0.00  0.00     0.169 HD
BRANCH  22  24
ATOM     24  C12 <0> d          -6.983   1.006   4.228  0.00  0.00     0.049 A 
ATOM     25  C17 <0> d          -7.572  -0.009   4.969  0.00  0.00     0.074 A 
ATOM     26  C16 <0> d          -8.215   0.287   6.156  0.00  0.00     0.018 A 
ATOM     27  C15 <0> d          -8.271   1.593   6.606  0.00  0.00     0.001 A 
ATOM     28  C14 <0> d          -7.684   2.607   5.870  0.00  0.00     0.002 A 
ATOM     29  C13 <0> d          -7.036   2.317   4.686  0.00  0.00     0.030 A 
BRANCH  25  30
ATOM     30  C18 <0> d          -7.510  -1.433   4.480  0.00  0.00     0.419 C 
ATOM     31  F1  <0> d          -8.169  -2.268   5.389  0.00  0.00    -0.166 F 
ATOM     32  F2  <0> d          -8.131  -1.524   3.230  0.00  0.00    -0.166 F 
ATOM     33  F3  <0> d          -6.174  -1.830   4.367  0.00  0.00    -0.166 F 
ENDBRANCH  25  30
ENDBRANCH  22  24
ENDBRANCH  19  20
ENDBRANCH   2  19
TORSDOF 9
