REMARK  7 active torsions:
REMARK  status: ('A' for Active; 'I' for Inactive)
REMARK    1  A    between atoms: C3_5  and  C4_7 
REMARK    2  A    between atoms: C4_7  and  O2_9 
REMARK    3  A    between atoms: O2_9  and  C6_10 
REMARK    4  A    between atoms: C6_10  and  C7_12 
REMARK    5  A    between atoms: C7_12  and  C8_13 
REMARK    6  A    between atoms: C8_13  and  C9_14 
REMARK    7  A    between atoms: C8_13  and  N3_22 
REMARK       I    between atoms: N3_22  and  C15_23 
ROOT
ATOM      1  C8  <0> d          -2.911  -6.986   2.480  0.00  0.00     0.133 C 
ENDROOT
BRANCH   1   2
ATOM      2  C7  <0> d          -2.464  -6.086   1.326  0.00  0.00     0.141 C 
BRANCH   2   3
ATOM      3  C6  <0> d          -1.522  -5.032   1.848  0.00  0.00     0.261 C 
ATOM      4  O3  <0> d          -1.238  -5.003   3.022  0.00  0.00    -0.265 OA
BRANCH   3   5
ATOM      5  O2  <0> d          -0.999  -4.125   1.008  0.00  0.00    -0.308 OA
BRANCH   5   6
ATOM      6  C4  <0> d          -0.114  -3.154   1.571  0.00  0.00     0.206 C 
ATOM      7  C5  <0> d           1.321  -3.684   1.522  0.00  0.00     0.049 C 
BRANCH   6   8
ATOM      8  C3  <0> d          -0.204  -1.874   0.781  0.00  0.00     0.198 A 
ATOM      9  N2  <0> d          -0.210  -1.768  -0.518  0.00  0.00    -0.124 NA
ATOM     10  N1  <0> d          -0.298  -0.527  -0.845  0.00  0.00    -0.127 NA
ATOM     11  C2  <0> d          -0.350   0.201   0.234  0.00  0.00     0.165 A 
ATOM     12  C1  <0> d          -0.456   1.704   0.292  0.00  0.00     0.102 C 
ATOM     13  O1  <0> d          -0.287  -0.632   1.286  0.00  0.00    -0.275 OA
ENDBRANCH   6   8
ENDBRANCH   5   6
ENDBRANCH   3   5
ENDBRANCH   2   3
ENDBRANCH   1   2
BRANCH   1  14
ATOM     14  C9  <0> d          -3.812  -8.072   1.950  0.00  0.00     0.042 A 
ATOM     15  C14 <0> d          -4.338  -7.974   0.673  0.00  0.00     0.127 A 
ATOM     16  C13 <0> d          -5.160  -8.976   0.185  0.00  0.00     0.043 A 
ATOM     17  F1  <0> d          -4.045  -6.904  -0.098  0.00  0.00    -0.205 F 
ATOM     18  C12 <0> d          -5.466 -10.067   0.976  0.00  0.00     0.006 A 
ATOM     19  C11 <0> d          -4.945 -10.163   2.253  0.00  0.00     0.043 A 
ATOM     20  C10 <0> d          -4.118  -9.166   2.741  0.00  0.00     0.127 A 
ATOM     21  F2  <0> d          -3.609  -9.261   3.989  0.00  0.00    -0.205 F 
ENDBRANCH   1  14
BRANCH   1  22
ATOM     22  N3  <0> d          -1.736  -7.591   3.111  0.00  0.00    -0.352 N 
ATOM     23  C15 <0> d          -0.892  -8.347   2.380  0.00  0.00     0.214 C 
ATOM     24  O4  <0> d          -1.154  -8.602   1.224  0.00  0.00    -0.274 OA
ATOM     25  C16 <0> d           0.376  -8.875   3.000  0.00  0.00     0.117 C 
ATOM     26  H14 <0> d          -1.565  -7.448   4.055  0.00  0.00     0.163 HD
ENDBRANCH   1  22
TORSDOF 7
