REMARK  5 active torsions:
REMARK  status: ('A' for Active; 'I' for Inactive)
REMARK    1  A    between atoms: C2_2  and  N1_3 
REMARK    2  A    between atoms: C3_4  and  C7_10 
REMARK       I    between atoms: C7_10  and  N3_12 
REMARK    3  A    between atoms: C9_14  and  C16_22 
REMARK       I    between atoms: C16_22  and  N5_24 
REMARK    4  A    between atoms: N5_24  and  C17_25 
REMARK    5  A    between atoms: C17_25  and  C18_26 
ROOT
ATOM      1  C7  <0> d           3.243  -0.405   0.206  0.00  0.00     0.273 C 
ATOM      2  O1  <0> d           4.391  -0.720   0.455  0.00  0.00    -0.266 OA
ATOM      3  N3  <0> d           2.941   0.159  -0.980  0.00  0.00    -0.345 N 
ATOM      4  C8  <0> d           1.600   0.512  -1.503  0.00  0.00     0.141 C 
ATOM      5  C9  <0> d           1.805   1.863  -2.223  0.00  0.00     0.106 C 
ATOM      6  C10 <0> d           3.300   1.892  -2.586  0.00  0.00    -0.007 C 
ATOM      7  C11 <0> d           3.875   0.571  -2.055  0.00  0.00     0.136 C 
ATOM      8  C12 <0> d           3.987   3.071  -1.905  0.00  0.00     0.039 C 
ATOM      9  C13 <0> d           5.458   3.111  -2.327  0.00  0.00     0.233 C 
ATOM     10  N4  <0> d           5.548   3.242  -3.786  0.00  0.00    -0.075 N 
ATOM     11  C14 <0> d           4.967   2.059  -4.432  0.00  0.00     0.233 C 
ATOM     12  C15 <0> d           3.475   1.974  -4.099  0.00  0.00     0.039 C 
ATOM     13  H19 <0> d           5.044   4.066  -4.080  0.00  0.00     0.277 HD
ATOM     14  H37 <0> d           6.516   3.330  -4.056  0.00  0.00     0.277 HD
ENDROOT
BRANCH   5  15
ATOM     15  C16 <0> d           0.959   1.928  -3.469  0.00  0.00     0.224 C 
ATOM     16  O2  <0> d           0.638   0.906  -4.037  0.00  0.00    -0.273 OA
ATOM     17  N5  <0> d           0.559   3.122  -3.950  0.00  0.00    -0.360 N 
ATOM     18  H24 <0> d           0.877   3.942  -3.540  0.00  0.00     0.162 HD
BRANCH  17  19
ATOM     19  C17 <0> d          -0.356   3.181  -5.093  0.00  0.00     0.129 C 
BRANCH  19  20
ATOM     20  C18 <0> d          -0.649   4.643  -5.436  0.00  0.00     0.031 C 
ATOM     21  C21 <0> d          -1.662   4.739  -6.596  0.00  0.00     0.240 C 
ATOM     22  N6  <0> d          -1.223   5.851  -7.465  0.00  0.00    -0.074 N 
ATOM     23  C20 <0> d          -0.010   6.458  -6.877  0.00  0.00     0.234 C 
ATOM     24  C22 <0> d          -2.289   6.858  -7.548  0.00  0.00     0.269 C 
ATOM     25  H36 <0> d          -1.015   5.501  -8.388  0.00  0.00     0.279 HD
ATOM     26  C19 <0> d           0.615   5.335  -6.012  0.00  0.00     0.035 C 
ENDBRANCH  19  20
ENDBRANCH  17  19
ENDBRANCH   5  15
BRANCH   1  27
ATOM     27  C3  <0> d           2.184  -0.640   1.200  0.00  0.00     0.140 A 
ATOM     28  N1  <0> d           1.659   0.274   2.071  0.00  0.00    -0.263 N 
ATOM     29  N2  <0> d           0.756  -0.287   2.792  0.00  0.00    -0.176 NA
ATOM     30  C5  <0> d           0.614  -1.547   2.467  0.00  0.00     0.070 A 
ATOM     31  C4  <0> d           1.519  -1.830   1.440  0.00  0.00     0.070 A 
ATOM     32  C6  <0> d          -0.351  -2.520   3.093  0.00  0.00     0.074 C 
ATOM     33 Br1  <0> d           1.778  -3.486   0.566  0.00  0.00    -0.046 Br
BRANCH  28  34
ATOM     34  C2  <0> d           2.068   1.677   2.171  0.00  0.00     0.147 C 
ATOM     35  C1  <0> d           3.284   1.789   3.093  0.00  0.00     0.028 C 
ENDBRANCH  28  34
ENDBRANCH   1  27
TORSDOF 5
