REMARK  5 active torsions:
REMARK  status: ('A' for Active; 'I' for Inactive)
REMARK    1  A    between atoms: C4_4  and  C10_14 
REMARK    2  A    between atoms: C7_7  and  O1_8 
REMARK    3  A    between atoms: O1_8  and  C8_9 
REMARK    4  A    between atoms: C8_9  and  C9_10 
REMARK       I    between atoms: C9_10  and  N1_12 
REMARK    5  A    between atoms: C11_15  and  C13_18 
ROOT
ATOM      1  C10 <0> d          -0.180  -2.972  -2.441  0.00  0.00     0.033 C 
ATOM      2  C11 <0> d           0.714  -3.972  -2.590  0.00  0.00     0.065 C 
ATOM      3  C12 <0> d           1.027  -4.463  -3.899  0.00  0.00     0.099 C 
ATOM      4  N2  <0> d           1.275  -4.853  -4.937  0.00  0.00    -0.192 NA
ENDROOT
BRANCH   2   5
ATOM      5  C13 <0> d           1.382  -4.573  -1.381  0.00  0.00     0.227 A 
ATOM      6  N4  <0> d           0.926  -5.955  -1.187  0.00  0.00    -0.362 N 
ATOM      7  C19 <0> d           1.971  -6.727  -1.271  0.00  0.00     0.056 A 
ATOM      8  H17 <0> d           0.013  -6.241  -1.026  0.00  0.00     0.162 HD
ATOM      9  C14 <0> d           3.179  -5.895  -1.525  0.00  0.00     0.056 A 
ATOM     10  C18 <0> d           2.150  -8.181  -1.165  0.00  0.00     0.031 A 
ATOM     11  N3  <0> d           2.834  -4.641  -1.589  0.00  0.00    -0.362 N 
ATOM     12  C15 <0> d           4.471  -6.583  -1.653  0.00  0.00     0.031 A 
ATOM     13  H16 <0> d           3.427  -3.890  -1.745  0.00  0.00     0.162 HD
ATOM     14  C16 <0> d           4.524  -7.925  -1.538  0.00  0.00     0.002 A 
ATOM     15  C17 <0> d           3.382  -8.711  -1.298  0.00  0.00     0.002 A 
ENDBRANCH   2   5
BRANCH   1  16
ATOM     16  C4  <0> d          -0.626  -2.580  -1.095  0.00  0.00    -0.033 A 
ATOM     17  C3  <0> d          -0.794  -1.228  -0.778  0.00  0.00     0.021 A 
ATOM     18  C2  <0> d          -1.213  -0.865   0.483  0.00  0.00    -0.026 A 
ATOM     19  C1  <0> d          -1.394   0.591   0.826  0.00  0.00     0.051 C 
ATOM     20  C7  <0> d          -1.463  -1.839   1.442  0.00  0.00     0.092 A 
ATOM     21  C6  <0> d          -1.303  -3.185   1.130  0.00  0.00     0.045 A 
ATOM     22  C5  <0> d          -0.885  -3.558  -0.129  0.00  0.00     0.033 A 
ATOM     23 Br1  <0> d          -1.653  -4.505   2.438  0.00  0.00    -0.048 Br
BRANCH  20  24
ATOM     24  O1  <0> d          -1.869  -1.476   2.685  0.00  0.00    -0.340 OA
BRANCH  24  25
ATOM     25  C8  <0> d          -3.278  -1.364   2.900  0.00  0.00     0.278 C 
BRANCH  25  26
ATOM     26  C9  <0> d          -3.537  -0.955   4.327  0.00  0.00     0.239 C 
ATOM     27  O2  <0> d          -2.607  -0.777   5.085  0.00  0.00    -0.271 OA
ATOM     28  N1  <0> d          -4.802  -0.787   4.761  0.00  0.00    -0.368 N 
ATOM     29  H8  <0> d          -5.545  -0.930   4.154  0.00  0.00     0.159 HD
ATOM     30  H9  <0> d          -4.969  -0.524   5.679  0.00  0.00     0.159 HD
ENDBRANCH  25  26
ENDBRANCH  24  25
ENDBRANCH  20  24
ENDBRANCH   1  16
TORSDOF 5
