REMARK  8 active torsions:
REMARK  status: ('A' for Active; 'I' for Inactive)
REMARK    1  A    between atoms: C7_7  and  N2_12 
REMARK    2  A    between atoms: N2_12  and  C8_13 
REMARK    3  A    between atoms: C8_13  and  C9_14 
REMARK    4  A    between atoms: C9_14  and  C10_15 
REMARK       I    between atoms: C10_15  and  N3_17 
REMARK    5  A    between atoms: N3_17  and  C11_18 
REMARK    6  A    between atoms: C11_18  and  C12_19 
REMARK    7  A    between atoms: C12_19  and  C13_20 
REMARK    8  A    between atoms: C12_19  and  N4_32 
ROOT
ATOM      1  C10 <0> d          -0.012   1.131   4.859  0.00  0.00     0.219 C 
ATOM      2  O3  <0> d           0.302   1.803   5.818  0.00  0.00    -0.274 OA
ATOM      3  N3  <0> d          -0.538   1.721   3.767  0.00  0.00    -0.359 N 
ATOM      4  H11 <0> d          -0.790   1.184   2.999  0.00  0.00     0.162 HD
ENDROOT
BRANCH   1   5
ATOM      5  C9  <0> d           0.185  -0.362   4.887  0.00  0.00     0.122 C 
BRANCH   5   6
ATOM      6  C8  <0> d           0.793  -0.771   6.230  0.00  0.00     0.130 C 
BRANCH   6   7
ATOM      7  N2  <0> d           0.985  -2.223   6.258  0.00  0.00    -0.373 N 
ATOM      8  H6  <0> d           0.733  -2.760   5.490  0.00  0.00     0.161 HD
BRANCH   7   9
ATOM      9  C7  <0> d           1.523  -2.826   7.374  0.00  0.00     0.148 A 
ATOM     10  C5  <0> d           1.714  -4.284   7.413  0.00  0.00     0.034 A 
ATOM     11  C4  <0> d           2.276  -4.711   8.624  0.00  0.00     0.095 A 
ATOM     12  C6  <0> d           1.441  -5.264   6.446  0.00  0.00     0.017 A 
ATOM     13  C3  <0> d           2.544  -6.025   8.877  0.00  0.00     0.026 A 
ATOM     14  S1  <0> d           2.462  -3.199   9.528  0.00  0.00     0.286 S 
ATOM     15  C2  <0> d           2.263  -6.981   7.912  0.00  0.00     0.002 A 
ATOM     16  C1  <0> d           1.714  -6.589   6.704  0.00  0.00     0.001 A 
ATOM     17  N1  <0> d           1.861  -2.116   8.403  0.00  0.00    -0.141 NA
ATOM     18  O1  <0> d           3.854  -2.948   9.670  0.00  0.00    -0.198 OA
ATOM     19  O2  <0> d           1.557  -3.234  10.623  0.00  0.00    -0.198 OA
ENDBRANCH   7   9
ENDBRANCH   6   7
ENDBRANCH   5   6
ENDBRANCH   1   5
BRANCH   3  20
ATOM     20  C11 <0> d          -0.730   3.173   3.739  0.00  0.00     0.161 C 
BRANCH  20  21
ATOM     21  C12 <0> d          -1.425   3.571   2.435  0.00  0.00     0.245 C 
BRANCH  21  22
ATOM     22  C13 <0> d          -0.510   3.286   1.272  0.00  0.00     0.015 A 
ATOM     23  S2  <0> d          -0.185   1.735   0.451  0.00  0.00    -0.104 SA
ATOM     24  C16 <0> d           0.980   2.331  -0.763  0.00  0.00     0.050 A 
ATOM     25  C15 <0> d           1.042   3.652  -0.466  0.00  0.00     0.008 A 
ATOM     26  C14 <0> d           0.274   4.143   0.573  0.00  0.00     0.017 A 
ENDBRANCH  21  22
BRANCH  21  27
ATOM     27  N4  <0> d          -2.659   2.770   2.284  0.00  0.00    -0.057 N 
ATOM     28  C17 <0> d          -3.562   3.012   3.429  0.00  0.00     0.262 C 
ATOM     29  C18 <0> d          -4.812   2.144   3.260  0.00  0.00     0.195 C 
ATOM     30  O4  <0> d          -5.439   2.456   2.013  0.00  0.00    -0.388 OA
ATOM     31  C19 <0> d          -4.592   2.257   0.878  0.00  0.00     0.195 C 
ATOM     32  C20 <0> d          -3.341   3.126   1.022  0.00  0.00     0.262 C 
ATOM     33  H25 <0> d          -2.410   1.774   2.259  0.00  0.00     0.281 HD
ENDBRANCH  21  27
ENDBRANCH  20  21
ENDBRANCH   3  20
TORSDOF 8
