REMARK  4 active torsions:
REMARK  status: ('A' for Active; 'I' for Inactive)
REMARK    1  A    between atoms: C3_6  and  C4_7 
REMARK    2  A    between atoms: C4_7  and  N4_8 
REMARK       I    between atoms: N4_8  and  C5_9 
REMARK    3  A    between atoms: C5_9  and  C6_11 
REMARK    4  A    between atoms: C6_11  and  N5_12 
ROOT
ATOM      1  N4  <0> d          -1.346  -0.281   3.008  0.00  0.00    -0.352 N 
ATOM      2  C5  <0> d          -1.585   0.089   4.282  0.00  0.00     0.236 C 
ATOM      3  O1  <0> d          -0.659   0.323   5.029  0.00  0.00    -0.272 OA
ATOM      4  H7  <0> d          -2.087  -0.468   2.410  0.00  0.00     0.162 HD
ENDROOT
BRANCH   2   5
ATOM      5  C6  <0> d          -3.003   0.212   4.777  0.00  0.00     0.234 C 
BRANCH   5   6
ATOM      6  N5  <0> d          -2.995   0.625   6.183  0.00  0.00    -0.315 N 
ATOM      7  C11 <0> d          -3.009   1.935   6.492  0.00  0.00     0.247 A 
ATOM      8  C10 <0> d          -3.006   2.341   7.837  0.00  0.00     0.076 A 
ATOM      9  O2  <0> d          -3.029   2.771   5.603  0.00  0.00    -0.268 OA
ATOM     10  C9  <0> d          -2.978   1.395   8.820  0.00  0.00     0.026 A 
ATOM     11  C8  <0> d          -2.959   0.038   8.466  0.00  0.00     0.026 A 
ATOM     12  C7  <0> d          -2.967  -0.319   7.159  0.00  0.00     0.113 A 
ATOM     13 Br1  <0> d          -2.921  -1.291   9.810  0.00  0.00    -0.050 Br
ENDBRANCH   5   6
ENDBRANCH   2   5
BRANCH   1  14
ATOM     14  C4  <0> d           0.032  -0.400   2.526  0.00  0.00     0.203 C 
BRANCH  14  15
ATOM     15  C3  <0> d           0.024  -0.825   1.080  0.00  0.00     0.147 A 
ATOM     16  N1  <0> d           0.002  -0.004   0.002  0.00  0.00    -0.330 N 
ATOM     17  C1  <0> d          -0.018   1.461   0.010  0.00  0.00     0.158 C 
ATOM     18  C2  <0> d           0.009  -0.813  -1.085  0.00  0.00     0.235 A 
ATOM     19  N2  <0> d           0.027  -2.044  -0.652  0.00  0.00    -0.143 NA
ATOM     20  N3  <0> d           0.032  -2.051   0.634  0.00  0.00    -0.134 NA
ENDBRANCH  14  15
ENDBRANCH   1  14
TORSDOF 4
