REMARK  4 active torsions:
REMARK  status: ('A' for Active; 'I' for Inactive)
REMARK    1  A    between atoms: C8_8  and  C10_12 
REMARK    2  A    between atoms: C10_12  and  N2_13 
REMARK    3  A    between atoms: N2_13  and  C11_14 
REMARK    4  A    between atoms: C11_14  and  C12_15 
ROOT
ATOM      1  C1  <0> d          -0.016   1.362   0.009  0.00  0.00     0.001 A 
ATOM      2  C2  <0> d           1.169   2.084   0.002  0.00  0.00     0.002 A 
ATOM      3  C3  <0> d           2.386   1.439  -0.013  0.00  0.00     0.030 A 
ATOM      4  C4  <0> d           2.430   0.048  -0.021  0.00  0.00     0.045 A 
ATOM      5  C5  <0> d           1.226  -0.681  -0.013  0.00  0.00    -0.009 A 
ATOM      6  C6  <0> d           0.002  -0.004   0.002  0.00  0.00     0.014 A 
ATOM      7  C7  <0> d           1.283  -2.144  -0.022  0.00  0.00     0.028 A 
ATOM      8  C8  <0> d           2.498  -2.745  -0.037  0.00  0.00     0.036 A 
ATOM      9  C9  <0> d           3.676  -1.967  -0.045  0.00  0.00     0.253 A 
ATOM     10  N1  <0> d           3.634  -0.624  -0.036  0.00  0.00    -0.322 N 
ATOM     11  O1  <0> d           4.758  -2.528  -0.058  0.00  0.00    -0.268 OA
ATOM     12  H18 <0> d           4.463  -0.119  -0.042  0.00  0.00     0.169 HD
ENDROOT
BRANCH   8  13
ATOM     13  C10 <0> d           2.591  -4.249  -0.045  0.00  0.00     0.276 C 
BRANCH  13  14
ATOM     14  N2  <0> d           2.728  -4.724  -1.429  0.00  0.00    -0.069 N 
ATOM     15  H9  <0> d           1.924  -4.434  -1.965  0.00  0.00     0.277 HD
ATOM     16  H19 <0> d           3.564  -4.332  -1.838  0.00  0.00     0.277 HD
BRANCH  14  17
ATOM     17  C11 <0> d           2.819  -6.190  -1.437  0.00  0.00     0.266 C 
BRANCH  17  18
ATOM     18  C12 <0> d           2.962  -6.684  -2.878  0.00  0.00     0.170 C 
ATOM     19  O3  <0> d           4.205  -6.227  -3.419  0.00  0.00    -0.380 OA
ATOM     20  C15 <0> d           4.451  -6.684  -4.753  0.00  0.00     0.194 C 
ATOM     21  C14 <0> d           4.424  -8.215  -4.774  0.00  0.00     0.193 C 
ATOM     22  O2  <0> d           3.180  -8.670  -4.234  0.00  0.00    -0.386 OA
ATOM     23  C13 <0> d           2.935  -8.215  -2.900  0.00  0.00     0.201 C 
ENDBRANCH  17  18
ENDBRANCH  14  17
ENDBRANCH  13  14
ENDBRANCH   8  13
TORSDOF 4
