REMARK  7 active torsions:
REMARK  status: ('A' for Active; 'I' for Inactive)
REMARK    1  A    between atoms: C2_2  and  C3_3 
REMARK    2  A    between atoms: C3_3  and  N1_4 
REMARK    3  A    between atoms: N1_4  and  C4_5 
REMARK    4  A    between atoms: C4_5  and  C5_6 
REMARK    5  A    between atoms: C10_11  and  O1_12 
REMARK    6  A    between atoms: O1_12  and  C11_13 
REMARK    7  A    between atoms: C15_17  and  O2_18 
ROOT
ATOM      1  C5  <0> d          -2.576  -4.034  -0.021  0.00  0.00     0.002 A 
ATOM      2  C6  <0> d          -2.582  -4.720  -1.220  0.00  0.00     0.030 A 
ATOM      3  C7  <0> d          -2.366  -6.086  -1.237  0.00  0.00     0.011 A 
ATOM      4  C8  <0> d          -2.144  -6.768  -0.054  0.00  0.00     0.022 A 
ATOM      5  C9  <0> d          -2.136  -6.086   1.147  0.00  0.00     0.039 A 
ATOM      6  C10 <0> d          -2.348  -4.715   1.165  0.00  0.00     0.077 A 
ATOM      7 Br1  <0> d          -2.376  -7.023  -2.880  0.00  0.00    -0.051 Br
ENDROOT
BRANCH   6   8
ATOM      8  O1  <0> d          -2.336  -4.041   2.346  0.00  0.00    -0.343 OA
BRANCH   8   9
ATOM      9  C11 <0> d          -2.222  -4.821   3.537  0.00  0.00     0.157 C 
ATOM     10  C15 <0> d          -2.803  -4.054   4.743  0.00  0.00     0.147 C 
ATOM     11  C14 <0> d          -1.891  -4.369   5.944  0.00  0.00     0.034 C 
ATOM     12  C13 <0> d          -0.792  -5.319   5.425  0.00  0.00     0.005 C 
ATOM     13  C12 <0> d          -0.732  -5.037   3.903  0.00  0.00     0.035 C 
BRANCH  10  14
ATOM     14  O2  <0> d          -2.796  -2.649   4.479  0.00  0.00    -0.393 OA
ATOM     15  H22 <0> d          -3.150  -2.111   5.200  0.00  0.00     0.210 HD
ENDBRANCH  10  14
ENDBRANCH   8   9
ENDBRANCH   6   8
BRANCH   1  16
ATOM     16  C4  <0> d          -2.812  -2.546  -0.003  0.00  0.00     0.273 C 
BRANCH  16  17
ATOM     17  N1  <0> d          -1.524  -1.847   0.106  0.00  0.00    -0.071 N 
ATOM     18  H10 <0> d          -0.943  -2.087  -0.684  0.00  0.00     0.277 HD
ATOM     19  H23 <0> d          -1.062  -2.125   0.959  0.00  0.00     0.277 HD
BRANCH  17  20
ATOM     20  C3  <0> d          -1.753  -0.397   0.124  0.00  0.00     0.232 C 
BRANCH  20  21
ATOM     21  C2  <0> d          -0.412   0.331   0.238  0.00  0.00     0.023 C 
ATOM     22  C1  <0> d          -0.651   1.842   0.256  0.00  0.00     0.007 C 
ENDBRANCH  20  21
ENDBRANCH  17  20
ENDBRANCH  16  17
ENDBRANCH   1  16
TORSDOF 7
