REMARK  7 active torsions:
REMARK  status: ('A' for Active; 'I' for Inactive)
REMARK    1  A    between atoms: C2_2  and  N1_4 
REMARK       I    between atoms: N1_4  and  C4_5 
REMARK       I    between atoms: C4_5  and  N2_7 
REMARK    2  A    between atoms: N2_7  and  C5_8 
REMARK    3  A    between atoms: C5_8  and  C6_9 
REMARK    4  A    between atoms: C6_9  and  C7_10 
REMARK    5  A    between atoms: C6_9  and  O3_20 
REMARK    6  A    between atoms: C7_10  and  O2_11 
REMARK    7  A    between atoms: O2_11  and  C8_12 
ROOT
ATOM      1  C6  <0> d           4.580  -1.652  -3.704  0.00  0.00     0.160 C 
ENDROOT
BRANCH   1   2
ATOM      2  C5  <0> d           4.122  -1.142  -2.336  0.00  0.00     0.158 C 
BRANCH   2   3
ATOM      3  N2  <0> d           2.662  -1.022  -2.324  0.00  0.00    -0.341 N 
ATOM      4  C4  <0> d           2.031  -0.587  -1.215  0.00  0.00     0.316 C 
ATOM      5  N1  <0> d           0.688  -0.476  -1.203  0.00  0.00    -0.339 N 
ATOM      6  O1  <0> d           2.674  -0.294  -0.225  0.00  0.00    -0.247 OA
ATOM      7  H9  <0> d           0.175  -0.710  -1.993  0.00  0.00     0.164 HD
ATOM      8  H10 <0> d           2.149  -1.255  -3.114  0.00  0.00     0.164 HD
BRANCH   5   9
ATOM      9  C2  <0> d           0.002  -0.004   0.002  0.00  0.00     0.078 C 
ATOM     10  C1  <0> d          -0.019   1.526   0.010  0.00  0.00     0.032 C 
ATOM     11  C3  <0> d          -1.433  -0.534   0.013  0.00  0.00     0.032 C 
ENDBRANCH   5   9
ENDBRANCH   2   3
ENDBRANCH   1   2
BRANCH   1  12
ATOM     12  C7  <0> d           6.090  -1.896  -3.678  0.00  0.00     0.209 C 
BRANCH  12  13
ATOM     13  O2  <0> d           6.499  -2.482  -4.915  0.00  0.00    -0.347 OA
BRANCH  13  14
ATOM     14  C8  <0> d           7.821  -2.765  -5.057  0.00  0.00     0.092 A 
ATOM     15  C13 <0> d           8.288  -3.335  -6.233  0.00  0.00     0.089 A 
ATOM     16  C12 <0> d           9.636  -3.615  -6.376  0.00  0.00     0.058 A 
ATOM     17 Cl1  <0> d           7.184  -3.688  -7.525  0.00  0.00    -0.080 Cl
ATOM     18  C11 <0> d          10.514  -3.339  -5.343  0.00  0.00     0.026 A 
ATOM     19 Cl2  <0> d          10.223  -4.321  -7.849  0.00  0.00    -0.082 Cl
ATOM     20  C10 <0> d          10.049  -2.776  -4.169  0.00  0.00     0.005 A 
ATOM     21  C9  <0> d           8.705  -2.489  -4.024  0.00  0.00     0.038 A 
ENDBRANCH  13  14
ENDBRANCH  12  13
ENDBRANCH   1  12
BRANCH   1  22
ATOM     22  O3  <0> d           4.272  -0.679  -4.704  0.00  0.00    -0.392 OA
ATOM     23  H18 <0> d           4.697   0.178  -4.562  0.00  0.00     0.210 HD
ENDBRANCH   1  22
TORSDOF 7
