REMARK  2 active torsions:
REMARK  status: ('A' for Active; 'I' for Inactive)
REMARK    1  A    between atoms: C7_9  and  C9_14 
REMARK    2  A    between atoms: N3_12  and  O2_13 
ROOT
ATOM      1  C1  <0> d           1.164   3.169   0.008  0.00  0.00     0.002 A 
ATOM      2  C2  <0> d           1.172   1.781   0.000  0.00  0.00     0.002 A 
ATOM      3  C3  <0> d          -0.013   1.076   0.008  0.00  0.00     0.034 A 
ATOM      4  C4  <0> d          -1.226   1.754   0.017  0.00  0.00     0.094 A 
ATOM      5  C5  <0> d          -1.240   3.159   0.031  0.00  0.00     0.095 A 
ATOM      6  C6  <0> d          -0.025   3.859   0.023  0.00  0.00     0.034 A 
ATOM      7  N1  <0> d          -2.411   3.842   0.045  0.00  0.00    -0.182 N 
ATOM      8  O1  <0> d          -2.388   5.258   0.051  0.00  0.00    -0.080 OA
ATOM      9  C7  <0> d          -3.565   3.219   0.036  0.00  0.00     0.122 A 
ATOM     10  C8  <0> d          -3.607   1.744   0.028  0.00  0.00     0.157 A 
ATOM     11  N2  <0> d          -4.751   1.110   0.030  0.00  0.00    -0.382 N 
ATOM     12  N3  <0> d          -2.418   1.046   0.019  0.00  0.00    -0.204 N 
ATOM     13  H5  <0> d          -4.771   0.011   0.024  0.00  0.00     0.157 HD
ATOM     14  H10 <0> d          -5.694   1.677   0.038  0.00  0.00     0.157 HD
ENDROOT
BRANCH   9  15
ATOM     15  C9  <0> d          -4.825   3.994   0.047  0.00  0.00    -0.003 A 
ATOM     16  C14 <0> d          -5.873   3.639  -0.803  0.00  0.00     0.015 A 
ATOM     17  C13 <0> d          -7.046   4.365  -0.788  0.00  0.00     0.024 A 
ATOM     18  C12 <0> d          -7.184   5.445   0.068  0.00  0.00     0.034 A 
ATOM     19  C11 <0> d          -6.148   5.801   0.914  0.00  0.00     0.024 A 
ATOM     20 Cl1  <0> d          -8.663   6.354   0.081  0.00  0.00    -0.084 Cl
ATOM     21  C10 <0> d          -4.972   5.079   0.912  0.00  0.00     0.015 A 
ENDBRANCH   9  15
BRANCH  12  22
ATOM     22  O2  <0> d          -2.414  -0.370   0.011  0.00  0.00    -0.281 OA
ATOM     23  H11 <0> d          -3.365  -0.923   0.012  0.00  0.00     0.245 HD
ENDBRANCH  12  22
TORSDOF 2
