REMARK  3 active torsions:
REMARK  status: ('A' for Active; 'I' for Inactive)
REMARK    1  A    between atoms: C9_12  and  N3_14 
REMARK       I    between atoms: N3_14  and  C10_15 
REMARK    2  A    between atoms: C10_15  and  C11_17 
REMARK    3  A    between atoms: C14_20  and  N4_23 
ROOT
ATOM      1  N3  <0> d           7.568  -0.366  -0.119  0.00  0.00    -0.301 N 
ATOM      2  C10 <0> d           8.592   0.509  -0.077  0.00  0.00     0.257 C 
ATOM      3  O1  <0> d           8.369   1.703  -0.026  0.00  0.00    -0.267 OA
ATOM      4  H6  <0> d           7.769  -1.447  -0.165  0.00  0.00     0.171 HD
ENDROOT
BRANCH   1   5
ATOM      5  C9  <0> d           6.261   0.095  -0.104  0.00  0.00     0.174 A 
ATOM      6  S2  <0> d           4.740  -0.842  -0.150  0.00  0.00    -0.047 SA
ATOM      7  C8  <0> d           3.628   0.543  -0.095  0.00  0.00     0.067 A 
ATOM      8  C3  <0> d           2.230   0.668  -0.095  0.00  0.00     0.094 A 
ATOM      9  C7  <0> d           4.505   1.637  -0.043  0.00  0.00     0.079 A 
ATOM     10  N1  <0> d           1.274  -0.283  -0.139  0.00  0.00    -0.244 NA
ATOM     11  C4  <0> d           1.733   1.991  -0.039  0.00  0.00     0.037 A 
ATOM     12  C2  <0> d           0.002  -0.001  -0.132  0.00  0.00     0.072 A 
ATOM     13  C1  <0> d          -1.167  -0.951  -0.178  0.00  0.00     0.079 C 
ATOM     14  S1  <0> d          -0.022   1.733  -0.057  0.00  0.00    -0.073 SA
ATOM     15  C5  <0> d           2.572   3.082   0.012  0.00  0.00     0.024 A 
ATOM     16  C6  <0> d           3.924   2.933   0.011  0.00  0.00     0.034 A 
ATOM     17  N2  <0> d           5.824   1.331  -0.052  0.00  0.00    -0.223 NA
ENDBRANCH   1   5
BRANCH   2  18
ATOM     18  C11 <0> d           9.983   0.018  -0.093  0.00  0.00     0.032 A 
ATOM     19  C16 <0> d          11.046   0.924  -0.050  0.00  0.00     0.019 A 
ATOM     20  C15 <0> d          12.344   0.462  -0.064  0.00  0.00     0.031 A 
ATOM     21  C14 <0> d          12.596  -0.905  -0.122  0.00  0.00     0.045 A 
ATOM     22  C13 <0> d          11.541  -1.809  -0.165  0.00  0.00     0.031 A 
ATOM     23  C12 <0> d          10.241  -1.355  -0.145  0.00  0.00     0.019 A 
BRANCH  21  24
ATOM     24  N4  <0> d          13.915  -1.370  -0.136  0.00  0.00    -0.252 N 
ATOM     25  C20 <0> d          14.448  -2.065   0.876  0.00  0.00     0.231 A 
ATOM     26  C19 <0> d          15.882  -2.412   0.540  0.00  0.00     0.113 A 
ATOM     27  O3  <0> d          13.874  -2.369   1.899  0.00  0.00    -0.273 OA
ATOM     28  C18 <0> d          16.087  -1.790  -0.856  0.00  0.00     0.113 A 
ATOM     29  C17 <0> d          14.745  -1.162  -1.165  0.00  0.00     0.231 A 
ATOM     30  O2  <0> d          14.467  -0.563  -2.182  0.00  0.00    -0.273 OA
ENDBRANCH  21  24
ENDBRANCH   2  18
TORSDOF 3
