REMARK  6 active torsions:
REMARK  status: ('A' for Active; 'I' for Inactive)
REMARK    1  A    between atoms: C2_2  and  C3_3 
REMARK    2  A    between atoms: C5_6  and  C6_8 
REMARK    3  A    between atoms: C6_8  and  C7_9 
REMARK    4  A    between atoms: C7_9  and  N2_10 
REMARK       I    between atoms: N2_10  and  C8_11 
REMARK    5  A    between atoms: C8_11  and  C9_13 
REMARK    6  A    between atoms: C13_17  and  N3_19 
REMARK       I    between atoms: N3_19  and  C15_20 
ROOT
ATOM      1  N2  <0> d           5.753  -3.207  -2.392  0.00  0.00    -0.356 N 
ATOM      2  C8  <0> d           6.235  -4.441  -2.142  0.00  0.00     0.251 C 
ATOM      3  O1  <0> d           5.486  -5.320  -1.762  0.00  0.00    -0.268 OA
ATOM      4  H10 <0> d           6.351  -2.506  -2.695  0.00  0.00     0.162 HD
ENDROOT
BRANCH   2   5
ATOM      5  C9  <0> d           7.673  -4.724  -2.329  0.00  0.00     0.034 A 
ATOM      6  C14 <0> d           8.173  -6.001  -2.070  0.00  0.00     0.050 A 
ATOM      7  C13 <0> d           9.521  -6.262  -2.252  0.00  0.00     0.074 A 
ATOM      8  C12 <0> d          10.374  -5.249  -2.682  0.00  0.00     0.143 A 
ATOM      9  C11 <0> d           9.877  -3.981  -2.933  0.00  0.00     0.046 A 
ATOM     10  F1  <0> d          11.690  -5.503  -2.854  0.00  0.00    -0.204 F 
ATOM     11  C10 <0> d           8.535  -3.714  -2.759  0.00  0.00     0.020 A 
BRANCH   7  12
ATOM     12  N3  <0> d          10.027  -7.543  -2.000  0.00  0.00    -0.325 N 
ATOM     13  C15 <0> d           9.511  -8.287  -1.002  0.00  0.00     0.218 C 
ATOM     14  O2  <0> d           8.555  -7.881  -0.375  0.00  0.00    -0.274 OA
ATOM     15  C16 <0> d          10.120  -9.623  -0.664  0.00  0.00     0.117 C 
ATOM     16  H14 <0> d          10.749  -7.896  -2.543  0.00  0.00     0.169 HD
ENDBRANCH   7  12
ENDBRANCH   2   5
BRANCH   1  17
ATOM     17  C7  <0> d           4.328  -2.926  -2.206  0.00  0.00     0.129 C 
BRANCH  17  18
ATOM     18  C6  <0> d           4.047  -1.463  -2.556  0.00  0.00     0.086 C 
BRANCH  18  19
ATOM     19  C5  <0> d           2.580  -1.174  -2.365  0.00  0.00     0.077 A 
ATOM     20  S1  <0> d           1.331  -1.318  -3.485  0.00  0.00    -0.078 SA
ATOM     21  C4  <0> d          -0.007  -0.785  -2.429  0.00  0.00     0.005 A 
ATOM     22  C3  <0> d           0.667  -0.540  -1.276  0.00  0.00     0.048 A 
ATOM     23  C17 <0> d          -1.476  -0.646  -2.734  0.00  0.00     0.058 C 
ATOM     24  N1  <0> d           1.969  -0.745  -1.290  0.00  0.00    -0.249 NA
BRANCH  22  25
ATOM     25  C2  <0> d          -0.042  -0.052  -0.039  0.00  0.00     0.056 C 
ATOM     26  C1  <0> d          -0.071   1.478  -0.039  0.00  0.00     0.011 C 
ENDBRANCH  22  25
ENDBRANCH  18  19
ENDBRANCH  17  18
ENDBRANCH   1  17
TORSDOF 6
