REMARK  7 active torsions:
REMARK  status: ('A' for Active; 'I' for Inactive)
REMARK    1  A    between atoms: C2_2  and  C5_5 
REMARK    2  A    between atoms: C8_8  and  C17_23 
REMARK    3  A    between atoms: N2_14  and  C11_16 
REMARK    4  A    between atoms: C17_23  and  N4_24 
REMARK    5  A    between atoms: N4_24  and  C18_25 
REMARK    6  A    between atoms: C18_25  and  C19_26 
REMARK    7  A    between atoms: C24_31  and  O2_32 
ROOT
ATOM      1  C5  <0> d           0.707  -0.490  -1.238  0.00  0.00     0.077 A 
ATOM      2  C6  <0> d           0.917  -1.843  -1.595  0.00  0.00     0.038 A 
ATOM      3  C7  <0> d           0.579  -3.072  -0.985  0.00  0.00     0.032 A 
ATOM      4  C8  <0> d           0.931  -4.234  -1.597  0.00  0.00     0.036 A 
ATOM      5  C9  <0> d           1.624  -4.202  -2.821  0.00  0.00     0.255 A 
ATOM      6  O1  <0> d           1.937  -5.249  -3.363  0.00  0.00    -0.268 OA
ATOM      7  N1  <0> d           1.946  -3.031  -3.401  0.00  0.00    -0.307 N 
ATOM      8  H1  <0> d           2.423  -3.028  -4.246  0.00  0.00     0.170 HD
ATOM      9  C10 <0> d           1.605  -1.844  -2.811  0.00  0.00     0.144 A 
ATOM     10  N2  <0> d           1.795  -0.544  -3.158  0.00  0.00    -0.216 N 
ATOM     11  N3  <0> d           1.224   0.264  -2.167  0.00  0.00    -0.169 NA
ENDROOT
BRANCH   4  12
ATOM     12  C17 <0> d           0.581  -5.555  -0.963  0.00  0.00     0.276 C 
BRANCH  12  13
ATOM     13  N4  <0> d          -0.682  -6.050  -1.528  0.00  0.00    -0.067 N 
ATOM     14  H18 <0> d          -1.417  -5.383  -1.345  0.00  0.00     0.277 HD
ATOM     15  H28 <0> d          -0.579  -6.171  -2.525  0.00  0.00     0.277 HD
BRANCH  13  16
ATOM     16  C18 <0> d          -1.024  -7.338  -0.911  0.00  0.00     0.274 C 
BRANCH  16  17
ATOM     17  C19 <0> d          -2.319  -7.845  -1.491  0.00  0.00     0.001 A 
ATOM     18  C24 <0> d          -2.326  -8.475  -2.727  0.00  0.00     0.076 A 
ATOM     19  C23 <0> d          -3.519  -8.946  -3.256  0.00  0.00     0.037 A 
ATOM     20  C22 <0> d          -4.698  -8.777  -2.556  0.00  0.00     0.003 A 
ATOM     21  C21 <0> d          -4.689  -8.144  -1.326  0.00  0.00     0.001 A 
ATOM     22  C20 <0> d          -3.500  -7.678  -0.795  0.00  0.00     0.011 A 
BRANCH  18  23
ATOM     23  O2  <0> d          -1.166  -8.636  -3.416  0.00  0.00    -0.355 OA
ATOM     24  C25 <0> d          -1.249  -9.293  -4.682  0.00  0.00     0.210 C 
ENDBRANCH  18  23
ENDBRANCH  16  17
ENDBRANCH  13  16
ENDBRANCH  12  13
ENDBRANCH   4  12
BRANCH   1  25
ATOM     25  C2  <0> d           0.002  -0.004   0.002  0.00  0.00    -0.004 C 
ATOM     26  C1  <0> d          -0.019   1.526   0.010  0.00  0.00     0.021 C 
ATOM     27  C3  <0> d           0.742  -0.511   1.242  0.00  0.00     0.021 C 
ATOM     28  C4  <0> d          -1.433  -0.534   0.013  0.00  0.00     0.021 C 
ENDBRANCH   1  25
BRANCH  10  29
ATOM     29  C11 <0> d           2.446  -0.090  -4.313  0.00  0.00     0.060 A 
ATOM     30  C16 <0> d           2.009   1.064  -4.950  0.00  0.00     0.033 A 
ATOM     31  C15 <0> d           2.657   1.513  -6.083  0.00  0.00     0.026 A 
ATOM     32  C14 <0> d           3.733   0.808  -6.592  0.00  0.00     0.034 A 
ATOM     33  C13 <0> d           4.168  -0.345  -5.962  0.00  0.00     0.026 A 
ATOM     34 Cl1  <0> d           4.541   1.371  -8.022  0.00  0.00    -0.084 Cl
ATOM     35  C12 <0> d           3.527  -0.795  -4.824  0.00  0.00     0.033 A 
ENDBRANCH  10  29
TORSDOF 7
