REMARK  4 active torsions:
REMARK  status: ('A' for Active; 'I' for Inactive)
REMARK    1  A    between atoms: C5_6  and  N3_8 
REMARK    2  A    between atoms: N4_11  and  C10_14 
REMARK    3  A    between atoms: C10_14  and  C11_15 
REMARK    4  A    between atoms: C11_15  and  O1_16 
ROOT
ATOM      1  C1  <0> d          -1.965  -0.570   0.611  0.00  0.00     0.071 C 
ATOM      2  C2  <0> d          -0.749   0.266   0.305  0.00  0.00     0.050 A 
ATOM      3  C3  <0> d           0.387  -0.311  -0.277  0.00  0.00     0.059 A 
ATOM      4  C4  <0> d           1.496   0.498  -0.550  0.00  0.00     0.054 A 
ATOM      5  N1  <0> d           1.430   1.782  -0.242  0.00  0.00    -0.222 NA
ATOM      6  C5  <0> d           0.338   2.294   0.310  0.00  0.00     0.204 A 
ATOM      7  N2  <0> d          -0.733   1.557   0.579  0.00  0.00    -0.222 NA
ATOM      8  C12 <0> d           2.739  -0.058  -1.183  0.00  0.00     0.069 C 
ATOM      9  C13 <0> d           2.845  -1.564  -0.960  0.00  0.00    -0.036 C 
ATOM     10  C14 <0> d           1.563  -2.247  -1.454  0.00  0.00     0.093 C 
ATOM     11  C15 <0> d           0.421  -1.746  -0.593  0.00  0.00     0.164 C 
ATOM     12  O2  <0> d          -0.433  -2.501  -0.179  0.00  0.00    -0.292 OA
ATOM     13  C16 <0> d           4.045  -2.111  -1.736  0.00  0.00     0.015 C 
ATOM     14  C17 <0> d           3.031  -1.847   0.532  0.00  0.00     0.015 C 
ENDROOT
BRANCH   6  15
ATOM     15  N3  <0> d           0.314   3.638   0.615  0.00  0.00    -0.248 NA
ATOM     16  C9  <0> d          -0.972   4.019   1.215  0.00  0.00     0.129 C 
ATOM     17  C8  <0> d          -0.988   5.529   1.464  0.00  0.00     0.287 C 
ATOM     18  N4  <0> d           0.130   5.889   2.348  0.00  0.00     0.092 N 
ATOM     19  C7  <0> d           1.416   5.508   1.747  0.00  0.00     0.287 C 
ATOM     20  C6  <0> d           1.432   3.998   1.498  0.00  0.00     0.129 C 
BRANCH  18  21
ATOM     21  C10 <0> d           0.104   7.322   2.672  0.00  0.00     0.298 C 
BRANCH  21  22
ATOM     22  C11 <0> d           0.585   8.127   1.464  0.00  0.00     0.194 C 
BRANCH  22  23
ATOM     23  O1  <0> d          -0.331   7.954   0.381  0.00  0.00    -0.399 OA
ATOM     24  H16 <0> d          -0.150   8.460  -0.579  0.00  0.00     0.209 HD
ENDBRANCH  22  23
ENDBRANCH  21  22
ENDBRANCH  18  21
ENDBRANCH   6  15
TORSDOF 4
