REMARK  7 active torsions:
REMARK  status: ('A' for Active; 'I' for Inactive)
REMARK    1  A    between atoms: C2_2  and  N1_3 
REMARK    2  A    between atoms: C7_9  and  N3_14 
REMARK    3  A    between atoms: C8_10  and  C9_11 
REMARK       I    between atoms: C9_11  and  N2_13 
REMARK       I    between atoms: N3_14  and  C10_15 
REMARK    4  A    between atoms: C10_15  and  C11_17 
REMARK    5  A    between atoms: C14_20  and  S2_23 
REMARK    6  A    between atoms: S2_23  and  N4_26 
REMARK    7  A    between atoms: N4_26  and  C18_28 
ROOT
ATOM      1  N3  <0> d           7.747   4.097   3.891  0.00  0.00    -0.316 N 
ATOM      2  C10 <0> d           8.073   2.840   3.531  0.00  0.00     0.256 C 
ATOM      3  O2  <0> d           9.001   2.273   4.075  0.00  0.00    -0.267 OA
ATOM      4  H12 <0> d           6.908   4.610   3.399  0.00  0.00     0.169 HD
ENDROOT
BRANCH   1   5
ATOM      5  C7  <0> d           8.469   4.744   4.881  0.00  0.00     0.093 A 
ATOM      6  S1  <0> d           9.813   4.146   5.798  0.00  0.00    -0.074 SA
ATOM      7  C6  <0> d          10.124   5.564   6.808  0.00  0.00     0.018 A 
ATOM      8  C5  <0> d           9.189   6.466   6.432  0.00  0.00    -0.023 A 
ATOM      9  C24 <0> d          11.174   5.757   7.856  0.00  0.00     0.281 C 
ATOM     10  C4  <0> d           9.134   7.835   7.101  0.00  0.00     0.068 C 
ATOM     11  C8  <0> d           8.287   6.025   5.385  0.00  0.00     0.073 A 
ATOM     12  C3  <0> d           9.923   7.757   8.411  0.00  0.00     0.240 C 
ATOM     13  N1  <0> d          11.259   7.197   8.164  0.00  0.00    -0.067 N 
ATOM     14  H27 <0> d          11.687   7.712   7.290  0.00  0.00     0.280 HD
BRANCH  13  15
ATOM     15  C2  <0> d          12.152   7.440   9.305  0.00  0.00     0.231 C 
ATOM     16  C1  <0> d          11.540   6.835  10.569  0.00  0.00     0.034 C 
ENDBRANCH  13  15
BRANCH  11  17
ATOM     17  C9  <0> d           7.224   6.899   4.878  0.00  0.00     0.252 C 
ATOM     18  O1  <0> d           6.123   6.881   5.395  0.00  0.00    -0.268 OA
ATOM     19  N2  <0> d           7.467   7.721   3.838  0.00  0.00    -0.366 N 
ATOM     20  H10 <0> d           6.669   8.376   3.457  0.00  0.00     0.159 HD
ATOM     21  H11 <0> d           8.462   7.737   3.370  0.00  0.00     0.159 HD
ENDBRANCH  11  17
ENDBRANCH   1   5
BRANCH   2  22
ATOM     22  C11 <0> d           7.303   2.151   2.475  0.00  0.00     0.032 A 
ATOM     23  C16 <0> d           6.237   2.799   1.848  0.00  0.00     0.018 A 
ATOM     24  C15 <0> d           5.525   2.151   0.860  0.00  0.00     0.026 A 
ATOM     25  C14 <0> d           5.859   0.859   0.496  0.00  0.00     0.080 A 
ATOM     26  C13 <0> d           6.915   0.211   1.113  0.00  0.00     0.026 A 
ATOM     27  C12 <0> d           7.638   0.849   2.099  0.00  0.00     0.018 A 
BRANCH  25  28
ATOM     28  S2  <0> d           4.941   0.036  -0.763  0.00  0.00     0.264 S 
ATOM     29  O3  <0> d           5.843  -0.851  -1.410  0.00  0.00    -0.200 OA
ATOM     30  O4  <0> d           4.226   1.043  -1.466  0.00  0.00    -0.200 OA
BRANCH  28  31
ATOM     31  N4  <0> d           3.809  -0.907  -0.006  0.00  0.00    -0.276 N 
ATOM     32  C17 <0> d           4.144  -2.277   0.389  0.00  0.00     0.170 C 
BRANCH  31  33
ATOM     33  C18 <0> d           2.535  -0.397   0.254  0.00  0.00     0.044 A 
ATOM     34  C23 <0> d           2.351   0.972   0.405  0.00  0.00     0.030 A 
ATOM     35  C22 <0> d           1.091   1.473   0.662  0.00  0.00     0.002 A 
ATOM     36  C21 <0> d           0.012   0.615   0.769  0.00  0.00     0.000 A 
ATOM     37  C20 <0> d           0.192  -0.748   0.620  0.00  0.00     0.002 A 
ATOM     38  C19 <0> d           1.450  -1.256   0.363  0.00  0.00     0.030 A 
ENDBRANCH  31  33
ENDBRANCH  28  31
ENDBRANCH  25  28
ENDBRANCH   2  22
TORSDOF 7
