REMARK  1 active torsions:
REMARK  status: ('A' for Active; 'I' for Inactive)
REMARK    1  A    between atoms: N3_8  and  C5_9 
ROOT
ATOM      1  C1  <0> d           0.389   1.697  -0.145  0.00  0.00     0.028 C 
ATOM      2  C2  <0> d           0.160   0.189  -0.023  0.00  0.00     0.105 A 
ATOM      3  C3  <0> d           0.585  -0.489  -1.328  0.00  0.00     0.077 A 
ATOM      4  N1  <0> d           1.529  -1.397  -1.284  0.00  0.00    -0.176 NA
ATOM      5  N2  <0> d           2.232  -1.895  -0.370  0.00  0.00    -0.257 N 
ATOM      6  C4  <0> d           2.231  -1.627   0.941  0.00  0.00     0.157 A 
ATOM      7  S1  <0> d           1.120  -0.451   1.414  0.00  0.00    -0.082 SA
ATOM      8  N3  <0> d           3.061  -2.254   1.823  0.00  0.00    -0.365 N 
ATOM      9  C11 <0> d          -0.017  -0.149  -2.532  0.00  0.00    -0.001 A 
ATOM     10  C12 <0> d           0.339  -0.594  -3.814  0.00  0.00     0.000 A 
ATOM     11  C13 <0> d           1.346  -1.464  -4.273  0.00  0.00     0.014 A 
ATOM     12  C14 <0> d           1.462  -1.720  -5.603  0.00  0.00     0.001 A 
ATOM     13  C15 <0> d           0.601  -1.139  -6.535  0.00  0.00     0.002 A 
ATOM     14  C16 <0> d          -0.391  -0.292  -6.161  0.00  0.00     0.030 A 
ATOM     15  C17 <0> d          -0.571   0.021  -4.791  0.00  0.00     0.039 A 
ATOM     16  N4  <0> d          -1.445   0.802  -4.181  0.00  0.00    -0.385 N 
ATOM     17  C18 <0> d          -1.199   0.772  -2.736  0.00  0.00     0.161 A 
ATOM     18  H5  <0> d           3.026  -2.029   2.766  0.00  0.00     0.162 HD
ATOM     19  H23 <0> d          -2.143   1.312  -4.621  0.00  0.00     0.160 HD
ATOM     20  H24 <0> d           2.868  -2.570  -0.656  0.00  0.00     0.191 HD
ENDROOT
BRANCH   8  21
ATOM     21  C5  <0> d           4.004  -3.268   1.346  0.00  0.00     0.083 C 
ATOM     22  C10 <0> d           4.345  -4.226   2.489  0.00  0.00     0.025 C 
ATOM     23  C9  <0> d           5.330  -5.285   1.991  0.00  0.00     0.002 C 
ATOM     24  C8  <0> d           6.608  -4.601   1.500  0.00  0.00     0.000 C 
ATOM     25  C7  <0> d           6.268  -3.644   0.357  0.00  0.00     0.002 C 
ATOM     26  C6  <0> d           5.282  -2.585   0.855  0.00  0.00     0.025 C 
ENDBRANCH   8  21
TORSDOF 1
