REMARK  6 active torsions:
REMARK  status: ('A' for Active; 'I' for Inactive)
REMARK    1  A    between atoms: C2_2  and  C3_3 
REMARK    2  A    between atoms: C2_2  and  N2_14 
REMARK    3  A    between atoms: C3_3  and  C4_4 
REMARK    4  A    between atoms: C4_4  and  C5_5 
REMARK    5  A    between atoms: C16_20  and  C19_24 
REMARK    6  A    between atoms: C19_24  and  C20_25 
ROOT
ATOM      1  N2  <0> d           0.762  -0.327   1.214  0.00  0.00    -0.065 N 
ATOM      2  C13 <0> d           0.087   0.245   2.371  0.00  0.00     0.238 C 
ATOM      3  C14 <0> d           1.067   0.685   3.454  0.00  0.00     0.080 C 
ATOM      4  C15 <0> d           1.631  -0.452   4.256  0.00  0.00     0.313 C 
ATOM      5  N3  <0> d           2.724  -0.020   5.154  0.00  0.00    -0.227 NA
ATOM      6  N4  <0> d           3.565  -1.213   5.308  0.00  0.00    -0.227 NA
ATOM      7  C16 <0> d           3.322  -2.063   4.122  0.00  0.00     0.315 C 
ATOM      8  N5  <0> d           2.329  -1.357   3.277  0.00  0.00     0.128 N 
ATOM      9  C17 <0> d           1.290  -2.238   2.733  0.00  0.00     0.304 C 
ATOM     10  C18 <0> d           0.887  -1.801   1.344  0.00  0.00     0.265 C 
ATOM     11  H21 <0> d           3.247   0.741   4.747  0.00  0.00     0.143 HD
ATOM     12  H22 <0> d           4.539  -0.962   5.379  0.00  0.00     0.143 HD
ATOM     13  H35 <0> d           1.683   0.079   1.135  0.00  0.00     0.280 HD
ENDROOT
BRANCH   1  14
ATOM     14  C2  <0> d          -0.008  -0.013   0.003  0.00  0.00     0.184 C 
ATOM     15  C1  <0> d          -1.450  -0.493   0.177  0.00  0.00     0.040 C 
BRANCH  14  16
ATOM     16  C3  <0> d           0.002   1.499  -0.232  0.00  0.00     0.037 C 
BRANCH  16  17
ATOM     17  C4  <0> d           1.428   1.957  -0.543  0.00  0.00     0.039 C 
BRANCH  17  18
ATOM     18  C5  <0> d           1.419   3.422  -0.895  0.00  0.00    -0.050 A 
ATOM     19  C12 <0> d           1.147   4.029  -2.254  0.00  0.00     0.155 A 
ATOM     20  N1  <0> d           1.252   5.481  -2.074  0.00  0.00    -0.385 N 
ATOM     21  C11 <0> d           1.548   5.727  -0.821  0.00  0.00     0.038 A 
ATOM     22  H34 <0> d           1.127   6.148  -2.768  0.00  0.00     0.160 HD
ATOM     23  C6  <0> d           1.659   4.461  -0.062  0.00  0.00    -0.006 A 
ATOM     24  C10 <0> d           1.765   6.946  -0.121  0.00  0.00     0.030 A 
ATOM     25  C7  <0> d           1.986   4.534   1.367  0.00  0.00     0.014 A 
ATOM     26  C8  <0> d           2.173   5.747   1.935  0.00  0.00     0.001 A 
ATOM     27  C9  <0> d           2.062   6.933   1.196  0.00  0.00     0.002 A 
ENDBRANCH  17  18
ENDBRANCH  16  17
ENDBRANCH  14  16
ENDBRANCH   1  14
BRANCH   7  28
ATOM     28  C19 <0> d           4.628  -2.276   3.354  0.00  0.00     0.091 C 
BRANCH  28  29
ATOM     29  C20 <0> d           5.578  -3.089   4.193  0.00  0.00    -0.055 A 
ATOM     30  C25 <0> d           5.572  -4.469   4.105  0.00  0.00     0.007 A 
ATOM     31  C24 <0> d           6.447  -5.215   4.872  0.00  0.00     0.001 A 
ATOM     32  C23 <0> d           7.322  -4.582   5.734  0.00  0.00     0.000 A 
ATOM     33  C22 <0> d           7.325  -3.203   5.827  0.00  0.00     0.001 A 
ATOM     34  C21 <0> d           6.453  -2.456   5.056  0.00  0.00     0.007 A 
ENDBRANCH  28  29
ENDBRANCH   7  28
TORSDOF 6
