REMARK  6 active torsions:
REMARK  status: ('A' for Active; 'I' for Inactive)
REMARK    1  A    between atoms: C4_4  and  N1_10 
REMARK       I    between atoms: N1_10  and  C9_11 
REMARK    2  A    between atoms: C9_11  and  C10_13 
REMARK    3  A    between atoms: C10_13  and  S1_14 
REMARK    4  A    between atoms: S1_14  and  C11_15 
REMARK    5  A    between atoms: C11_15  and  C12_16 
REMARK    6  A    between atoms: C12_16  and  O2_17 
ROOT
ATOM      1  N1  <0> d          -1.156  -0.694   0.009  0.00  0.00    -0.325 N 
ATOM      2  C9  <0> d          -0.147  -0.009   0.584  0.00  0.00     0.231 C 
ATOM      3  O1  <0> d           0.772  -0.606   1.103  0.00  0.00    -0.272 OA
ATOM      4  H9  <0> d          -1.929  -0.220  -0.334  0.00  0.00     0.169 HD
ENDROOT
BRANCH   1   5
ATOM      5  C4  <0> d          -1.087  -2.088  -0.091  0.00  0.00     0.052 A 
ATOM      6  C3  <0> d           0.146  -2.725  -0.099  0.00  0.00     0.038 A 
ATOM      7  C2  <0> d           0.211  -4.101  -0.199  0.00  0.00    -0.054 A 
ATOM      8  C1  <0> d           1.550  -4.793  -0.207  0.00  0.00     0.049 C 
ATOM      9  C7  <0> d          -0.951  -4.845  -0.291  0.00  0.00    -0.055 A 
ATOM     10  C6  <0> d          -2.181  -4.214  -0.284  0.00  0.00     0.028 A 
ATOM     11  C8  <0> d          -0.876  -6.346  -0.401  0.00  0.00     0.049 C 
ATOM     12  C5  <0> d          -2.253  -2.838  -0.178  0.00  0.00     0.038 A 
ATOM     13 Br1  <0> d          -3.937  -1.977  -0.161  0.00  0.00    -0.049 Br
ENDBRANCH   1   5
BRANCH   2  14
ATOM     14  C10 <0> d          -0.162   1.498   0.582  0.00  0.00     0.177 C 
BRANCH  14  15
ATOM     15  S1  <0> d           1.320   2.119   1.424  0.00  0.00    -0.158 SA
BRANCH  15  16
ATOM     16  C11 <0> d           1.151   3.922   1.336  0.00  0.00     0.100 C 
BRANCH  16  17
ATOM     17  C12 <0> d           2.352   4.581   2.020  0.00  0.00     0.174 C 
BRANCH  17  18
ATOM     18  O2  <0> d           2.219   6.002   1.950  0.00  0.00    -0.400 OA
ATOM     19  H16 <0> d           2.947   6.485   2.365  0.00  0.00     0.209 HD
ENDBRANCH  17  18
ENDBRANCH  16  17
ENDBRANCH  15  16
ENDBRANCH  14  15
ENDBRANCH   2  14
TORSDOF 6
