REMARK  3 active torsions:
REMARK  status: ('A' for Active; 'I' for Inactive)
REMARK    1  A    between atoms: C8_9  and  N2_11 
REMARK    2  A    between atoms: N2_11  and  S1_12 
REMARK    3  A    between atoms: S1_12  and  C10_15 
ROOT
ATOM      1  N2  <0> d           1.200  -2.088  -0.022  0.00  0.00    -0.162 NA
ENDROOT
BRANCH   1   2
ATOM      2  C8  <0> d           1.195  -0.694  -0.013  0.00  0.00     0.099 A 
ATOM      3  C7  <0> d           2.412   0.022  -0.021  0.00  0.00     0.096 A 
ATOM      4  C3  <0> d           2.377   1.438  -0.013  0.00  0.00    -0.005 A 
ATOM      5  N1  <0> d           3.586  -0.615  -0.035  0.00  0.00    -0.258 NA
ATOM      6  C2  <0> d           1.141   2.104   0.003  0.00  0.00     0.014 A 
ATOM      7  C4  <0> d           3.592   2.150  -0.020  0.00  0.00     0.015 A 
ATOM      8  C1  <0> d          -0.017   1.387   0.010  0.00  0.00     0.003 A 
ATOM      9  C9  <0> d           0.002  -0.004   0.002  0.00  0.00     0.035 A 
ATOM     10  C5  <0> d           4.757   1.437  -0.035  0.00  0.00     0.020 A 
ATOM     11  C6  <0> d           4.719   0.044  -0.042  0.00  0.00     0.117 A 
ENDBRANCH   1   2
BRANCH   1  12
ATOM     12  S1  <0> d          -0.231  -2.921  -0.013  0.00  0.00     0.257 S 
ATOM     13  O1  <0> d          -0.836  -2.590   1.229  0.00  0.00    -0.203 OA
ATOM     14  O2  <0> d          -0.860  -2.575  -1.240  0.00  0.00    -0.203 OA
BRANCH  12  15
ATOM     15  C10 <0> d           0.248  -4.671  -0.028  0.00  0.00     0.157 C 
ATOM     16  C14 <0> d          -1.008  -5.545  -0.019  0.00  0.00     0.254 C 
ATOM     17  N3  <0> d          -0.624  -6.961  -0.028  0.00  0.00    -0.074 N 
ATOM     18  C13 <0> d           0.122  -7.283   1.195  0.00  0.00     0.232 C 
ATOM     19  H14 <0> d          -0.044  -7.146  -0.833  0.00  0.00     0.277 HD
ATOM     20  H17 <0> d          -1.453  -7.534  -0.075  0.00  0.00     0.277 HD
ATOM     21  C12 <0> d           1.422  -6.476   1.231  0.00  0.00     0.029 C 
ATOM     22  C11 <0> d           1.089  -4.982   1.213  0.00  0.00     0.025 C 
ENDBRANCH  12  15
ENDBRANCH   1  12
TORSDOF 3
