REMARK  7 active torsions:
REMARK  status: ('A' for Active; 'I' for Inactive)
REMARK    1  A    between atoms: C2_2  and  C3_3 
REMARK    2  A    between atoms: C2_2  and  N2_14 
REMARK    3  A    between atoms: C7_7  and  S1_9 
REMARK    4  A    between atoms: S1_9  and  N1_12 
REMARK       I    between atoms: N2_14  and  C10_15 
REMARK    5  A    between atoms: C10_15  and  C11_17 
REMARK    6  A    between atoms: C15_21  and  C16_23 
REMARK    7  A    between atoms: C16_23  and  O5_25 
ROOT
ATOM      1  C1  <0> d          -0.019   1.526   0.010  0.00  0.00     0.037 C 
ATOM      2  C2  <0> d           0.002  -0.004   0.002  0.00  0.00     0.114 C 
ENDROOT
BRANCH   2   3
ATOM      3  C3  <0> d           0.731  -0.503   1.223  0.00  0.00    -0.034 A 
ATOM      4  C8  <0> d           2.048  -0.911   1.123  0.00  0.00     0.034 A 
ATOM      5  C7  <0> d           2.718  -1.365   2.244  0.00  0.00     0.080 A 
ATOM      6  C6  <0> d           2.068  -1.420   3.463  0.00  0.00     0.025 A 
ATOM      7  C5  <0> d           0.749  -1.016   3.562  0.00  0.00     0.002 A 
ATOM      8  C4  <0> d           0.081  -0.558   2.442  0.00  0.00     0.009 A 
BRANCH   5   9
ATOM      9  S1  <0> d           4.399  -1.879   2.118  0.00  0.00     0.258 S 
ATOM     10  O1  <0> d           4.941  -1.217   0.984  0.00  0.00    -0.201 OA
ATOM     11  O2  <0> d           4.961  -1.749   3.417  0.00  0.00    -0.201 OA
BRANCH   9  12
ATOM     12  N1  <0> d           4.391  -3.496   1.764  0.00  0.00    -0.320 N 
ATOM     13  C9  <0> d           3.843  -3.965   0.489  0.00  0.00     0.159 C 
ATOM     14  H9  <0> d           4.750  -4.134   2.401  0.00  0.00     0.171 HD
ENDBRANCH   9  12
ENDBRANCH   5   9
ENDBRANCH   2   3
BRANCH   2  15
ATOM     15  N2  <0> d          -1.372  -0.511   0.012  0.00  0.00    -0.347 N 
ATOM     16  C10 <0> d          -2.051  -0.643  -1.145  0.00  0.00     0.270 C 
ATOM     17  O3  <0> d          -1.523  -0.341  -2.196  0.00  0.00    -0.266 OA
ATOM     18  H13 <0> d          -1.794  -0.752   0.852  0.00  0.00     0.163 HD
BRANCH  16  19
ATOM     19  C11 <0> d          -3.442  -1.156  -1.134  0.00  0.00     0.125 A 
ATOM     20  N3  <0> d          -4.010  -1.483   0.015  0.00  0.00    -0.237 NA
ATOM     21  C15 <0> d          -5.252  -1.939   0.069  0.00  0.00     0.132 A 
ATOM     22  C14 <0> d          -6.002  -2.102  -1.097  0.00  0.00     0.038 A 
ATOM     23  C13 <0> d          -5.435  -1.775  -2.318  0.00  0.00     0.005 A 
ATOM     24  C12 <0> d          -4.136  -1.295  -2.338  0.00  0.00     0.037 A 
BRANCH  21  25
ATOM     25  C16 <0> d          -5.849  -2.286   1.380  0.00  0.00     0.311 C 
ATOM     26  O4  <0> d          -6.985  -2.710   1.436  0.00  0.00    -0.258 OA
BRANCH  25  27
ATOM     27  O5  <0> d          -5.131  -2.132   2.509  0.00  0.00    -0.321 OA
ATOM     28  C17 <0> d          -5.770  -2.486   3.737  0.00  0.00     0.213 C 
ENDBRANCH  25  27
ENDBRANCH  21  25
ENDBRANCH  16  19
ENDBRANCH   2  15
TORSDOF 7
