REMARK  7 active torsions:
REMARK  status: ('A' for Active; 'I' for Inactive)
REMARK    1  A    between atoms: C4_4  and  C7_7 
REMARK    2  A    between atoms: C7_7  and  C8_8 
REMARK    3  A    between atoms: C7_7  and  N6_25 
REMARK    4  A    between atoms: C8_8  and  N1_9 
REMARK       I    between atoms: N1_9  and  C9_10 
REMARK       I    between atoms: C9_10  and  N2_12 
REMARK    5  A    between atoms: N2_12  and  C10_13 
REMARK    6  A    between atoms: C10_13  and  C11_14 
REMARK    7  A    between atoms: C12_18  and  C13_20 
ROOT
ATOM      1  N1  <0> d           4.234   0.089  -2.300  0.00  0.00    -0.341 N 
ATOM      2  C9  <0> d           4.509  -0.025  -3.614  0.00  0.00     0.316 C 
ATOM      3  O1  <0> d           4.697  -1.123  -4.102  0.00  0.00    -0.247 OA
ATOM      4  N2  <0> d           4.577   1.077  -4.387  0.00  0.00    -0.336 N 
ATOM      5  H10 <0> d           4.084   0.965  -1.910  0.00  0.00     0.164 HD
ATOM      6  H11 <0> d           4.428   1.952  -3.997  0.00  0.00     0.164 HD
ENDROOT
BRANCH   1   7
ATOM      7  C8  <0> d           4.160  -1.109  -1.459  0.00  0.00     0.162 C 
BRANCH   7   8
ATOM      8  C7  <0> d           3.704  -0.717  -0.052  0.00  0.00     0.238 C 
BRANCH   8   9
ATOM      9  C4  <0> d           2.292  -0.193  -0.109  0.00  0.00    -0.026 A 
ATOM     10  C3  <0> d           2.060   1.169  -0.099  0.00  0.00     0.009 A 
ATOM     11  C2  <0> d           0.765   1.650  -0.152  0.00  0.00     0.001 A 
ATOM     12  C1  <0> d          -0.298   0.768  -0.215  0.00  0.00     0.000 A 
ATOM     13  C6  <0> d          -0.065  -0.594  -0.225  0.00  0.00     0.001 A 
ATOM     14  C5  <0> d           1.230  -1.075  -0.171  0.00  0.00     0.009 A 
ENDBRANCH   8   9
BRANCH   8  15
ATOM     15  N6  <0> d           3.754  -1.895   0.824  0.00  0.00    -0.061 N 
ATOM     16  C20 <0> d           3.326  -1.532   2.192  0.00  0.00     0.236 C 
ATOM     17  C19 <0> d           4.177  -2.365   3.168  0.00  0.00     0.029 C 
ATOM     18  C18 <0> d           5.127  -3.191   2.272  0.00  0.00     0.029 C 
ATOM     19  C17 <0> d           5.153  -2.378   0.953  0.00  0.00     0.236 C 
ATOM     20  H25 <0> d           3.164  -2.627   0.458  0.00  0.00     0.280 HD
ENDBRANCH   8  15
ENDBRANCH   7   8
ENDBRANCH   1   7
BRANCH   4  21
ATOM     21  C10 <0> d           4.877   0.952  -5.815  0.00  0.00     0.206 C 
BRANCH  21  22
ATOM     22  C11 <0> d           4.895   2.321  -6.446  0.00  0.00     0.166 A 
ATOM     23  N5  <0> d           5.964   3.104  -6.553  0.00  0.00    -0.210 NA
ATOM     24  C12 <0> d           5.634   4.230  -7.158  0.00  0.00     0.163 A 
ATOM     25  N4  <0> d           4.305   4.170  -7.442  0.00  0.00    -0.258 N 
ATOM     26  N3  <0> d           3.860   2.925  -6.969  0.00  0.00    -0.156 NA
ATOM     27  H2  <0> d           3.771   4.851  -7.882  0.00  0.00     0.191 HD
BRANCH  24  28
ATOM     28  C13 <0> d           6.539   5.350  -7.465  0.00  0.00     0.052 A 
ATOM     29  S1  <0> d           6.176   6.902  -8.270  0.00  0.00    -0.098 SA
ATOM     30  C16 <0> d           7.815   7.607  -8.210  0.00  0.00     0.050 A 
ATOM     31  C15 <0> d           8.525   6.624  -7.595  0.00  0.00     0.009 A 
ATOM     32  C14 <0> d           7.882   5.470  -7.213  0.00  0.00     0.023 A 
ENDBRANCH  24  28
ENDBRANCH  21  22
ENDBRANCH   4  21
TORSDOF 7
