REMARK  5 active torsions:
REMARK  status: ('A' for Active; 'I' for Inactive)
REMARK    1  A    between atoms: C2_2  and  C3_3 
REMARK    2  A    between atoms: C2_2  and  N1_10 
REMARK    3  A    between atoms: N1_10  and  C10_12 
REMARK    4  A    between atoms: C15_17  and  C16_18 
REMARK    5  A    between atoms: C16_18  and  N2_19 
ROOT
ATOM      1  C10 <0> d          -1.571  -0.978  -1.383  0.00  0.00     0.046 A 
ATOM      2  C11 <0> d          -1.545  -2.367  -1.399  0.00  0.00     0.030 A 
ATOM      3  C12 <0> d          -1.832  -3.051  -2.563  0.00  0.00     0.004 A 
ATOM      4  C13 <0> d          -2.146  -2.362  -3.723  0.00  0.00     0.025 A 
ATOM      5  C14 <0> d          -2.176  -0.983  -3.727  0.00  0.00     0.050 A 
ATOM      6  C15 <0> d          -1.895  -0.276  -2.554  0.00  0.00     0.055 A 
ATOM      7 Cl2  <0> d          -2.570  -0.126  -5.185  0.00  0.00    -0.083 Cl
ENDROOT
BRANCH   1   8
ATOM      8  N1  <0> d          -1.282  -0.288  -0.213  0.00  0.00    -0.376 N 
ATOM      9  C9  <0> d          -2.351   0.011   0.743  0.00  0.00     0.150 C 
BRANCH   8  10
ATOM     10  C2  <0> d           0.091   0.141   0.066  0.00  0.00     0.114 C 
ATOM     11  C1  <0> d           0.103   1.039   1.304  0.00  0.00     0.037 C 
BRANCH  10  12
ATOM     12  C3  <0> d           0.954  -1.069   0.315  0.00  0.00    -0.014 A 
ATOM     13  C8  <0> d           2.297  -1.041  -0.016  0.00  0.00     0.042 A 
ATOM     14  C7  <0> d           3.090  -2.150   0.218  0.00  0.00     0.024 A 
ATOM     15 Cl1  <0> d           2.989   0.389  -0.716  0.00  0.00    -0.084 Cl
ATOM     16  C6  <0> d           2.538  -3.290   0.771  0.00  0.00     0.002 A 
ATOM     17  C5  <0> d           1.194  -3.320   1.096  0.00  0.00     0.001 A 
ATOM     18  C4  <0> d           0.402  -2.210   0.867  0.00  0.00     0.011 A 
ENDBRANCH  10  12
ENDBRANCH   8  10
ENDBRANCH   1   8
BRANCH   6  19
ATOM     19  C16 <0> d          -1.931   1.199  -2.549  0.00  0.00     0.106 C 
ATOM     20  N3  <0> d          -0.809   1.893  -2.356  0.00  0.00    -0.385 N 
ATOM     21  H16 <0> d           0.046   1.436  -2.337  0.00  0.00     0.157 HD
ATOM     22  H17 <0> d          -0.848   2.854  -2.235  0.00  0.00     0.157 HD
BRANCH  19  23
ATOM     23  N2  <0> d          -3.086   1.838  -2.738  0.00  0.00    -0.385 N 
ATOM     24  H15 <0> d          -3.902   1.333  -2.878  0.00  0.00     0.157 HD
ATOM     25  H18 <0> d          -3.110   2.808  -2.734  0.00  0.00     0.157 HD
ENDBRANCH  19  23
ENDBRANCH   6  19
TORSDOF 5
