REMARK  3 active torsions:
REMARK  status: ('A' for Active; 'I' for Inactive)
REMARK    1  A    between atoms: C2_2  and  C3_3 
REMARK    2  A    between atoms: C2_2  and  N1_5 
REMARK    3  A    between atoms: C3_3  and  O1_4 
ROOT
ATOM      1  N1  <0> d           0.711  -0.489   1.189  0.00  0.00    -0.281 N 
ATOM      2  C4  <0> d           1.987  -0.179   1.447  0.00  0.00     0.228 A 
ATOM      3  O2  <0> d           2.693   0.519   0.754  0.00  0.00    -0.273 OA
ATOM      4  C5  <0> d           2.407  -0.839   2.741  0.00  0.00     0.122 A 
ATOM      5  C6  <0> d           1.137  -1.593   3.197  0.00  0.00     0.050 A 
ATOM      6  C7  <0> d           0.133  -1.274   2.106  0.00  0.00     0.236 A 
ATOM      7  O3  <0> d          -1.012  -1.670   2.068  0.00  0.00    -0.272 OA
ATOM      8  C8  <0> d           0.641  -0.931   4.503  0.00  0.00     0.020 C 
ATOM      9  C9  <0> d          -0.826  -1.214   4.663  0.00  0.00     0.001 C 
ATOM     10  C10 <0> d          -1.100  -2.459   5.529  0.00  0.00     0.000 C 
ATOM     11  C11 <0> d          -0.146  -3.627   5.215  0.00  0.00     0.000 C 
ATOM     12  C12 <0> d           0.088  -3.792   3.737  0.00  0.00     0.001 C 
ATOM     13  C13 <0> d           1.368  -3.023   3.357  0.00  0.00     0.020 C 
ENDROOT
BRANCH   1  14
ATOM     14  C2  <0> d           0.002  -0.004   0.002  0.00  0.00     0.115 C 
ATOM     15  C1  <0> d          -0.019   1.526   0.010  0.00  0.00     0.035 C 
BRANCH  14  16
ATOM     16  C3  <0> d           0.718  -0.497  -1.257  0.00  0.00     0.189 C 
BRANCH  16  17
ATOM     17  O1  <0> d           2.019   0.090  -1.326  0.00  0.00    -0.399 OA
ATOM     18  H7  <0> d           2.531  -0.178  -2.101  0.00  0.00     0.209 HD
ENDBRANCH  16  17
ENDBRANCH  14  16
ENDBRANCH   1  14
TORSDOF 3
