REMARK  10 active torsions:
REMARK  status: ('A' for Active; 'I' for Inactive)
REMARK    1  A    between atoms: C2_2  and  O1_3 
REMARK    2  A    between atoms: O1_3  and  C3_4 
REMARK    3  A    between atoms: C3_4  and  C4_6 
REMARK    4  A    between atoms: C7_10  and  N1_11 
REMARK       I    between atoms: N1_11  and  C8_12 
REMARK    5  A    between atoms: C8_12  and  C9_14 
REMARK    6  A    between atoms: C9_14  and  N2_25 
REMARK    7  A    between atoms: C10_15  and  C11_16 
REMARK    8  A    between atoms: C10_15  and  N2_25 
REMARK    9  A    between atoms: C11_16  and  C12_17 
REMARK   10  A    between atoms: C12_17  and  N3_28 
ROOT
ATOM      1  N1  <0> d          -1.191   1.867   0.018  0.00  0.00    -0.319 N 
ATOM      2  C8  <0> d          -0.014   1.209   0.009  0.00  0.00     0.248 C 
ATOM      3  O3  <0> d           0.002  -0.004   0.002  0.00  0.00    -0.271 OA
ATOM      4  H6  <0> d          -1.204   2.836   0.023  0.00  0.00     0.169 HD
ENDROOT
BRANCH   1   5
ATOM      5  C7  <0> d          -2.381   1.157   0.020  0.00  0.00     0.094 A 
ATOM      6  C4  <0> d          -3.680   1.650   0.034  0.00  0.00     0.080 A 
ATOM      7  C5  <0> d          -4.765   0.683   0.029  0.00  0.00    -0.026 A 
ATOM      8  C18 <0> d          -6.240   1.065   0.037  0.00  0.00     0.041 C 
ATOM      9  C6  <0> d          -4.381  -0.611   0.021  0.00  0.00    -0.008 A 
ATOM     10  C17 <0> d          -7.063  -0.140  -0.422  0.00  0.00     0.005 C 
ATOM     11  C16 <0> d          -6.689  -1.372   0.407  0.00  0.00     0.005 C 
ATOM     12  C15 <0> d          -5.271  -1.817   0.019  0.00  0.00     0.047 C 
ATOM     13  S1  <0> d          -2.612  -0.560   0.012  0.00  0.00    -0.075 SA
BRANCH   6  14
ATOM     14  C3  <0> d          -3.945   3.090   0.050  0.00  0.00     0.296 C 
ATOM     15  O2  <0> d          -4.064   3.699  -0.997  0.00  0.00    -0.259 OA
BRANCH  14  16
ATOM     16  O1  <0> d          -4.058   3.742   1.225  0.00  0.00    -0.318 OA
BRANCH  16  17
ATOM     17  C2  <0> d          -4.322   5.169   1.165  0.00  0.00     0.174 C 
ATOM     18  C1  <0> d          -4.416   5.731   2.585  0.00  0.00     0.034 C 
ENDBRANCH  16  17
ENDBRANCH  14  16
ENDBRANCH   6  14
ENDBRANCH   1   5
BRANCH   2  19
ATOM     19  C9  <0> d           1.280   1.980   0.001  0.00  0.00     0.334 C 
BRANCH  19  20
ATOM     20  N2  <0> d           2.409   1.030  -0.015  0.00  0.00    -0.067 N 
ATOM     21  H29 <0> d           2.346   0.444  -0.857  0.00  0.00     0.277 HD
ATOM     22  H30 <0> d           2.362   0.435   0.820  0.00  0.00     0.277 HD
BRANCH  20  23
ATOM     23  C10 <0> d           3.691   1.758  -0.024  0.00  0.00     0.234 C 
BRANCH  23  24
ATOM     24  C11 <0> d           4.841   0.749  -0.040  0.00  0.00     0.055 C 
BRANCH  24  25
ATOM     25  C12 <0> d           6.176   1.497  -0.049  0.00  0.00     0.235 C 
BRANCH  25  26
ATOM     26  N3  <0> d           7.276   0.509  -0.043  0.00  0.00    -0.079 N 
ATOM     27  C13 <0> d           7.296  -0.232  -1.322  0.00  0.00     0.269 C 
ATOM     28  C14 <0> d           8.569   1.194   0.165  0.00  0.00     0.269 C 
ATOM     29  H31 <0> d           7.123  -0.156   0.725  0.00  0.00     0.278 HD
ENDBRANCH  25  26
ENDBRANCH  24  25
ENDBRANCH  23  24
ENDBRANCH  20  23
ENDBRANCH  19  20
ENDBRANCH   2  19
TORSDOF 10
