REMARK  4 active torsions:
REMARK  status: ('A' for Active; 'I' for Inactive)
REMARK    1  A    between atoms: C2_2  and  S1_8 
REMARK    2  A    between atoms: C4_5  and  N3_7 
REMARK    3  A    between atoms: S1_8  and  N4_11 
REMARK    4  A    between atoms: C7_14  and  N5_16 
ROOT
ATOM      1  N4  <0> d           1.229   4.255   1.595  0.00  0.00    -0.305 N 
ATOM      2  C5  <0> d           0.042   4.514   2.430  0.00  0.00     0.137 C 
ATOM      3  C6  <0> d           0.530   4.314   3.886  0.00  0.00     0.055 C 
ATOM      4  C7  <0> d           1.967   4.897   3.816  0.00  0.00     0.208 C 
ATOM      5  C8  <0> d           2.434   4.488   2.403  0.00  0.00     0.168 C 
ENDROOT
BRANCH   1   6
ATOM      6  S1  <0> d           1.208   3.773   0.010  0.00  0.00     0.263 S 
ATOM      7  O1  <0> d           2.453   4.166  -0.550  0.00  0.00    -0.200 OA
ATOM      8  O2  <0> d          -0.037   4.198  -0.527  0.00  0.00    -0.200 OA
BRANCH   6   9
ATOM      9  C2  <0> d           1.185   2.011   0.002  0.00  0.00     0.115 A 
ATOM     10  C1  <0> d          -0.016   1.319   0.009  0.00  0.00     0.163 A 
ATOM     11  N2  <0> d           0.002  -0.004   0.002  0.00  0.00    -0.074 NA
ATOM     12  C4  <0> d           1.150  -0.666  -0.013  0.00  0.00     0.719 A 
ATOM     13  N1  <0> d           2.314  -0.034  -0.020  0.00  0.00    -0.074 NA
ATOM     14  C3  <0> d           2.367   1.288  -0.014  0.00  0.00     0.163 A 
BRANCH  12  15
ATOM     15  N3  <0> d           1.132  -2.050  -0.020  0.00  0.00    -0.231 N 
ATOM     16  H4  <0> d           1.966  -2.546  -0.031  0.00  0.00     0.174 HD
ATOM     17  H5  <0> d           0.286  -2.524  -0.015  0.00  0.00     0.174 HD
ENDBRANCH  12  15
ENDBRANCH   6   9
ENDBRANCH   1   6
BRANCH   4  18
ATOM     18  N5  <0> d           2.824   4.291   4.843  0.00  0.00    -0.065 N 
ATOM     19  C13 <0> d           4.182   4.836   4.729  0.00  0.00     0.235 C 
ATOM     20  C12 <0> d           5.099   4.149   5.743  0.00  0.00     0.028 C 
ATOM     21  C11 <0> d           4.565   4.399   7.156  0.00  0.00     0.003 C 
ATOM     22  C10 <0> d           3.122   3.893   7.243  0.00  0.00     0.028 C 
ATOM     23  C9  <0> d           2.278   4.589   6.172  0.00  0.00     0.235 C 
ATOM     24  H22 <0> d           2.852   3.291   4.710  0.00  0.00     0.280 HD
ENDBRANCH   4  18
TORSDOF 4
