REMARK  3 active torsions:
REMARK  status: ('A' for Active; 'I' for Inactive)
REMARK    1  A    between atoms: C5_5  and  N1_8 
REMARK    2  A    between atoms: C20_25  and  C21_26 
REMARK    3  A    between atoms: C21_26  and  O4_28 
ROOT
ATOM      1  N1  <0> d           1.503   2.491  -1.064  0.00  0.00    -0.252 N 
ATOM      2  C8  <0> d           0.506   2.373  -1.948  0.00  0.00     0.238 A 
ATOM      3  O1  <0> d           0.497   2.848  -3.062  0.00  0.00    -0.272 OA
ATOM      4  C9  <0> d          -0.609   1.553  -1.339  0.00  0.00     0.128 A 
ATOM      5  C10 <0> d          -0.076   1.221   0.083  0.00  0.00     0.144 A 
ATOM      6  C11 <0> d           1.284   1.882   0.107  0.00  0.00     0.239 A 
ATOM      7  O2  <0> d           2.055   1.864   1.042  0.00  0.00    -0.272 OA
ATOM      8  C12 <0> d          -1.021   1.950   1.045  0.00  0.00     0.248 A 
ATOM      9  C13 <0> d          -0.290   2.469   2.250  0.00  0.00     0.015 A 
ATOM     10  C14 <0> d           0.760   3.344   2.419  0.00  0.00     0.012 A 
ATOM     11  C15 <0> d           1.225   3.631   3.690  0.00  0.00     0.001 A 
ATOM     12  C16 <0> d           0.633   3.039   4.790  0.00  0.00     0.002 A 
ATOM     13  C17 <0> d          -0.419   2.162   4.626  0.00  0.00     0.030 A 
ATOM     14  C18 <0> d          -0.894   1.867   3.350  0.00  0.00     0.044 A 
ATOM     15  N2  <0> d          -1.929   1.027   2.933  0.00  0.00    -0.324 N 
ATOM     16  C19 <0> d          -2.069   1.020   1.594  0.00  0.00     0.264 A 
ATOM     17  O3  <0> d          -2.883   0.388   0.954  0.00  0.00    -0.270 OA
ATOM     18  C20 <0> d          -1.837   2.457  -1.101  0.00  0.00     0.229 C 
ATOM     19  H16 <0> d          -2.483   0.509   3.538  0.00  0.00     0.169 HD
ATOM     20  N3  <0> d          -1.608   3.023   0.231  0.00  0.00    -0.044 N 
ATOM     21  H21 <0> d          -0.961   3.818   0.173  0.00  0.00     0.279 HD
ATOM     22  H22 <0> d          -2.497   3.334   0.642  0.00  0.00     0.279 HD
ENDROOT
BRANCH  18  23
ATOM     23  C21 <0> d          -1.907   3.551  -2.169  0.00  0.00     0.145 C 
ATOM     24  C22 <0> d          -3.130   4.435  -1.914  0.00  0.00     0.041 C 
BRANCH  23  25
ATOM     25  O4  <0> d          -2.015   2.949  -3.461  0.00  0.00    -0.394 OA
ATOM     26  H20 <0> d          -2.798   2.392  -3.571  0.00  0.00     0.210 HD
ENDBRANCH  23  25
ENDBRANCH  18  23
BRANCH   1  27
ATOM     27  C5  <0> d           2.683   3.197  -1.342  0.00  0.00     0.045 A 
ATOM     28  C4  <0> d           3.889   2.520  -1.452  0.00  0.00     0.031 A 
ATOM     29  C3  <0> d           5.049   3.218  -1.726  0.00  0.00     0.009 A 
ATOM     30  C2  <0> d           5.009   4.590  -1.890  0.00  0.00    -0.062 A 
ATOM     31  C1  <0> d           6.277   5.349  -2.190  0.00  0.00     0.048 C 
ATOM     32  C7  <0> d           3.809   5.268  -1.781  0.00  0.00     0.009 A 
ATOM     33  C6  <0> d           2.645   4.574  -1.513  0.00  0.00     0.031 A 
ENDBRANCH   1  27
TORSDOF 3
