REMARK  3 active torsions:
REMARK  status: ('A' for Active; 'I' for Inactive)
REMARK    1  A    between atoms: N1_5  and  C5_9 
REMARK    2  A    between atoms: C9_13  and  S2_15 
REMARK    3  A    between atoms: S2_15  and  N3_18 
ROOT
ATOM      1  C5  <0> d          -0.050   3.842   0.023  0.00  0.00     0.046 A 
ATOM      2  C6  <0> d           1.159   3.163  -0.045  0.00  0.00     0.030 A 
ATOM      3  C7  <0> d           1.175   1.782  -0.052  0.00  0.00     0.004 A 
ATOM      4  C8  <0> d          -0.013   1.076   0.008  0.00  0.00     0.025 A 
ATOM      5  C9  <0> d          -1.218   1.749   0.070  0.00  0.00     0.081 A 
ATOM      6  C10 <0> d          -1.240   3.130   0.083  0.00  0.00     0.055 A 
ENDROOT
BRANCH   1   7
ATOM      7  N1  <0> d          -0.069   5.244   0.031  0.00  0.00    -0.257 N 
ATOM      8  C3  <0> d          -0.560   6.000  -0.971  0.00  0.00     0.253 A 
ATOM      9  C2  <0> d          -0.373   7.438  -0.528  0.00  0.00     0.173 A 
ATOM     10  O1  <0> d          -1.049   5.612  -2.010  0.00  0.00    -0.270 OA
ATOM     11  C1  <0> d           0.544   8.185  -1.499  0.00  0.00     0.042 C 
ATOM     12  N2  <0> d           0.261   7.313   0.796  0.00  0.00    -0.354 N 
ATOM     13  C4  <0> d           0.392   5.996   1.037  0.00  0.00     0.182 A 
ATOM     14  H5  <0> d           0.528   8.039   1.381  0.00  0.00     0.162 HD
ATOM     15  S1  <0> d           1.078   5.354   2.468  0.00  0.00    -0.040 SA
ENDBRANCH   1   7
BRANCH   5  16
ATOM     16  S2  <0> d          -2.729   0.844   0.140  0.00  0.00     0.260 S 
ATOM     17  O2  <0> d          -3.742   1.707  -0.358  0.00  0.00    -0.200 OA
ATOM     18  O3  <0> d          -2.466  -0.430  -0.431  0.00  0.00    -0.200 OA
BRANCH  16  19
ATOM     19  N3  <0> d          -3.071   0.585   1.739  0.00  0.00    -0.315 N 
ATOM     20  C11 <0> d          -3.873   1.560   2.483  0.00  0.00     0.162 C 
ATOM     21  C12 <0> d          -2.573  -0.618   2.409  0.00  0.00     0.162 C 
ENDBRANCH  16  19
ENDBRANCH   5  16
TORSDOF 3
