REMARK  2 active torsions:
REMARK  status: ('A' for Active; 'I' for Inactive)
REMARK    1  A    between atoms: C9_10  and  O2_19 
REMARK    2  A    between atoms: C10_11  and  N1_12 
ROOT
ATOM      1  C1  <0> d           0.399   1.780   0.623  0.00  0.00     0.051 C 
ATOM      2  C2  <0> d           0.409   0.287   0.422  0.00  0.00    -0.028 A 
ATOM      3  C3  <0> d           0.594  -0.236  -0.842  0.00  0.00     0.009 A 
ATOM      4  C4  <0> d           0.602  -1.605  -1.028  0.00  0.00     0.001 A 
ATOM      5  C5  <0> d           0.423  -2.450   0.050  0.00  0.00     0.012 A 
ATOM      6  C6  <0> d           0.236  -1.931   1.320  0.00  0.00     0.009 A 
ATOM      7  C7  <0> d           0.237  -0.560   1.511  0.00  0.00     0.083 A 
ATOM      8  O1  <0> d           0.074  -0.009   2.742  0.00  0.00    -0.347 OA
ATOM      9  C8  <0> d          -0.461  -0.834   3.778  0.00  0.00     0.209 C 
ATOM     10  C9  <0> d           0.316  -2.157   3.794  0.00  0.00     0.178 C 
ATOM     11  C10 <0> d           0.040  -2.885   2.471  0.00  0.00     0.254 C 
ENDROOT
BRANCH  11  12
ATOM     12  N1  <0> d           0.977  -4.008   2.342  0.00  0.00    -0.060 N 
ATOM     13  C15 <0> d           2.325  -3.491   2.077  0.00  0.00     0.240 C 
ATOM     14  C14 <0> d           3.290  -4.658   1.861  0.00  0.00     0.007 C 
ATOM     15  C13 <0> d           3.315  -5.533   3.118  0.00  0.00     0.007 C 
ATOM     16  C16 <0> d           4.695  -4.117   1.588  0.00  0.00     0.011 C 
ATOM     17  C12 <0> d           1.892  -6.006   3.426  0.00  0.00     0.028 C 
ATOM     18  C11 <0> d           0.978  -4.789   3.585  0.00  0.00     0.236 C 
ATOM     19  H24 <0> d           0.689  -4.599   1.576  0.00  0.00     0.280 HD
ENDBRANCH  11  12
BRANCH  10  20
ATOM     20  O2  <0> d           1.714  -1.893   3.929  0.00  0.00    -0.391 OA
ATOM     21  H23 <0> d           1.948  -1.417   4.737  0.00  0.00     0.210 HD
ENDBRANCH  10  20
TORSDOF 2
