REMARK  6 active torsions:
REMARK  status: ('A' for Active; 'I' for Inactive)
REMARK    1  A    between atoms: C2_2  and  C3_3 
REMARK    2  A    between atoms: C2_2  and  N2_9 
REMARK    3  A    between atoms: N2_9  and  C8_10 
REMARK    4  A    between atoms: N3_12  and  C9_13 
REMARK    5  A    between atoms: C12_16  and  S2_19 
REMARK    6  A    between atoms: S2_19  and  C15_20 
ROOT
ATOM      1  C8  <0> d           2.311   4.178   0.104  0.00  0.00     0.172 C 
ATOM      2  S1  <0> d           3.808   3.348   0.086  0.00  0.00    -0.041 SA
ATOM      3  N3  <0> d           1.157   3.488   0.010  0.00  0.00    -0.333 N 
ATOM      4  H10 <0> d           0.312   3.962  -0.042  0.00  0.00     0.168 HD
ENDROOT
BRANCH   1   5
ATOM      5  N2  <0> d           2.287   5.521   0.213  0.00  0.00    -0.359 N 
ATOM      6  H9  <0> d           1.438   5.991   0.224  0.00  0.00     0.162 HD
BRANCH   5   7
ATOM      7  C2  <0> d           3.541   6.270   0.316  0.00  0.00     0.113 C 
ATOM      8  C1  <0> d           4.090   6.541  -1.087  0.00  0.00     0.037 C 
BRANCH   7   9
ATOM      9  C3  <0> d           3.288   7.580   1.017  0.00  0.00    -0.033 A 
ATOM     10  C7  <0> d           4.196   8.078   1.940  0.00  0.00     0.028 A 
ATOM     11  C6  <0> d           3.930   9.283   2.563  0.00  0.00     0.116 A 
ATOM     12  N1  <0> d           2.830   9.956   2.289  0.00  0.00    -0.273 NA
ATOM     13  C5  <0> d           1.945   9.512   1.418  0.00  0.00     0.116 A 
ATOM     14  C4  <0> d           2.145   8.318   0.752  0.00  0.00     0.028 A 
ENDBRANCH   7   9
ENDBRANCH   5   7
ENDBRANCH   1   5
BRANCH   3  15
ATOM     15  C9  <0> d           1.177   2.087  -0.014  0.00  0.00     0.034 A 
ATOM     16  C14 <0> d           2.090   1.420  -0.821  0.00  0.00     0.031 A 
ATOM     17  C13 <0> d           2.110   0.040  -0.845  0.00  0.00     0.021 A 
ATOM     18  C12 <0> d           1.218  -0.681  -0.062  0.00  0.00     0.005 A 
ATOM     19  C11 <0> d           0.306  -0.014   0.746  0.00  0.00     0.021 A 
ATOM     20  C10 <0> d           0.286   1.366   0.769  0.00  0.00     0.031 A 
BRANCH  18  21
ATOM     21  S2  <0> d           1.245  -2.443  -0.091  0.00  0.00    -0.061 SA
BRANCH  21  22
ATOM     22  C15 <0> d           2.571  -2.842  -1.263  0.00  0.00     0.420 C 
ATOM     23  F1  <0> d           2.266  -2.299  -2.515  0.00  0.00    -0.202 F 
ATOM     24  F2  <0> d           3.778  -2.305  -0.802  0.00  0.00    -0.202 F 
ENDBRANCH  21  22
ENDBRANCH  18  21
ENDBRANCH   3  15
TORSDOF 6
