REMARK  7 active torsions:
REMARK  status: ('A' for Active; 'I' for Inactive)
REMARK    1  A    between atoms: C2_2  and  C3_3 
REMARK    2  A    between atoms: C3_3  and  N1_4 
REMARK    3  A    between atoms: C6_7  and  C8_9 
REMARK    4  A    between atoms: C8_9  and  N2_10 
REMARK       I    between atoms: N2_10  and  C9_11 
REMARK       I    between atoms: C9_11  and  N3_13 
REMARK    5  A    between atoms: N3_13  and  C10_14 
REMARK    6  A    between atoms: C10_14  and  C11_15 
REMARK    7  A    between atoms: C11_15  and  O2_25 
ROOT
ATOM      1  N2  <0> d           0.991  -5.817   4.229  0.00  0.00    -0.343 N 
ATOM      2  C9  <0> d           0.732  -6.271   5.472  0.00  0.00     0.316 C 
ATOM      3  O1  <0> d           0.880  -5.537   6.430  0.00  0.00    -0.247 OA
ATOM      4  N3  <0> d           0.309  -7.538   5.652  0.00  0.00    -0.340 N 
ATOM      5  H17 <0> d           0.872  -6.402   3.465  0.00  0.00     0.164 HD
ATOM      6  H18 <0> d           0.191  -8.123   4.888  0.00  0.00     0.164 HD
ENDROOT
BRANCH   4   7
ATOM      7  C10 <0> d           0.029  -8.031   7.003  0.00  0.00     0.167 C 
BRANCH   7   8
ATOM      8  C11 <0> d          -0.557  -9.442   6.919  0.00  0.00     0.101 C 
ATOM      9  C16 <0> d          -0.889  -9.925   8.306  0.00  0.00    -0.016 A 
ATOM     10  C15 <0> d          -2.051 -10.606   8.596  0.00  0.00    -0.049 A 
ATOM     11  C17 <0> d           0.026  -9.665   9.318  0.00  0.00     0.011 A 
ATOM     12  C14 <0> d          -3.090 -10.916   7.551  0.00  0.00     0.039 C 
ATOM     13  C20 <0> d          -2.294 -11.030   9.896  0.00  0.00     0.007 A 
ATOM     14  C13 <0> d          -2.499 -10.782   6.149  0.00  0.00     0.008 C 
ATOM     15  C12 <0> d          -1.809  -9.417   6.044  0.00  0.00     0.045 C 
ATOM     16  C19 <0> d          -1.383 -10.772  10.899  0.00  0.00     0.001 A 
ATOM     17  C18 <0> d          -0.218 -10.086  10.609  0.00  0.00     0.001 A 
BRANCH   8  18
ATOM     18  O2  <0> d           0.408 -10.319   6.333  0.00  0.00    -0.383 OA
ATOM     19  H31 <0> d           1.236 -10.380   6.830  0.00  0.00     0.211 HD
ENDBRANCH   8  18
ENDBRANCH   7   8
ENDBRANCH   4   7
BRANCH   1  20
ATOM     20  C8  <0> d           1.450  -4.440   4.033  0.00  0.00     0.130 C 
BRANCH  20  21
ATOM     21  C6  <0> d           1.668  -4.182   2.541  0.00  0.00     0.031 C 
ATOM     22  C5  <0> d           0.323  -4.231   1.787  0.00  0.00     0.035 C 
ATOM     23  C4  <0> d           0.160  -2.826   1.168  0.00  0.00     0.235 C 
ATOM     24  N1  <0> d           1.545  -2.300   1.062  0.00  0.00    -0.071 N 
ATOM     25  C7  <0> d           2.204  -2.753   2.314  0.00  0.00     0.241 C 
ATOM     26  H32 <0> d           2.012  -2.690   0.257  0.00  0.00     0.279 HD
BRANCH  24  27
ATOM     27  C3  <0> d           1.534  -0.833   0.988  0.00  0.00     0.234 C 
BRANCH  27  28
ATOM     28  C2  <0> d           0.965  -0.394  -0.363  0.00  0.00     0.023 C 
ATOM     29  C1  <0> d           0.953   1.134  -0.439  0.00  0.00     0.007 C 
ENDBRANCH  27  28
ENDBRANCH  24  27
ENDBRANCH  20  21
ENDBRANCH   1  20
TORSDOF 7
