REMARK  6 active torsions:
REMARK  status: ('A' for Active; 'I' for Inactive)
REMARK    1  A    between atoms: O1_2  and  C2_3 
REMARK    2  A    between atoms: C5_6  and  C9_11 
REMARK    3  A    between atoms: C7_8  and  O2_9 
REMARK    4  A    between atoms: N1_14  and  C12_15 
REMARK    5  A    between atoms: C15_18  and  S1_21 
REMARK    6  A    between atoms: S1_21  and  N2_24 
ROOT
ATOM      1  C9  <0> d          -6.013  -0.040   1.859  0.00  0.00     0.034 C 
ATOM      2  C10 <0> d          -6.639  -0.741   0.881  0.00  0.00     0.057 A 
ATOM      3  C11 <0> d          -8.048  -1.174   0.793  0.00  0.00     0.148 A 
ATOM      4  N1  <0> d          -8.921  -0.902   1.739  0.00  0.00    -0.230 NA
ATOM      5  N3  <0> d          -8.389  -1.871  -0.323  0.00  0.00    -0.301 N 
ATOM      6  C18 <0> d          -7.476  -2.135  -1.277  0.00  0.00     0.290 A 
ATOM      7  O5  <0> d          -7.632  -2.741  -2.320  0.00  0.00    -0.260 OA
ATOM      8  S2  <0> d          -5.984  -1.381  -0.653  0.00  0.00    -0.025 SA
ATOM      9  H17 <0> d          -9.302  -2.180  -0.434  0.00  0.00     0.171 HD
ENDROOT
BRANCH   4  10
ATOM     10  C12 <0> d         -10.214  -1.323   1.616  0.00  0.00     0.059 A 
ATOM     11  C17 <0> d         -10.867  -1.914   2.702  0.00  0.00     0.033 A 
ATOM     12  C16 <0> d         -12.173  -2.337   2.570  0.00  0.00     0.027 A 
ATOM     13  C15 <0> d         -12.838  -2.177   1.367  0.00  0.00     0.079 A 
ATOM     14  C14 <0> d         -12.198  -1.592   0.288  0.00  0.00     0.027 A 
ATOM     15  C13 <0> d         -10.894  -1.160   0.406  0.00  0.00     0.033 A 
BRANCH  13  16
ATOM     16  S1  <0> d         -14.506  -2.720   1.208  0.00  0.00     0.256 S 
ATOM     17  O3  <0> d         -14.727  -2.954  -0.176  0.00  0.00    -0.201 OA
ATOM     18  O4  <0> d         -14.700  -3.727   2.192  0.00  0.00    -0.201 OA
BRANCH  16  19
ATOM     19  N2  <0> d         -15.478  -1.449   1.634  0.00  0.00    -0.324 N 
ATOM     20  H15 <0> d         -15.082  -0.605   1.905  0.00  0.00     0.169 HD
ATOM     21  H16 <0> d         -16.442  -1.547   1.613  0.00  0.00     0.169 HD
ENDBRANCH  16  19
ENDBRANCH  13  16
ENDBRANCH   4  10
BRANCH   1  22
ATOM     22  C5  <0> d          -4.636   0.432   1.658  0.00  0.00    -0.032 A 
ATOM     23  C4  <0> d          -4.032   0.321   0.400  0.00  0.00     0.014 A 
ATOM     24  C3  <0> d          -2.741   0.764   0.215  0.00  0.00     0.040 A 
ATOM     25  C2  <0> d          -2.036   1.321   1.274  0.00  0.00     0.101 A 
ATOM     26  C7  <0> d          -2.628   1.430   2.531  0.00  0.00     0.102 A 
ATOM     27  C6  <0> d          -3.924   0.994   2.725  0.00  0.00     0.051 A 
BRANCH  25  28
ATOM     28  O1  <0> d          -0.762   1.756   1.085  0.00  0.00    -0.353 OA
ATOM     29  C1  <0> d          -0.214   1.608  -0.227  0.00  0.00     0.210 C 
ENDBRANCH  25  28
BRANCH  26  30
ATOM     30  O2  <0> d          -1.931   1.971   3.566  0.00  0.00    -0.353 OA
ATOM     31  C8  <0> d          -2.599   2.052   4.826  0.00  0.00     0.210 C 
ENDBRANCH  26  30
ENDBRANCH   1  22
TORSDOF 6
