REMARK  5 active torsions:
REMARK  status: ('A' for Active; 'I' for Inactive)
REMARK    1  A    between atoms: C4_4  and  C5_8 
REMARK       I    between atoms: C5_8  and  N3_10 
REMARK    2  A    between atoms: N3_10  and  C6_11 
REMARK    3  A    between atoms: C6_11  and  C7_12 
REMARK    4  A    between atoms: C7_12  and  C8_13 
REMARK    5  A    between atoms: C7_12  and  N4_18 
ROOT
ATOM      1  C6  <0> d          -5.078   3.418  -5.170  0.00  0.00     0.163 C 
ENDROOT
BRANCH   1   2
ATOM      2  N3  <0> d          -5.513   4.577  -4.387  0.00  0.00    -0.353 N 
ATOM      3  C5  <0> d          -5.939   4.413  -3.119  0.00  0.00     0.273 C 
ATOM      4  O1  <0> d          -5.962   3.302  -2.625  0.00  0.00    -0.266 OA
ATOM      5  H5  <0> d          -5.494   5.464  -4.781  0.00  0.00     0.162 HD
BRANCH   3   6
ATOM      6  C4  <0> d          -6.378   5.581  -2.330  0.00  0.00     0.163 A 
ATOM      7  C3  <0> d          -6.848   5.566  -0.995  0.00  0.00     0.070 A 
ATOM      8  C2  <0> d          -7.130   6.857  -0.696  0.00  0.00     0.044 A 
ATOM      9 Br1  <0> d          -7.042   4.061   0.133  0.00  0.00    -0.046 Br
ATOM     10  C1  <0> d          -7.664   7.375   0.615  0.00  0.00     0.071 C 
ATOM     11  N2  <0> d          -6.847   7.594  -1.798  0.00  0.00    -0.281 N 
ATOM     12  N1  <0> d          -6.405   6.835  -2.736  0.00  0.00    -0.168 NA
ATOM     13  H1  <0> d          -6.959   8.555  -1.867  0.00  0.00     0.189 HD
ENDBRANCH   3   6
ENDBRANCH   1   2
BRANCH   1  14
ATOM     14  C7  <0> d          -4.774   3.856  -6.604  0.00  0.00     0.262 C 
BRANCH  14  15
ATOM     15  C8  <0> d          -6.046   4.318  -7.268  0.00  0.00     0.085 A 
ATOM     16  O2  <0> d          -6.988   3.522  -7.800  0.00  0.00    -0.325 OA
ATOM     17  C11 <0> d          -7.981   4.276  -8.300  0.00  0.00     0.142 A 
ATOM     18  C10 <0> d          -7.674   5.570  -8.099  0.00  0.00     0.027 A 
ATOM     19  C9  <0> d          -6.427   5.597  -7.434  0.00  0.00     0.037 A 
ENDBRANCH  14  15
BRANCH  14  20
ATOM     20  N4  <0> d          -4.213   2.724  -7.354  0.00  0.00    -0.059 N 
ATOM     21  C15 <0> d          -2.923   2.310  -6.762  0.00  0.00     0.236 C 
ATOM     22  C14 <0> d          -2.014   1.869  -7.925  0.00  0.00     0.029 C 
ATOM     23  C13 <0> d          -2.857   2.090  -9.202  0.00  0.00     0.029 C 
ATOM     24  C12 <0> d          -3.907   3.134  -8.748  0.00  0.00     0.236 C 
ATOM     25  H20 <0> d          -4.861   1.950  -7.352  0.00  0.00     0.280 HD
ENDBRANCH  14  20
ENDBRANCH   1  14
TORSDOF 5
