REMARK  3 active torsions:
REMARK  status: ('A' for Active; 'I' for Inactive)
REMARK    1  A    between atoms: N2_19  and  C18_22 
REMARK    2  A    between atoms: C18_22  and  C19_23 
REMARK    3  A    between atoms: C19_23  and  C20_24 
ROOT
ATOM      1  C1  <0> d           1.423   7.317   0.043  0.00  0.00     0.048 C 
ATOM      2  C2  <0> d           0.695   5.997   0.038  0.00  0.00    -0.061 A 
ATOM      3  C3  <0> d          -0.690   5.996   0.049  0.00  0.00     0.009 A 
ATOM      4  C4  <0> d          -1.427   4.824   0.047  0.00  0.00     0.031 A 
ATOM      5  C5  <0> d          -0.712   3.628   0.031  0.00  0.00     0.043 A 
ATOM      6  C6  <0> d           0.708   3.636   0.019  0.00  0.00    -0.001 A 
ATOM      7  C7  <0> d           1.426   4.835   0.022  0.00  0.00     0.021 A 
ATOM      8  C8  <0> d           1.112   2.248   0.004  0.00  0.00    -0.018 A 
ATOM      9  C9  <0> d          -0.018   1.501   0.010  0.00  0.00     0.070 A 
ATOM     10  N1  <0> d          -1.113   2.323   0.019  0.00  0.00    -0.356 N 
ATOM     11  H1  <0> d          -2.185   2.076   0.018  0.00  0.00     0.166 HD
ATOM     12  C10 <0> d           0.002  -0.004   0.002  0.00  0.00     0.308 A 
ATOM     13  C11 <0> d          -1.035  -0.564   0.922  0.00  0.00     0.023 A 
ATOM     14  C12 <0> d          -1.214  -0.439   2.283  0.00  0.00     0.013 A 
ATOM     15  C13 <0> d          -2.302  -1.102   2.840  0.00  0.00     0.001 A 
ATOM     16  C14 <0> d          -3.162  -1.852   2.062  0.00  0.00     0.002 A 
ATOM     17  C15 <0> d          -2.988  -1.982   0.693  0.00  0.00     0.030 A 
ATOM     18  C16 <0> d          -1.901  -1.320   0.122  0.00  0.00     0.047 A 
ATOM     19  N2  <0> d          -1.495  -1.275  -1.201  0.00  0.00    -0.315 N 
ATOM     20  C17 <0> d          -0.387  -0.523  -1.365  0.00  0.00     0.275 A 
ATOM     21  O1  <0> d           0.189  -0.306  -2.410  0.00  0.00    -0.269 OA
ATOM     22  N3  <0> d           1.342  -0.479   0.362  0.00  0.00     0.113 N 
ATOM     23  C23 <0> d           2.382   0.183  -0.439  0.00  0.00     0.277 C 
ATOM     24  C24 <0> d           2.497   1.654  -0.016  0.00  0.00     0.072 C 
ATOM     25  H23 <0> d           1.533  -0.267   1.425  0.00  0.00     0.318 HD
ENDROOT
BRANCH  19  26
ATOM     26  C18 <0> d          -2.188  -1.963  -2.293  0.00  0.00     0.133 C 
BRANCH  26  27
ATOM     27  C19 <0> d          -3.251  -1.037  -2.886  0.00  0.00     0.024 C 
BRANCH  27  28
ATOM     28  C20 <0> d          -3.974  -1.755  -4.028  0.00  0.00    -0.021 C 
ATOM     29  C21 <0> d          -4.746  -2.952  -3.469  0.00  0.00     0.009 C 
ATOM     30  C22 <0> d          -4.950  -0.788  -4.702  0.00  0.00     0.009 C 
ENDBRANCH  27  28
ENDBRANCH  26  27
ENDBRANCH  19  26
TORSDOF 3
