REMARK  7 active torsions:
REMARK  status: ('A' for Active; 'I' for Inactive)
REMARK    1  A    between atoms: C6_6  and  O1_8 
REMARK    2  A    between atoms: O1_8  and  C8_9 
REMARK    3  A    between atoms: C8_9  and  C9_10 
REMARK    4  A    between atoms: C10_13  and  S1_16 
REMARK    5  A    between atoms: S1_16  and  C12_17 
REMARK    6  A    between atoms: C12_17  and  C13_18 
REMARK    7  A    between atoms: C19_25  and  O2_26 
ROOT
ATOM      1  C9  <0> d           0.063  -2.946   4.769  0.00  0.00     0.336 C 
ATOM      2  N1  <0> d           1.229  -3.865   4.703  0.00  0.00    -0.225 NA
ATOM      3  N2  <0> d           0.829  -5.023   5.507  0.00  0.00    -0.219 NA
ATOM      4  C10 <0> d          -0.647  -5.042   5.527  0.00  0.00     0.374 C 
ATOM      5  N3  <0> d          -1.098  -3.874   4.731  0.00  0.00     0.134 N 
ATOM      6  C11 <0> d          -2.288  -3.254   5.327  0.00  0.00     0.315 C 
ATOM      7  H11 <0> d           1.422  -4.136   3.750  0.00  0.00     0.143 HD
ATOM      8  H12 <0> d           1.202  -4.960   6.442  0.00  0.00     0.143 HD
ENDROOT
BRANCH   4   9
ATOM      9  S1  <0> d          -1.259  -6.579   4.782  0.00  0.00    -0.112 SA
BRANCH   9  10
ATOM     10  C12 <0> d          -0.569  -6.560   3.105  0.00  0.00     0.134 C 
BRANCH  10  11
ATOM     11  C13 <0> d          -1.006  -7.799   2.368  0.00  0.00     0.023 A 
ATOM     12  C22 <0> d          -1.967  -7.689   1.427  0.00  0.00     0.081 A 
ATOM     13  C21 <0> d          -2.396  -8.833   0.714  0.00  0.00     0.186 A 
ATOM     14  C15 <0> d          -1.767 -10.124   1.044  0.00  0.00     0.043 A 
ATOM     15  O3  <0> d          -3.261  -8.754  -0.143  0.00  0.00    -0.287 OA
ATOM     16  C14 <0> d          -0.778 -10.151   2.041  0.00  0.00     0.080 A 
ATOM     17  C16 <0> d          -2.135 -11.301   0.391  0.00  0.00     0.018 A 
ATOM     18  N4  <0> d          -0.423  -8.982   2.678  0.00  0.00    -0.356 N 
ATOM     19  C19 <0> d          -0.170 -11.365   2.368  0.00  0.00     0.095 A 
ATOM     20  H25 <0> d           0.261  -9.006   3.365  0.00  0.00     0.166 HD
ATOM     21  C18 <0> d          -0.550 -12.518   1.707  0.00  0.00     0.039 A 
ATOM     22  C17 <0> d          -1.529 -12.480   0.724  0.00  0.00     0.004 A 
BRANCH  19  23
ATOM     23  O2  <0> d           0.790 -11.412   3.329  0.00  0.00    -0.354 OA
ATOM     24  C20 <0> d           1.365 -12.690   3.609  0.00  0.00     0.210 C 
ENDBRANCH  19  23
ENDBRANCH  10  11
ENDBRANCH   9  10
ENDBRANCH   4   9
BRANCH   1  25
ATOM     25  C8  <0> d           0.045  -2.006   3.562  0.00  0.00     0.228 C 
BRANCH  25  26
ATOM     26  O1  <0> d           0.050  -2.776   2.358  0.00  0.00    -0.347 OA
BRANCH  26  27
ATOM     27  C6  <0> d           0.035  -2.088   1.186  0.00  0.00     0.075 A 
ATOM     28  C5  <0> d           0.039  -2.772  -0.020  0.00  0.00    -0.029 A 
ATOM     29  C4  <0> d           0.024  -2.071  -1.211  0.00  0.00     0.010 A 
ATOM     30  C23 <0> d           0.059  -4.279  -0.033  0.00  0.00     0.051 C 
ATOM     31  C3  <0> d           0.006  -0.688  -1.200  0.00  0.00     0.007 A 
ATOM     32  C2  <0> d           0.002  -0.004   0.002  0.00  0.00    -0.059 A 
ATOM     33  C1  <0> d          -0.018   1.503   0.010  0.00  0.00     0.048 C 
ATOM     34  C7  <0> d           0.023  -0.700   1.195  0.00  0.00     0.044 A 
ENDBRANCH  26  27
ENDBRANCH  25  26
ENDBRANCH   1  25
TORSDOF 7
