REMARK  5 active torsions:
REMARK  status: ('A' for Active; 'I' for Inactive)
REMARK    1  A    between atoms: C6_6  and  C9_9 
REMARK    2  A    between atoms: C9_9  and  C10_10 
REMARK    3  A    between atoms: C9_9  and  O3_19 
REMARK    4  A    between atoms: C10_10  and  N1_11 
REMARK    5  A    between atoms: N1_11  and  C11_12 
ROOT
ATOM      1  C9  <0> d          -0.221  -2.964   2.491  0.00  0.00     0.177 C 
ENDROOT
BRANCH   1   2
ATOM      2  C6  <0> d          -0.021  -2.305   1.151  0.00  0.00    -0.015 A 
ATOM      3  C5  <0> d          -0.743  -2.737   0.054  0.00  0.00    -0.047 A 
ATOM      4  C4  <0> d          -0.560  -2.132  -1.175  0.00  0.00    -0.055 A 
ATOM      5  C15 <0> d          -1.731  -3.866   0.199  0.00  0.00     0.049 C 
ATOM      6  C3  <0> d           0.345  -1.096  -1.308  0.00  0.00     0.014 A 
ATOM      7  C16 <0> d          -1.348  -2.603  -2.371  0.00  0.00     0.049 C 
ATOM      8  C2  <0> d           1.067  -0.664  -0.212  0.00  0.00    -0.055 A 
ATOM      9  C1  <0> d           2.053   0.466  -0.357  0.00  0.00     0.049 C 
ATOM     10  C7  <0> d           0.887  -1.272   1.017  0.00  0.00    -0.047 A 
ATOM     11  C8  <0> d           1.679  -0.805   2.211  0.00  0.00     0.049 C 
ENDBRANCH   1   2
BRANCH   1  12
ATOM     12  C10 <0> d          -1.607  -2.608   3.033  0.00  0.00     0.269 C 
BRANCH  12  13
ATOM     13  N1  <0> d          -1.852  -3.351   4.276  0.00  0.00    -0.067 N 
ATOM     14  H12 <0> d          -1.807  -4.342   4.091  0.00  0.00     0.277 HD
ATOM     15  H26 <0> d          -1.151  -3.105   4.959  0.00  0.00     0.277 HD
BRANCH  13  16
ATOM     16  C11 <0> d          -3.183  -3.010   4.796  0.00  0.00     0.200 C 
ATOM     17  C14 <0> d          -3.501  -3.886   6.041  0.00  0.00     0.173 C 
ATOM     18  S1  <0> d          -4.839  -2.889   6.822  0.00  0.00     0.146 S 
ATOM     19  C13 <0> d          -4.481  -1.252   6.064  0.00  0.00     0.142 C 
ATOM     20  O1  <0> d          -6.097  -3.352   6.350  0.00  0.00    -0.228 OA
ATOM     21  O2  <0> d          -4.603  -2.812   8.221  0.00  0.00    -0.228 OA
ATOM     22  C12 <0> d          -3.208  -1.535   5.230  0.00  0.00     0.049 C 
ENDBRANCH  13  16
ENDBRANCH  12  13
ENDBRANCH   1  12
BRANCH   1  23
ATOM     23  O3  <0> d           0.779  -2.503   3.402  0.00  0.00    -0.389 OA
ATOM     24  H19 <0> d           0.622  -1.610   3.740  0.00  0.00     0.210 HD
ENDBRANCH   1  23
TORSDOF 5
