REMARK  4 active torsions:
REMARK  status: ('A' for Active; 'I' for Inactive)
REMARK    1  A    between atoms: C6_6  and  C7_7 
REMARK    2  A    between atoms: N1_11  and  C11_14 
REMARK    3  A    between atoms: C11_14  and  C12_15 
REMARK       I    between atoms: C12_15  and  N3_17 
REMARK    4  A    between atoms: N3_17  and  C13_18 
ROOT
ATOM      1  C7  <0> d          -0.056   1.477   0.008  0.00  0.00     0.073 A 
ATOM      2  C8  <0> d          -1.259   2.163   0.009  0.00  0.00     0.107 A 
ATOM      3  C9  <0> d          -1.226   3.569   0.021  0.00  0.00     0.251 A 
ATOM      4  O1  <0> d          -2.261   4.215   0.026  0.00  0.00    -0.268 OA
ATOM      5  N1  <0> d          -0.028   4.190   0.022  0.00  0.00    -0.300 N 
ATOM      6  C10 <0> d           1.112   3.469   0.016  0.00  0.00     0.213 A 
ATOM      7  N2  <0> d           1.099   2.165   0.009  0.00  0.00    -0.243 NA
ENDROOT
BRANCH   5   8
ATOM      8  C11 <0> d           0.035   5.653   0.028  0.00  0.00     0.236 C 
BRANCH   8   9
ATOM      9  C12 <0> d           0.054   6.162  -1.390  0.00  0.00     0.240 C 
ATOM     10  O2  <0> d           0.018   5.378  -2.316  0.00  0.00    -0.271 OA
ATOM     11  N3  <0> d           0.111   7.486  -1.631  0.00  0.00    -0.323 N 
ATOM     12  H9  <0> d           0.074   8.115  -0.893  0.00  0.00     0.169 HD
BRANCH  11  13
ATOM     13  C13 <0> d           0.222   7.955  -2.946  0.00  0.00     0.073 A 
ATOM     14  C18 <0> d           0.957   9.104  -3.216  0.00  0.00     0.144 A 
ATOM     15  C17 <0> d           1.070   9.561  -4.516  0.00  0.00     0.063 A 
ATOM     16  F1  <0> d           1.565   9.771  -2.210  0.00  0.00    -0.204 F 
ATOM     17  C16 <0> d           0.443   8.882  -5.545  0.00  0.00     0.014 A 
ATOM     18  C15 <0> d          -0.294   7.742  -5.278  0.00  0.00     0.021 A 
ATOM     19 Br1  <0> d           0.593   9.513  -7.322  0.00  0.00    -0.051 Br
ATOM     20  C14 <0> d          -0.405   7.277  -3.982  0.00  0.00     0.034 A 
ENDBRANCH  11  13
ENDBRANCH   8   9
ENDBRANCH   5   8
BRANCH   1  21
ATOM     21  C6  <0> d          -0.042  -0.004   0.000  0.00  0.00    -0.007 A 
ATOM     22  C1  <0> d          -1.242  -0.715   0.005  0.00  0.00     0.017 A 
ATOM     23  C2  <0> d          -1.224  -2.094  -0.008  0.00  0.00     0.043 A 
ATOM     24  C3  <0> d          -0.016  -2.773  -0.014  0.00  0.00     0.116 A 
ATOM     25  C4  <0> d           1.179  -2.071  -0.014  0.00  0.00     0.043 A 
ATOM     26  F2  <0> d          -0.004  -4.124  -0.021  0.00  0.00    -0.206 F 
ATOM     27  C5  <0> d           1.171  -0.692  -0.006  0.00  0.00     0.017 A 
ENDBRANCH   1  21
TORSDOF 4
