REMARK  3 active torsions:
REMARK  status: ('A' for Active; 'I' for Inactive)
REMARK    1  A    between atoms: C6_6  and  N1_8 
REMARK    2  A    between atoms: N4_24  and  C21_27 
REMARK    3  A    between atoms: C21_27  and  C22_28 
REMARK       I    between atoms: C22_28  and  N5_30 
ROOT
ATOM      1  N1  <0> d           0.273  -3.116   2.163  0.00  0.00    -0.217 N 
ATOM      2  C8  <0> d           0.336  -2.758   3.462  0.00  0.00     0.141 A 
ATOM      3  C9  <0> d           0.469  -3.905   4.202  0.00  0.00     0.030 A 
ATOM      4  C10 <0> d           0.473  -4.980   3.325  0.00  0.00     0.152 A 
ATOM      5  N2  <0> d           0.350  -4.517   2.103  0.00  0.00    -0.177 NA
ATOM      6  C11 <0> d           0.590  -3.878   5.700  0.00  0.00     0.111 A 
ATOM      7  C12 <0> d          -0.123  -2.641   6.241  0.00  0.00     0.132 C 
ATOM      8  C13 <0> d           0.179  -1.429   5.403  0.00  0.00     0.225 C 
ATOM      9  O1  <0> d           0.318  -0.356   5.950  0.00  0.00    -0.273 OA
ATOM     10  N3  <0> d           0.301  -1.499   4.060  0.00  0.00    -0.311 N 
ATOM     11  C14 <0> d           2.022  -3.908   6.128  0.00  0.00    -0.008 A 
ATOM     12  C15 <0> d           3.065  -3.039   5.894  0.00  0.00     0.011 A 
ATOM     13  C16 <0> d           4.298  -3.368   6.448  0.00  0.00     0.001 A 
ATOM     14  C17 <0> d           4.465  -4.514   7.198  0.00  0.00     0.002 A 
ATOM     15  C18 <0> d           3.420  -5.392   7.439  0.00  0.00     0.030 A 
ATOM     16  C19 <0> d           2.178  -5.074   6.889  0.00  0.00     0.045 A 
ATOM     17  N4  <0> d           0.979  -5.761   6.967  0.00  0.00    -0.307 N 
ATOM     18  C20 <0> d          -0.010  -5.131   6.298  0.00  0.00     0.243 A 
ATOM     19  O2  <0> d          -1.161  -5.501   6.196  0.00  0.00    -0.271 OA
ATOM     20  H10 <0> d           0.363  -0.693   3.525  0.00  0.00     0.170 HD
ENDROOT
BRANCH  17  21
ATOM     21  C21 <0> d           0.804  -7.022   7.691  0.00  0.00     0.234 C 
BRANCH  21  22
ATOM     22  C22 <0> d           0.408  -6.733   9.116  0.00  0.00     0.233 C 
ATOM     23  O3  <0> d           0.283  -5.586   9.490  0.00  0.00    -0.272 OA
ATOM     24  N5  <0> d           0.191  -7.749   9.975  0.00  0.00    -0.369 N 
ATOM     25  H17 <0> d           0.290  -8.666   9.676  0.00  0.00     0.159 HD
ATOM     26  H18 <0> d          -0.064  -7.562  10.892  0.00  0.00     0.159 HD
ENDBRANCH  21  22
ENDBRANCH  17  21
BRANCH   1  27
ATOM     27  C6  <0> d           0.146  -2.247   1.071  0.00  0.00     0.067 A 
ATOM     28  C5  <0> d          -0.801  -2.498   0.088  0.00  0.00    -0.033 A 
ATOM     29  C4  <0> d          -0.924  -1.640  -0.987  0.00  0.00     0.009 A 
ATOM     30  C23 <0> d          -1.696  -3.707   0.194  0.00  0.00     0.050 C 
ATOM     31  C3  <0> d          -0.104  -0.531  -1.085  0.00  0.00     0.007 A 
ATOM     32  C2  <0> d           0.841  -0.277  -0.107  0.00  0.00    -0.060 A 
ATOM     33  C1  <0> d           1.732   0.933  -0.217  0.00  0.00     0.048 C 
ATOM     34  C7  <0> d           0.972  -1.135   0.967  0.00  0.00     0.039 A 
ENDBRANCH   1  27
TORSDOF 3
