REMARK  7 active torsions:
REMARK  status: ('A' for Active; 'I' for Inactive)
REMARK    1  A    between atoms: C2_2  and  N1_4 
REMARK    2  A    between atoms: N1_4  and  C4_5 
REMARK    3  A    between atoms: C4_5  and  C6_7 
REMARK    4  A    between atoms: C4_5  and  C14_17 
REMARK    5  A    between atoms: C6_7  and  C7_8 
REMARK    6  A    between atoms: C7_8  and  S1_9 
REMARK    7  A    between atoms: S1_9  and  C8_10 
ROOT
ATOM      1  C4  <0> d          -0.890  -1.518  -0.239  0.00  0.00     0.210 C 
ATOM      2  C5  <0> d          -0.016  -1.890   0.960  0.00  0.00     0.058 C 
ENDROOT
BRANCH   1   3
ATOM      3  N1  <0> d          -1.335  -0.125  -0.108  0.00  0.00    -0.053 N 
ATOM      4  H8  <0> d          -0.598   0.494  -0.411  0.00  0.00     0.279 HD
ATOM      5  H20 <0> d          -1.560   0.067   0.857  0.00  0.00     0.279 HD
BRANCH   3   6
ATOM      6  C2  <0> d          -2.526   0.089  -0.940  0.00  0.00     0.179 C 
ATOM      7  C1  <0> d          -3.090   1.487  -0.675  0.00  0.00     0.039 C 
ATOM      8  C3  <0> d          -2.146  -0.036  -2.417  0.00  0.00     0.039 C 
ENDBRANCH   3   6
ENDBRANCH   1   3
BRANCH   1   9
ATOM      9  C6  <0> d          -2.109  -2.441  -0.287  0.00  0.00     0.060 C 
BRANCH   9  10
ATOM     10  C7  <0> d          -1.646  -3.893  -0.423  0.00  0.00     0.082 C 
BRANCH  10  11
ATOM     11  S1  <0> d          -3.091  -4.987  -0.480  0.00  0.00    -0.130 SA
BRANCH  11  12
ATOM     12  C8  <0> d          -2.400  -6.599  -0.636  0.00  0.00     0.001 A 
ATOM     13  C13 <0> d          -3.232  -7.710  -0.710  0.00  0.00     0.037 A 
ATOM     14  C12 <0> d          -2.686  -8.973  -0.838  0.00  0.00     0.012 A 
ATOM     15  C11 <0> d          -1.312  -9.133  -0.882  0.00  0.00     0.019 A 
ATOM     16 Br1  <0> d          -3.817 -10.484  -0.947  0.00  0.00    -0.051 Br
ATOM     17  C10 <0> d          -0.481  -8.030  -0.803  0.00  0.00     0.003 A 
ATOM     18  C9  <0> d          -1.020  -6.765  -0.681  0.00  0.00     0.018 A 
ENDBRANCH  11  12
ENDBRANCH  10  11
ENDBRANCH   9  10
ENDBRANCH   1   9
BRANCH   1  19
ATOM     19  C14 <0> d          -0.093  -1.673  -1.509  0.00  0.00     0.210 C 
ATOM     20  O1  <0> d           0.203  -0.691  -2.167  0.00  0.00    -0.646 OA
ATOM     21  O2  <0> d           0.256  -2.782  -1.878  0.00  0.00    -0.646 OA
ENDBRANCH   1  19
TORSDOF 7
