REMARK  6 active torsions:
REMARK  status: ('A' for Active; 'I' for Inactive)
REMARK    1  A    between atoms: C5_5  and  C8_10 
REMARK       I    between atoms: C8_10  and  N1_12 
REMARK    2  A    between atoms: C10_14  and  C17_22 
REMARK       I    between atoms: C17_22  and  N3_24 
REMARK    3  A    between atoms: N3_24  and  C18_25 
REMARK    4  A    between atoms: C18_25  and  C19_26 
REMARK    5  A    between atoms: C19_26  and  C20_27 
REMARK    6  A    between atoms: C20_27  and  N4_28 
ROOT
ATOM      1  C8  <0> d           0.131  -4.057  -0.085  0.00  0.00     0.257 C 
ATOM      2  O1  <0> d           0.169  -4.637   0.983  0.00  0.00    -0.267 OA
ATOM      3  N1  <0> d          -0.019  -4.757  -1.226  0.00  0.00    -0.346 N 
ATOM      4  C9  <0> d           0.020  -4.246  -2.617  0.00  0.00     0.141 C 
ATOM      5  C10 <0> d           0.779  -5.332  -3.412  0.00  0.00     0.106 C 
ATOM      6  C11 <0> d           0.591  -6.620  -2.593  0.00  0.00    -0.007 C 
ATOM      7  C12 <0> d          -0.252  -6.213  -1.376  0.00  0.00     0.136 C 
ATOM      8  C13 <0> d           1.943  -7.157  -2.135  0.00  0.00     0.039 C 
ATOM      9  C14 <0> d           1.735  -8.468  -1.372  0.00  0.00     0.233 C 
ATOM     10  N2  <0> d           1.069  -9.443  -2.244  0.00  0.00    -0.075 N 
ATOM     11  C15 <0> d          -0.270  -8.960  -2.605  0.00  0.00     0.233 C 
ATOM     12  C16 <0> d          -0.146  -7.670  -3.420  0.00  0.00     0.039 C 
ATOM     13  H15 <0> d           1.616  -9.572  -3.082  0.00  0.00     0.277 HD
ATOM     14  H34 <0> d           0.987 -10.325  -1.760  0.00  0.00     0.277 HD
ENDROOT
BRANCH   5  15
ATOM     15  C17 <0> d           0.182  -5.489  -4.786  0.00  0.00     0.224 C 
ATOM     16  O2  <0> d          -1.000  -5.284  -4.961  0.00  0.00    -0.273 OA
ATOM     17  N3  <0> d           0.962  -5.858  -5.822  0.00  0.00    -0.361 N 
ATOM     18  H20 <0> d           1.908  -6.022  -5.681  0.00  0.00     0.162 HD
BRANCH  17  19
ATOM     19  C18 <0> d           0.382  -6.011  -7.158  0.00  0.00     0.124 C 
BRANCH  19  20
ATOM     20  C19 <0> d           1.475  -6.433  -8.143  0.00  0.00     0.041 C 
BRANCH  20  21
ATOM     21  C20 <0> d           0.869  -6.593  -9.539  0.00  0.00     0.152 C 
BRANCH  21  22
ATOM     22  N4  <0> d           1.915  -6.997 -10.481  0.00  0.00    -0.274 N 
ATOM     23  N5  <0> d           2.282  -8.313 -10.791  0.00  0.00    -0.177 NA
ATOM     24  C23 <0> d           3.247  -8.272 -11.673  0.00  0.00     0.053 A 
ATOM     25  C22 <0> d           3.531  -6.930 -11.947  0.00  0.00     0.055 A 
ATOM     26  C24 <0> d           3.937  -9.464 -12.285  0.00  0.00     0.072 C 
ATOM     27  C21 <0> d           2.699  -6.168 -11.201  0.00  0.00     0.028 A 
ATOM     28  C25 <0> d           2.654  -4.661 -11.179  0.00  0.00     0.070 C 
ENDBRANCH  21  22
ENDBRANCH  20  21
ENDBRANCH  19  20
ENDBRANCH  17  19
ENDBRANCH   5  15
BRANCH   1  29
ATOM     29  C5  <0> d           0.249  -2.585  -0.130  0.00  0.00     0.073 A 
ATOM     30  C4  <0> d          -0.448  -1.855  -1.096  0.00  0.00     0.021 A 
ATOM     31  C3  <0> d          -0.335  -0.482  -1.134  0.00  0.00     0.011 A 
ATOM     32  C2  <0> d           0.467   0.177  -0.218  0.00  0.00    -0.020 A 
ATOM     33  C1  <0> d           0.583   1.679  -0.268  0.00  0.00     0.051 C 
ATOM     34  C7  <0> d           1.166  -0.536   0.739  0.00  0.00     0.161 A 
ATOM     35  C6  <0> d           1.058  -1.917   0.793  0.00  0.00     0.171 A 
ATOM     36  F1  <0> d           1.951   0.114   1.626  0.00  0.00    -0.202 F 
ATOM     37  F2  <0> d           1.735  -2.614   1.731  0.00  0.00    -0.202 F 
ENDBRANCH   1  29
TORSDOF 6
