REMARK  5 active torsions:
REMARK  status: ('A' for Active; 'I' for Inactive)
REMARK    1  A    between atoms: C2_2  and  N1_3 
REMARK    2  A    between atoms: N1_3  and  C3_4 
REMARK    3  A    between atoms: N1_3  and  S2_11 
REMARK    4  A    between atoms: S2_11  and  C7_14 
REMARK    5  A    between atoms: C12_19  and  N2_20 
ROOT
ATOM      1  S2  <0> d          -2.198  -0.985   1.121  0.00  0.00     0.263 S 
ATOM      2  O3  <0> d          -1.641  -0.474   2.325  0.00  0.00    -0.200 OA
ATOM      3  O4  <0> d          -3.486  -0.605   0.657  0.00  0.00    -0.200 OA
ENDROOT
BRANCH   1   4
ATOM      4  N1  <0> d          -1.130  -0.614  -0.089  0.00  0.00    -0.301 N 
BRANCH   4   5
ATOM      5  C2  <0> d           0.308  -0.575   0.189  0.00  0.00     0.131 C 
ATOM      6  C1  <0> d           0.913  -1.958  -0.059  0.00  0.00     0.027 C 
ENDBRANCH   4   5
BRANCH   4   7
ATOM      7  C3  <0> d          -1.623  -0.326  -1.438  0.00  0.00     0.110 C 
ATOM      8  C6  <0> d          -1.110   1.068  -1.898  0.00  0.00     0.166 C 
ATOM      9  S1  <0> d          -1.316   0.919  -3.723  0.00  0.00     0.146 S 
ATOM     10  C5  <0> d          -1.332  -0.914  -3.878  0.00  0.00     0.142 C 
ATOM     11  O1  <0> d          -2.593   1.425  -4.087  0.00  0.00    -0.228 OA
ATOM     12  O2  <0> d          -0.154   1.427  -4.363  0.00  0.00    -0.228 OA
ATOM     13  C4  <0> d          -1.090  -1.381  -2.422  0.00  0.00     0.042 C 
ENDBRANCH   4   7
ENDBRANCH   1   4
BRANCH   1  14
ATOM     14  C7  <0> d          -2.217  -2.739   1.280  0.00  0.00     0.105 A 
ATOM     15  C12 <0> d          -2.740  -3.524   0.260  0.00  0.00     0.049 A 
ATOM     16  C11 <0> d          -2.748  -4.908   0.387  0.00  0.00     0.037 A 
ATOM     17  C10 <0> d          -2.247  -5.497   1.531  0.00  0.00    -0.060 A 
ATOM     18  C9  <0> d          -1.732  -4.713   2.547  0.00  0.00     0.008 A 
ATOM     19  C13 <0> d          -2.260  -6.998   1.671  0.00  0.00     0.048 C 
ATOM     20  C8  <0> d          -1.718  -3.336   2.422  0.00  0.00     0.028 A 
BRANCH  15  21
ATOM     21  N2  <0> d          -3.250  -2.924  -0.893  0.00  0.00    -0.398 N 
ATOM     22  H16 <0> d          -3.233  -1.958  -0.986  0.00  0.00     0.156 HD
ATOM     23  H17 <0> d          -3.622  -3.473  -1.601  0.00  0.00     0.156 HD
ENDBRANCH  15  21
ENDBRANCH   1  14
TORSDOF 5
