REMARK  4 active torsions:
REMARK  status: ('A' for Active; 'I' for Inactive)
REMARK    1  A    between atoms: C3_3  and  C5_8 
REMARK    2  A    between atoms: C5_8  and  N3_9 
REMARK       I    between atoms: N3_9  and  C6_10 
REMARK    3  A    between atoms: C6_10  and  C7_12 
REMARK    4  A    between atoms: C7_12  and  C8_13 
ROOT
ATOM      1  N3  <0> d           1.347   0.058  -2.960  0.00  0.00    -0.356 N 
ATOM      2  C6  <0> d           1.576   0.520  -4.206  0.00  0.00     0.232 C 
ATOM      3  O1  <0> d           0.663   0.603  -4.999  0.00  0.00    -0.272 OA
ATOM      4  H9  <0> d           2.077  -0.009  -2.325  0.00  0.00     0.162 HD
ENDROOT
BRANCH   1   5
ATOM      5  C5  <0> d          -0.006  -0.343  -2.566  0.00  0.00     0.164 C 
BRANCH   5   6
ATOM      6  C3  <0> d           0.008  -0.818  -1.135  0.00  0.00     0.002 A 
ATOM      7  C2  <0> d           0.002  -0.004   0.002  0.00  0.00     0.060 A 
ATOM      8  C1  <0> d          -0.018   1.503   0.010  0.00  0.00     0.073 C 
ATOM      9  N2  <0> d           0.023  -0.777   1.058  0.00  0.00    -0.180 NA
ATOM     10  N1  <0> d           0.034  -2.109   0.625  0.00  0.00    -0.288 N 
ATOM     11  C4  <0> d           0.028  -2.107  -0.725  0.00  0.00     0.120 A 
ATOM     12  H1  <0> d           0.048  -2.894   1.194  0.00  0.00     0.188 HD
ENDBRANCH   5   6
ENDBRANCH   1   5
BRANCH   2  13
ATOM     13  C7  <0> d           2.967   0.932  -4.612  0.00  0.00     0.153 C 
ATOM     14 Br1  <0> d           3.079   2.894  -4.668  0.00  0.00    -0.081 Br
BRANCH  13  15
ATOM     15  C8  <0> d           3.284   0.364  -5.996  0.00  0.00     0.001 C 
ATOM     16  C9  <0> d           2.355   0.998  -7.033  0.00  0.00     0.011 C 
ATOM     17  C10 <0> d           4.739   0.676  -6.355  0.00  0.00     0.011 C 
ENDBRANCH  13  15
ENDBRANCH   2  13
TORSDOF 4
