REMARK  6 active torsions:
REMARK  status: ('A' for Active; 'I' for Inactive)
REMARK    1  A    between atoms: C3_3  and  N3_18 
REMARK    2  A    between atoms: C6_6  and  C7_7 
REMARK    3  A    between atoms: C7_7  and  C8_8 
REMARK    4  A    between atoms: N1_11  and  C11_15 
REMARK    5  A    between atoms: C11_15  and  C12_16 
REMARK    6  A    between atoms: C12_16  and  N2_17 
ROOT
ATOM      1  C8  <0> d          -5.027   5.358   0.158  0.00  0.00     0.076 A 
ATOM      2  C9  <0> d          -3.904   6.319   0.180  0.00  0.00     0.266 A 
ATOM      3  O1  <0> d          -2.747   5.952   0.094  0.00  0.00    -0.266 OA
ATOM      4  N1  <0> d          -4.221   7.597   0.299  0.00  0.00    -0.297 N 
ATOM      5  C10 <0> d          -5.504   7.999   0.394  0.00  0.00     0.148 A 
ATOM      6  S1  <0> d          -6.110   9.592   0.552  0.00  0.00    -0.052 SA
ATOM      7  S2  <0> d          -6.420   6.468   0.308  0.00  0.00    -0.055 SA
ENDROOT
BRANCH   1   8
ATOM      8  C7  <0> d          -5.007   4.006   0.048  0.00  0.00     0.036 C 
BRANCH   8   9
ATOM      9  C6  <0> d          -3.729   3.283   0.111  0.00  0.00    -0.035 A 
ATOM     10  C1  <0> d          -2.734   3.690   1.006  0.00  0.00     0.014 A 
ATOM     11  C2  <0> d          -1.538   3.006   1.060  0.00  0.00     0.037 A 
ATOM     12  C3  <0> d          -1.321   1.918   0.232  0.00  0.00     0.102 A 
ATOM     13  C4  <0> d          -2.298   1.512  -0.660  0.00  0.00     0.037 A 
ATOM     14  C5  <0> d          -3.501   2.183  -0.723  0.00  0.00     0.014 A 
BRANCH  12  15
ATOM     15  N3  <0> d          -0.034   1.189   0.296  0.00  0.00    -0.116 N 
ATOM     16  O2  <0> d           0.830   1.547   1.076  0.00  0.00    -0.532 OA
ATOM     17  O3  <0> d           0.158   0.229  -0.428  0.00  0.00    -0.532 OA
ENDBRANCH  12  15
ENDBRANCH   8   9
ENDBRANCH   1   8
BRANCH   4  18
ATOM     18  C11 <0> d          -3.153   8.600   0.328  0.00  0.00     0.161 C 
BRANCH  18  19
ATOM     19  C12 <0> d          -2.852   9.065  -1.098  0.00  0.00     0.250 C 
BRANCH  19  20
ATOM     20  N2  <0> d          -1.781  10.070  -1.069  0.00  0.00    -0.078 N 
ATOM     21  H10 <0> d          -1.564  10.405  -2.095  0.00  0.00     0.274 HD
ATOM     22  H11 <0> d          -0.875   9.628  -0.629  0.00  0.00     0.274 HD
ATOM     23  H12 <0> d          -2.102  10.930  -0.463  0.00  0.00     0.274 HD
ENDBRANCH  19  20
ENDBRANCH  18  19
ENDBRANCH   4  18
TORSDOF 6
