REMARK  5 active torsions:
REMARK  status: ('A' for Active; 'I' for Inactive)
REMARK    1  A    between atoms: C5_5  and  S1_9 
REMARK    2  A    between atoms: S1_9  and  N1_12 
REMARK    3  A    between atoms: N1_12  and  C10_14 
REMARK    4  A    between atoms: C10_14  and  C11_15 
REMARK       I    between atoms: C11_15  and  N2_17 
REMARK    5  A    between atoms: N2_17  and  C12_18 
ROOT
ATOM      1  C11 <0> d           0.113   5.703  -2.353  0.00  0.00     0.236 C 
ATOM      2  O3  <0> d          -0.129   5.078  -3.364  0.00  0.00    -0.272 OA
ATOM      3  N2  <0> d           0.389   5.051  -1.207  0.00  0.00    -0.355 N 
ATOM      4  H15 <0> d           0.608   5.617  -0.290  0.00  0.00     0.162 HD
ENDROOT
BRANCH   1   5
ATOM      5  C10 <0> d           0.105   7.210  -2.379  0.00  0.00     0.237 C 
BRANCH   5   6
ATOM      6  N1  <0> d          -0.220   7.674  -3.730  0.00  0.00    -0.302 N 
ATOM      7  C9  <0> d          -1.619   7.799  -4.145  0.00  0.00     0.163 C 
BRANCH   6   8
ATOM      8  S1  <0> d           0.995   8.056  -4.789  0.00  0.00     0.260 S 
ATOM      9  O1  <0> d           0.440   8.959  -5.735  0.00  0.00    -0.200 OA
ATOM     10  O2  <0> d           2.133   8.380  -4.002  0.00  0.00    -0.200 OA
BRANCH   8  11
ATOM     11  C5  <0> d           1.398   6.585  -5.673  0.00  0.00     0.080 A 
ATOM     12  C4  <0> d           2.373   5.733  -5.189  0.00  0.00     0.026 A 
ATOM     13  C3  <0> d           2.685   4.577  -5.879  0.00  0.00     0.009 A 
ATOM     14  C2  <0> d           2.029   4.278  -7.059  0.00  0.00    -0.056 A 
ATOM     15  C1  <0> d           2.373   3.020  -7.814  0.00  0.00     0.049 C 
ATOM     16  C7  <0> d           1.058   5.133  -7.545  0.00  0.00    -0.055 A 
ATOM     17  C6  <0> d           0.742   6.286  -6.852  0.00  0.00     0.032 A 
ATOM     18  C8  <0> d           0.344   4.807  -8.832  0.00  0.00     0.049 C 
ENDBRANCH   8  11
ENDBRANCH   6   8
ENDBRANCH   5   6
ENDBRANCH   1   5
BRANCH   3  19
ATOM     19  C12 <0> d           0.396   3.583  -1.181  0.00  0.00     0.089 C 
ATOM     20  C16 <0> d          -1.022   3.076  -0.918  0.00  0.00     0.063 C 
ATOM     21  C15 <0> d          -1.042   1.551  -0.852  0.00  0.00     0.121 C 
ATOM     22  N3  <0> d          -0.012   1.005   0.008  0.00  0.00    -0.059 N 
ATOM     23  C17 <0> d          -0.944   0.975  -2.269  0.00  0.00     0.046 C 
ATOM     24  C18 <0> d          -2.415   1.129  -0.282  0.00  0.00     0.046 C 
ATOM     25  C14 <0> d           1.320   1.577  -0.002  0.00  0.00     0.121 C 
ATOM     26  H19 <0> d           0.042  -0.055  -0.283  0.00  0.00     0.279 HD
ATOM     27  H34 <0> d          -0.438   1.086   1.018  0.00  0.00     0.279 HD
ATOM     28  C13 <0> d           1.298   3.104  -0.042  0.00  0.00     0.063 C 
ATOM     29  C19 <0> d           2.035   1.156   1.301  0.00  0.00     0.046 C 
ATOM     30  C20 <0> d           2.151   1.041  -1.172  0.00  0.00     0.046 C 
ENDBRANCH   3  19
TORSDOF 5
