REMARK  3 active torsions:
REMARK  status: ('A' for Active; 'I' for Inactive)
REMARK    1  A    between atoms: C2_2  and  N1_3 
REMARK    2  A    between atoms: N1_3  and  C3_4 
REMARK    3  A    between atoms: C10_12  and  C11_14 
ROOT
ATOM      1  C3  <0> d           0.618  -1.943  -1.135  0.00  0.00     0.222 C 
ATOM      2  C4  <0> d           1.255  -2.542  -2.389  0.00  0.00     0.038 C 
ATOM      3  C5  <0> d           1.374  -4.058  -2.198  0.00  0.00     0.008 C 
ATOM      4  C6  <0> d           2.439  -4.331  -1.138  0.00  0.00     0.060 C 
ATOM      5  C7  <0> d           2.172  -3.516   0.098  0.00  0.00     0.046 A 
ATOM      6  C8  <0> d           1.343  -2.417   0.094  0.00  0.00     0.015 A 
ATOM      7  C9  <0> d           1.164  -1.720   1.284  0.00  0.00     0.130 A 
ATOM      8  N2  <0> d           1.789  -2.126   2.374  0.00  0.00    -0.240 NA
ATOM      9  C10 <0> d           2.581  -3.188   2.340  0.00  0.00     0.159 A 
ATOM     10  N3  <0> d           2.766  -3.871   1.231  0.00  0.00    -0.232 NA
ENDROOT
BRANCH   9  11
ATOM     11  C11 <0> d           3.269  -3.620   3.583  0.00  0.00     0.014 A 
ATOM     12  C15 <0> d           3.091  -2.923   4.781  0.00  0.00     0.034 A 
ATOM     13  C14 <0> d           3.745  -3.362   5.914  0.00  0.00     0.117 A 
ATOM     14  N4  <0> d           4.537  -4.416   5.873  0.00  0.00    -0.273 NA
ATOM     15  C13 <0> d           4.736  -5.098   4.763  0.00  0.00     0.117 A 
ATOM     16  C12 <0> d           4.116  -4.731   3.585  0.00  0.00     0.034 A 
ENDBRANCH   9  11
BRANCH   1  17
ATOM     17  N1  <0> d           0.690  -0.478  -1.207  0.00  0.00    -0.067 N 
ATOM     18  H7  <0> d           1.648  -0.194  -1.344  0.00  0.00     0.277 HD
ATOM     19  H19 <0> d           0.341  -0.082  -0.346  0.00  0.00     0.277 HD
BRANCH  17  20
ATOM     20  C2  <0> d          -0.128  -0.002  -2.331  0.00  0.00     0.228 C 
ATOM     21  C1  <0> d          -0.158   1.528  -2.327  0.00  0.00     0.034 C 
ENDBRANCH  17  20
ENDBRANCH   1  17
TORSDOF 3
