REMARK  5 active torsions:
REMARK  status: ('A' for Active; 'I' for Inactive)
REMARK    1  A    between atoms: C8_8  and  N1_14 
REMARK       I    between atoms: N1_14  and  C13_15 
REMARK    2  A    between atoms: C13_15  and  C14_17 
REMARK    3  A    between atoms: N2_21  and  C19_23 
REMARK    4  A    between atoms: C19_23  and  C20_24 
REMARK    5  A    between atoms: C21_26  and  C22_29 
ROOT
ATOM      1  C14 <0> d          -2.206   1.108  -1.183  0.00  0.00     0.104 C 
ATOM      2  C15 <0> d          -0.755   1.594  -1.231  0.00  0.00     0.017 C 
ATOM      3  C16 <0> d          -0.013   1.086   0.008  0.00  0.00     0.029 C 
ATOM      4  C17 <0> d          -0.731   1.580   1.266  0.00  0.00     0.235 C 
ATOM      5  N2  <0> d          -2.115   1.088   1.265  0.00  0.00    -0.063 N 
ATOM      6  C18 <0> d          -2.861   1.601   0.109  0.00  0.00     0.249 C 
ATOM      7  H31 <0> d          -2.082  -0.008   1.182  0.00  0.00     0.280 HD
ENDROOT
BRANCH   1   8
ATOM      8  C13 <0> d          -2.959   1.651  -2.369  0.00  0.00     0.224 C 
ATOM      9  N1  <0> d          -2.556   1.349  -3.619  0.00  0.00    -0.352 N 
ATOM     10  H17 <0> d          -1.678   0.704  -3.773  0.00  0.00     0.163 HD
ATOM     11  O2  <0> d          -3.927   2.362  -2.199  0.00  0.00    -0.273 OA
BRANCH   9  12
ATOM     12  C8  <0> d          -3.288   1.877  -4.773  0.00  0.00     0.123 C 
ATOM     13  C6  <0> d          -4.456   0.975  -5.083  0.00  0.00    -0.002 A 
ATOM     14  C5  <0> d          -4.781   0.638  -6.384  0.00  0.00     0.078 A 
ATOM     15  C7  <0> d          -5.212   0.479  -4.034  0.00  0.00     0.018 A 
ATOM     16  C4  <0> d          -5.870  -0.193  -6.630  0.00  0.00     0.038 A 
ATOM     17  O1  <0> d          -4.063   1.095  -7.443  0.00  0.00    -0.340 OA
ATOM     18  C3  <0> d          -6.619  -0.683  -5.582  0.00  0.00     0.009 A 
ATOM     19  C2  <0> d          -6.290  -0.347  -4.281  0.00  0.00    -0.061 A 
ATOM     20  C1  <0> d          -7.109  -0.882  -3.135  0.00  0.00     0.048 C 
ATOM     21  C10 <0> d          -3.201   2.214  -7.232  0.00  0.00     0.063 C 
ATOM     22  C9  <0> d          -2.353   1.943  -5.983  0.00  0.00     0.068 C 
ATOM     23  C11 <0> d          -4.039   3.477  -7.022  0.00  0.00     0.046 C 
ATOM     24  C12 <0> d          -2.288   2.398  -8.446  0.00  0.00     0.046 C 
ENDBRANCH   9  12
ENDBRANCH   1   8
BRANCH   5  25
ATOM     25  C19 <0> d          -2.794   1.427   2.523  0.00  0.00     0.323 C 
BRANCH  25  26
ATOM     26  C20 <0> d          -1.890   1.106   3.685  0.00  0.00     0.199 A 
ATOM     27  O3  <0> d          -1.824  -0.057   4.342  0.00  0.00    -0.194 OA
ATOM     28  N4  <0> d          -0.995   0.010   5.225  0.00  0.00    -0.105 NA
ATOM     29  C21 <0> d          -0.445   1.200   5.235  0.00  0.00     0.196 A 
ATOM     30  N3  <0> d          -1.017   1.912   4.236  0.00  0.00    -0.202 NA
BRANCH  29  31
ATOM     31  C22 <0> d           0.606   1.673   6.160  0.00  0.00     0.054 A 
ATOM     32  S1  <0> d           1.401   3.269   6.237  0.00  0.00    -0.098 SA
ATOM     33  C25 <0> d           2.493   2.941   7.611  0.00  0.00     0.050 A 
ATOM     34  C24 <0> d           2.185   1.654   7.918  0.00  0.00     0.009 A 
ATOM     35  C23 <0> d           1.219   1.002   7.185  0.00  0.00     0.023 A 
ENDBRANCH  29  31
ENDBRANCH  25  26
ENDBRANCH   5  25
TORSDOF 5
