REMARK  3 active torsions:
REMARK  status: ('A' for Active; 'I' for Inactive)
REMARK    1  A    between atoms: C3_3  and  C10_13 
REMARK    2  A    between atoms: C10_13  and  C11_14 
REMARK    3  A    between atoms: C11_14  and  N2_15 
ROOT
ATOM      1  C1  <0> d          -0.018   1.503   0.010  0.00  0.00     0.068 C 
ATOM      2  C2  <0> d           0.002  -0.004   0.002  0.00  0.00     0.013 A 
ATOM      3  C3  <0> d           0.007  -0.769  -1.101  0.00  0.00    -0.022 A 
ATOM      4  C4  <0> d           0.029  -2.164  -0.656  0.00  0.00     0.002 A 
ATOM      5  C5  <0> d           0.043  -3.393  -1.318  0.00  0.00     0.056 A 
ATOM      6  C6  <0> d           0.063  -4.561  -0.587  0.00  0.00     0.117 A 
ATOM      7  C7  <0> d           0.069  -4.519   0.802  0.00  0.00     0.044 A 
ATOM      8  C8  <0> d           0.056  -3.314   1.469  0.00  0.00     0.033 A 
ATOM      9  C9  <0> d           0.036  -2.123   0.750  0.00  0.00     0.043 A 
ATOM     10  N1  <0> d           0.024  -0.795   1.118  0.00  0.00    -0.359 N 
ATOM     11  H1  <0> d           0.028  -0.470   2.032  0.00  0.00     0.166 HD
ATOM     12  F1  <0> d           0.075  -5.753  -1.224  0.00  0.00    -0.206 F 
ENDROOT
BRANCH   3  13
ATOM     13  C10 <0> d          -0.006  -0.283  -2.528  0.00  0.00     0.069 C 
BRANCH  13  14
ATOM     14  C11 <0> d           1.431  -0.100  -3.018  0.00  0.00     0.240 C 
BRANCH  14  15
ATOM     15  N2  <0> d           1.418   0.373  -4.409  0.00  0.00    -0.067 N 
ATOM     16  C16 <0> d           2.796   0.665  -4.840  0.00  0.00     0.273 C 
ATOM     17  C15 <0> d           2.784   0.937  -6.315  0.00  0.00    -0.007 A 
ATOM     18  C14 <0> d           1.784   0.616  -7.147  0.00  0.00     0.064 A 
ATOM     19  C17 <0> d           3.816   1.597  -7.188  0.00  0.00     0.211 A 
ATOM     20  C13 <0> d           0.532  -0.080  -6.658  0.00  0.00     0.089 C 
ATOM     21  N4  <0> d           2.085   1.002  -8.403  0.00  0.00    -0.159 NA
ATOM     22  C12 <0> d           0.832  -0.662  -5.271  0.00  0.00     0.241 C 
ATOM     23  N3  <0> d           3.186   1.552  -8.523  0.00  0.00    -0.188 NA
ATOM     24  H20 <0> d           0.862   1.214  -4.472  0.00  0.00     0.280 HD
ENDBRANCH  14  15
ENDBRANCH  13  14
ENDBRANCH   3  13
TORSDOF 3
