REMARK  6 active torsions:
REMARK  status: ('A' for Active; 'I' for Inactive)
REMARK    1  A    between atoms: C2_2  and  C3_3 
REMARK    2  A    between atoms: C3_3  and  N1_4 
REMARK    3  A    between atoms: C9_10  and  N2_13 
REMARK       I    between atoms: N2_13  and  C12_14 
REMARK    4  A    between atoms: C12_14  and  C13_16 
REMARK    5  A    between atoms: C17_20  and  C19_22 
REMARK    6  A    between atoms: C19_22  and  S1_23 
ROOT
ATOM      1  N2  <0> d           2.010  -2.754  -5.457  0.00  0.00    -0.322 N 
ATOM      2  C12 <0> d           2.195  -2.378  -6.738  0.00  0.00     0.256 C 
ATOM      3  O1  <0> d           1.256  -1.970  -7.394  0.00  0.00    -0.267 OA
ATOM      4  H15 <0> d           2.771  -3.003  -4.910  0.00  0.00     0.169 HD
ENDROOT
BRANCH   1   5
ATOM      5  C9  <0> d           0.720  -2.784  -4.917  0.00  0.00     0.043 A 
ATOM      6  C8  <0> d          -0.380  -2.942  -5.750  0.00  0.00     0.030 A 
ATOM      7  C7  <0> d          -1.652  -2.972  -5.213  0.00  0.00     0.003 A 
ATOM      8  C6  <0> d          -1.831  -2.845  -3.848  0.00  0.00     0.009 A 
ATOM      9  C5  <0> d          -0.739  -2.688  -3.015  0.00  0.00    -0.022 A 
ATOM     10  C4  <0> d          -0.632  -2.529  -1.515  0.00  0.00     0.274 C 
ATOM     11  C10 <0> d           0.537  -2.657  -3.547  0.00  0.00     0.002 A 
ATOM     12  N1  <0> d           0.721  -1.982  -1.267  0.00  0.00    -0.063 N 
ATOM     13  C11 <0> d           1.520  -2.477  -2.412  0.00  0.00     0.276 C 
ATOM     14  H25 <0> d           1.093  -2.334  -0.398  0.00  0.00     0.280 HD
BRANCH  12  15
ATOM     15  C3  <0> d           0.690  -0.514  -1.257  0.00  0.00     0.235 C 
BRANCH  15  16
ATOM     16  C2  <0> d          -0.033  -0.028   0.001  0.00  0.00     0.023 C 
ATOM     17  C1  <0> d          -0.066   1.502   0.011  0.00  0.00     0.007 C 
ENDBRANCH  15  16
ENDBRANCH  12  15
ENDBRANCH   1   5
BRANCH   2  18
ATOM     18  C13 <0> d           3.539  -2.463  -7.346  0.00  0.00     0.032 A 
ATOM     19  C18 <0> d           3.735  -2.075  -8.673  0.00  0.00     0.025 A 
ATOM     20  C17 <0> d           4.994  -2.150  -9.232  0.00  0.00    -0.046 A 
ATOM     21  C16 <0> d           6.059  -2.621  -8.485  0.00  0.00     0.008 A 
ATOM     22  C15 <0> d           5.871  -3.013  -7.172  0.00  0.00     0.002 A 
ATOM     23  C14 <0> d           4.619  -2.936  -6.598  0.00  0.00     0.017 A 
BRANCH  20  24
ATOM     24  C19 <0> d           5.207  -1.725 -10.662  0.00  0.00     0.146 C 
BRANCH  24  25
ATOM     25  S1  <0> d           4.957  -3.148 -11.760  0.00  0.00     0.015 S 
ATOM     26  O2  <0> d           3.611  -3.593 -11.657  0.00  0.00    -0.258 OA
ATOM     27  C20 <0> d           5.247  -2.477 -13.420  0.00  0.00     0.127 C 
ENDBRANCH  24  25
ENDBRANCH  20  24
ENDBRANCH   2  18
TORSDOF 6
