REMARK  5 active torsions:
REMARK  status: ('A' for Active; 'I' for Inactive)
REMARK    1  A    between atoms: C6_6  and  O1_7 
REMARK    2  A    between atoms: O1_7  and  C7_8 
REMARK    3  A    between atoms: C8_9  and  N4_25 
REMARK    4  A    between atoms: C9_10  and  N3_14 
REMARK    5  A    between atoms: N3_14  and  C11_15 
ROOT
ATOM      1  C7  <0> d          -1.081  -2.048  -0.394  0.00  0.00     0.201 A 
ATOM      2  C8  <0> d          -2.251  -2.806  -0.352  0.00  0.00     0.126 A 
ATOM      3  C9  <0> d          -2.142  -4.194  -0.469  0.00  0.00     0.160 A 
ATOM      4  N1  <0> d          -0.935  -4.736  -0.614  0.00  0.00    -0.222 NA
ATOM      5  C10 <0> d           0.145  -3.982  -0.648  0.00  0.00     0.238 A 
ATOM      6  N2  <0> d           0.085  -2.669  -0.547  0.00  0.00    -0.215 NA
ENDROOT
BRANCH   3   7
ATOM      7  N3  <0> d          -3.276  -4.996  -0.434  0.00  0.00    -0.339 N 
ATOM      8  H6  <0> d          -4.157  -4.590  -0.404  0.00  0.00     0.167 HD
BRANCH   7   9
ATOM      9  C11 <0> d          -3.148  -6.390  -0.441  0.00  0.00     0.036 A 
ATOM     10  C16 <0> d          -2.049  -6.989   0.157  0.00  0.00     0.069 A 
ATOM     11  C15 <0> d          -1.924  -8.370   0.155  0.00  0.00     0.104 A 
ATOM     12  C14 <0> d          -2.898  -9.152  -0.455  0.00  0.00     0.102 A 
ATOM     13  O2  <0> d          -0.840  -8.944   0.744  0.00  0.00    -0.346 OA
ATOM     14  C13 <0> d          -3.993  -8.549  -1.058  0.00  0.00     0.042 A 
ATOM     15  O3  <0> d          -2.794 -10.510  -0.468  0.00  0.00    -0.346 OA
ATOM     16  C12 <0> d          -4.118  -7.174  -1.052  0.00  0.00     0.032 A 
ATOM     17  C18 <0> d          -1.502 -11.059  -0.187  0.00  0.00     0.202 C 
ATOM     18  C17 <0> d          -0.933 -10.340   1.044  0.00  0.00     0.202 C 
ENDBRANCH   7   9
ENDBRANCH   3   7
BRANCH   2  19
ATOM     19  N4  <0> d          -3.502  -2.191  -0.198  0.00  0.00    -0.393 N 
ATOM     20  H14 <0> d          -3.563  -1.226  -0.118  0.00  0.00     0.156 HD
ATOM     21  H15 <0> d          -4.308  -2.731  -0.171  0.00  0.00     0.156 HD
ENDBRANCH   2  19
BRANCH   1  22
ATOM     22  O1  <0> d          -1.132  -0.697  -0.285  0.00  0.00    -0.290 OA
BRANCH  22  23
ATOM     23  C6  <0> d           0.023   0.001  -0.450  0.00  0.00     0.078 A 
ATOM     24  C1  <0> d           0.583   0.129  -1.713  0.00  0.00     0.039 A 
ATOM     25  C2  <0> d           1.756   0.839  -1.879  0.00  0.00     0.022 A 
ATOM     26  C3  <0> d           2.374   1.421  -0.786  0.00  0.00     0.011 A 
ATOM     27  C4  <0> d           1.817   1.294   0.474  0.00  0.00     0.022 A 
ATOM     28 Br1  <0> d           3.981   2.390  -1.015  0.00  0.00    -0.051 Br
ATOM     29  C5  <0> d           0.644   0.586   0.644  0.00  0.00     0.039 A 
ENDBRANCH  22  23
ENDBRANCH   1  22
TORSDOF 5
