REMARK  5 active torsions:
REMARK  status: ('A' for Active; 'I' for Inactive)
REMARK    1  A    between atoms: O1_2  and  C2_3 
REMARK    2  A    between atoms: C5_6  and  C8_9 
REMARK    3  A    between atoms: C8_9  and  N1_10 
REMARK    4  A    between atoms: N2_13  and  C13_16 
REMARK    5  A    between atoms: C13_16  and  C14_17 
ROOT
ATOM      1  N1  <0> d          -0.018   1.465   0.010  0.00  0.00     0.095 N 
ATOM      2  C9  <0> d          -0.799   1.987  -1.120  0.00  0.00     0.300 C 
ATOM      3  C10 <0> d          -0.862   3.514  -1.031  0.00  0.00     0.265 C 
ATOM      4  N2  <0> d           0.503   4.059  -1.041  0.00  0.00    -0.061 N 
ATOM      5  C11 <0> d           1.284   3.537   0.089  0.00  0.00     0.265 C 
ATOM      6  C12 <0> d           1.347   2.010  -0.000  0.00  0.00     0.300 C 
ATOM      7  H25 <0> d           0.992   3.734  -1.971  0.00  0.00     0.280 HD
ENDROOT
BRANCH   4   8
ATOM      8  C13 <0> d           0.483   5.528  -1.033  0.00  0.00     0.313 C 
BRANCH   8   9
ATOM      9  C14 <0> d          -0.517   6.022  -2.046  0.00  0.00     0.134 A 
ATOM     10  N4  <0> d          -0.146   6.157  -3.290  0.00  0.00    -0.193 NA
ATOM     11  C23 <0> d          -0.997   6.588  -4.237  0.00  0.00     0.304 A 
ATOM     12  C22 <0> d          -2.329   6.917  -3.873  0.00  0.00     0.173 A 
ATOM     13  O3  <0> d          -0.627   6.702  -5.395  0.00  0.00    -0.263 OA
ATOM     14  C15 <0> d          -2.693   6.770  -2.546  0.00  0.00     0.086 A 
ATOM     15  O2  <0> d          -3.390   7.370  -4.572  0.00  0.00    -0.302 OA
ATOM     16  N3  <0> d          -1.767   6.318  -1.642  0.00  0.00    -0.340 N 
ATOM     17  C16 <0> d          -4.099   7.175  -2.466  0.00  0.00     0.028 A 
ATOM     18  H24 <0> d          -2.046   6.197  -0.585  0.00  0.00     0.167 HD
ATOM     19  C21 <0> d          -4.465   7.538  -3.774  0.00  0.00     0.089 A 
ATOM     20  C17 <0> d          -5.032   7.255  -1.432  0.00  0.00     0.017 A 
ATOM     21  C20 <0> d          -5.762   7.974  -4.018  0.00  0.00     0.038 A 
ATOM     22  C19 <0> d          -6.669   8.046  -2.983  0.00  0.00     0.003 A 
ATOM     23  C18 <0> d          -6.303   7.687  -1.695  0.00  0.00     0.001 A 
ENDBRANCH   8   9
ENDBRANCH   4   8
BRANCH   1  24
ATOM     24  C8  <0> d           0.002  -0.004   0.002  0.00  0.00     0.311 C 
BRANCH  24  25
ATOM     25  C5  <0> d          -1.388  -0.527   0.259  0.00  0.00    -0.030 A 
ATOM     26  C4  <0> d          -2.244  -0.763  -0.801  0.00  0.00     0.011 A 
ATOM     27  C3  <0> d          -3.518  -1.242  -0.568  0.00  0.00     0.037 A 
ATOM     28  C2  <0> d          -3.939  -1.486   0.731  0.00  0.00     0.068 A 
ATOM     29  C7  <0> d          -3.079  -1.249   1.793  0.00  0.00     0.037 A 
ATOM     30  C6  <0> d          -1.803  -0.775   1.554  0.00  0.00     0.011 A 
BRANCH  28  31
ATOM     31  O1  <0> d          -5.193  -1.957   0.963  0.00  0.00    -0.356 OA
ATOM     32  C1  <0> d          -5.558  -2.186   2.326  0.00  0.00     0.210 C 
ENDBRANCH  28  31
ENDBRANCH  24  25
ENDBRANCH   1  24
TORSDOF 5
