REMARK  5 active torsions:
REMARK  status: ('A' for Active; 'I' for Inactive)
REMARK    1  A    between atoms: N2_9  and  C8_10 
REMARK    2  A    between atoms: C11_13  and  N4_16 
REMARK       I    between atoms: N4_16  and  C13_17 
REMARK    3  A    between atoms: C13_17  and  C14_19 
REMARK    4  A    between atoms: C14_19  and  C15_20 
REMARK    5  A    between atoms: C15_20  and  N5_21 
ROOT
ATOM      1  N4  <0> d          -3.497  -2.147  -2.691  0.00  0.00    -0.326 N 
ATOM      2  C13 <0> d          -3.034  -1.678  -1.515  0.00  0.00     0.223 C 
ATOM      3  O1  <0> d          -3.656  -1.883  -0.493  0.00  0.00    -0.273 OA
ATOM      4  H9  <0> d          -2.980  -1.889  -3.627  0.00  0.00     0.169 HD
ENDROOT
BRANCH   1   5
ATOM      5  C11 <0> d          -4.635  -2.962  -2.720  0.00  0.00     0.052 A 
ATOM      6  C10 <0> d          -4.905  -3.836  -1.668  0.00  0.00     0.035 A 
ATOM      7  C9  <0> d          -6.043  -4.619  -1.738  0.00  0.00     0.053 A 
ATOM      8  C8  <0> d          -6.869  -4.517  -2.852  0.00  0.00     0.135 A 
ATOM      9  N3  <0> d          -6.579  -3.680  -3.835  0.00  0.00    -0.241 NA
ATOM     10  C12 <0> d          -5.505  -2.915  -3.800  0.00  0.00     0.148 A 
BRANCH   8  11
ATOM     11  N2  <0> d          -8.018  -5.308  -2.934  0.00  0.00    -0.288 N 
ATOM     12  C4  <0> d          -8.935  -5.317  -3.969  0.00  0.00     0.070 A 
ATOM     13  C3  <0> d          -9.039  -4.637  -5.174  0.00  0.00     0.032 A 
ATOM     14  C5  <0> d          -9.910  -6.265  -3.615  0.00  0.00     0.085 A 
ATOM     15  C2  <0> d         -10.105  -4.889  -6.012  0.00  0.00     0.002 A 
ATOM     16  C1  <0> d         -11.070  -5.822  -5.660  0.00  0.00     0.002 A 
ATOM     17  C6  <0> d         -10.982  -6.504  -4.479  0.00  0.00     0.034 A 
ATOM     18  N1  <0> d          -9.552  -6.769  -2.406  0.00  0.00    -0.241 NA
ATOM     19  C7  <0> d          -8.447  -6.211  -2.007  0.00  0.00     0.217 A 
ENDBRANCH   8  11
ENDBRANCH   1   5
BRANCH   2  20
ATOM     20  C14 <0> d          -1.744  -0.900  -1.468  0.00  0.00     0.123 C 
BRANCH  20  21
ATOM     21  C15 <0> d          -1.448  -0.488  -0.025  0.00  0.00     0.141 C 
BRANCH  21  22
ATOM     22  N5  <0> d          -0.194   0.268   0.020  0.00  0.00    -0.313 N 
ATOM     23  C23 <0> d          -0.198   1.612  -0.121  0.00  0.00     0.248 C 
ATOM     24  C22 <0> d           1.106   2.368  -0.111  0.00  0.00     0.279 C 
ATOM     25  O3  <0> d          -1.246   2.206  -0.261  0.00  0.00    -0.271 OA
ATOM     26  O2  <0> d           2.046   1.694   0.730  0.00  0.00    -0.340 OA
ATOM     27  C21 <0> d           2.153   0.348   0.570  0.00  0.00     0.096 A 
ATOM     28  C16 <0> d           1.028  -0.392   0.209  0.00  0.00     0.070 A 
ATOM     29  C20 <0> d           3.366  -0.291   0.761  0.00  0.00     0.039 A 
ATOM     30  C17 <0> d           1.126  -1.763   0.041  0.00  0.00     0.033 A 
ATOM     31  C18 <0> d           2.341  -2.394   0.234  0.00  0.00     0.002 A 
ATOM     32  C19 <0> d           3.457  -1.660   0.593  0.00  0.00     0.003 A 
ENDBRANCH  21  22
ENDBRANCH  20  21
ENDBRANCH   2  20
TORSDOF 5
