REMARK  6 active torsions:
REMARK  status: ('A' for Active; 'I' for Inactive)
REMARK    1  A    between atoms: O1_2  and  C2_3 
REMARK    2  A    between atoms: C2_3  and  C3_4 
REMARK    3  A    between atoms: C3_4  and  N1_5 
REMARK    4  A    between atoms: C8_11  and  C12_18 
REMARK    5  A    between atoms: C13_20  and  C14_23 
REMARK    6  A    between atoms: C17_26  and  O5_29 
ROOT
ATOM      1  N1  <0> d           1.401  -2.532  -0.162  0.00  0.00    -0.264 N 
ATOM      2  C4  <0> d           0.780  -2.643  -1.356  0.00  0.00     0.264 A 
ATOM      3  O2  <0> d          -0.405  -2.397  -1.468  0.00  0.00    -0.267 OA
ATOM      4  C5  <0> d           1.576  -3.071  -2.521  0.00  0.00     0.059 A 
ATOM      5  C6  <0> d           1.009  -3.209  -3.785  0.00  0.00     0.020 A 
ATOM      6  C7  <0> d           1.797  -3.612  -4.843  0.00  0.00     0.013 A 
ATOM      7  C8  <0> d           3.144  -3.879  -4.652  0.00  0.00    -0.005 A 
ATOM      8  C9  <0> d           3.719  -3.746  -3.404  0.00  0.00     0.042 A 
ATOM      9  C10 <0> d           2.942  -3.341  -2.329  0.00  0.00     0.052 A 
ATOM     10  N2  <0> d           3.480  -3.195  -1.058  0.00  0.00    -0.307 N 
ATOM     11  H1  <0> d           4.421  -3.377  -0.911  0.00  0.00     0.170 HD
ATOM     12  C11 <0> d           2.711  -2.796  -0.031  0.00  0.00     0.330 A 
ATOM     13  O3  <0> d           3.221  -2.675   1.066  0.00  0.00    -0.246 OA
ENDROOT
BRANCH   7  14
ATOM     14  C12 <0> d           3.990  -4.319  -5.819  0.00  0.00     0.286 A 
ATOM     15  O4  <0> d           4.512  -3.176  -6.514  0.00  0.00    -0.248 OA
ATOM     16  N4  <0> d           3.990  -3.264  -7.832  0.00  0.00    -0.247 N 
ATOM     17  C13 <0> d           3.205  -4.386  -7.927  0.00  0.00     0.133 A 
ATOM     18  H13 <0> d           4.160  -2.633  -8.549  0.00  0.00     0.196 HD
ATOM     19  N3  <0> d           3.167  -5.034  -6.802  0.00  0.00    -0.342 N 
ATOM     20  H21 <0> d           2.676  -5.854  -6.639  0.00  0.00     0.164 HD
BRANCH  17  21
ATOM     21  C14 <0> d           2.494  -4.805  -9.155  0.00  0.00     0.009 A 
ATOM     22  C19 <0> d           3.021  -4.492 -10.409  0.00  0.00     0.018 A 
ATOM     23  C18 <0> d           2.358  -4.888 -11.550  0.00  0.00     0.037 A 
ATOM     24  C17 <0> d           1.163  -5.589 -11.454  0.00  0.00     0.068 A 
ATOM     25  C16 <0> d           0.633  -5.898 -10.207  0.00  0.00     0.037 A 
ATOM     26  C15 <0> d           1.293  -5.510  -9.061  0.00  0.00     0.018 A 
BRANCH  24  27
ATOM     27  O5  <0> d           0.510  -5.973 -12.581  0.00  0.00    -0.356 OA
ATOM     28  C20 <0> d           1.110  -5.623 -13.829  0.00  0.00     0.210 C 
ENDBRANCH  24  27
ENDBRANCH  17  21
ENDBRANCH   7  14
BRANCH   1  29
ATOM     29  C3  <0> d           0.633  -2.108   1.011  0.00  0.00     0.163 C 
BRANCH  29  30
ATOM     30  C2  <0> d           0.673  -0.582   1.123  0.00  0.00     0.187 C 
BRANCH  30  31
ATOM     31  O1  <0> d           0.002  -0.004   0.002  0.00  0.00    -0.394 OA
ATOM     32  C1  <0> d          -0.017   1.425   0.010  0.00  0.00     0.201 C 
ENDBRANCH  30  31
ENDBRANCH  29  30
ENDBRANCH   1  29
TORSDOF 6
