REMARK  2 active torsions:
REMARK  status: ('A' for Active; 'I' for Inactive)
REMARK    1  A    between atoms: C6_6  and  N1_9 
REMARK    2  A    between atoms: C11_13  and  C13_16 
ROOT
ATOM      1  N1  <0> d           3.055   8.664  -0.365  0.00  0.00    -0.325 N 
ATOM      2  C9  <0> d           4.312   7.906  -0.432  0.00  0.00     0.215 A 
ATOM      3  C10 <0> d           3.899   6.453  -0.328  0.00  0.00     0.185 A 
ATOM      4  O1  <0> d           4.628   5.480  -0.341  0.00  0.00    -0.290 OA
ATOM      5  C11 <0> d           2.497   6.462  -0.213  0.00  0.00     0.101 A 
ATOM      6  C12 <0> d           2.033   7.775  -0.244  0.00  0.00     0.119 A 
ATOM      7  N2  <0> d           0.717   8.125  -0.161  0.00  0.00    -0.384 N 
ATOM      8  H12 <0> d           0.037   7.439  -0.073  0.00  0.00     0.157 HD
ATOM      9  H13 <0> d           0.462   9.060  -0.189  0.00  0.00     0.157 HD
ENDROOT
BRANCH   5  10
ATOM     10  C13 <0> d           1.649   5.266  -0.086  0.00  0.00     0.148 A 
ATOM     11  N4  <0> d           1.742   4.336   0.916  0.00  0.00    -0.333 N 
ATOM     12  C19 <0> d           0.775   3.376   0.675  0.00  0.00     0.064 A 
ATOM     13  C20 <0> d           2.689   4.354   2.034  0.00  0.00     0.158 C 
ATOM     14  C14 <0> d           0.112   3.772  -0.500  0.00  0.00     0.086 A 
ATOM     15  C18 <0> d           0.391   2.214   1.327  0.00  0.00     0.032 A 
ATOM     16  N3  <0> d           0.688   4.928  -0.916  0.00  0.00    -0.228 NA
ATOM     17  C15 <0> d          -0.932   2.987  -0.999  0.00  0.00     0.034 A 
ATOM     18  C16 <0> d          -1.295   1.834  -0.341  0.00  0.00     0.002 A 
ATOM     19  C17 <0> d          -0.641   1.450   0.821  0.00  0.00     0.002 A 
ENDBRANCH   5  10
BRANCH   1  20
ATOM     20  C6  <0> d           2.931  10.056  -0.423  0.00  0.00     0.043 A 
ATOM     21  C5  <0> d           2.771  10.690  -1.648  0.00  0.00     0.030 A 
ATOM     22  C4  <0> d           2.648  12.065  -1.701  0.00  0.00     0.003 A 
ATOM     23  C3  <0> d           2.686  12.809  -0.537  0.00  0.00     0.007 A 
ATOM     24  C2  <0> d           2.845  12.181   0.685  0.00  0.00    -0.054 A 
ATOM     25  C1  <0> d           2.885  12.996   1.952  0.00  0.00     0.049 C 
ATOM     26  C7  <0> d           2.962  10.806   0.746  0.00  0.00    -0.029 A 
ATOM     27  C8  <0> d           3.130  10.122   2.078  0.00  0.00     0.051 C 
ENDBRANCH   1  20
TORSDOF 2
