REMARK  5 active torsions:
REMARK  status: ('A' for Active; 'I' for Inactive)
REMARK    1  A    between atoms: C2_2  and  C3_3 
REMARK    2  A    between atoms: N1_8  and  C8_9 
REMARK    3  A    between atoms: C8_9  and  C9_10 
REMARK    4  A    between atoms: C8_9  and  C10_12 
REMARK    5  A    between atoms: C9_10  and  N2_11 
ROOT
ATOM      1  C8  <0> d          -2.096   1.135  -1.577  0.00  0.00     0.270 C 
ENDROOT
BRANCH   1   2
ATOM      2  N1  <0> d          -1.678  -0.224  -1.209  0.00  0.00    -0.055 N 
ATOM      3  C3  <0> d          -0.881  -0.173   0.023  0.00  0.00     0.189 C 
ATOM      4  C4  <0> d          -0.375  -1.575   0.366  0.00  0.00     0.033 C 
ATOM      5  C5  <0> d          -1.572  -2.509   0.569  0.00  0.00     0.004 C 
ATOM      6  C6  <0> d          -2.437  -2.496  -0.696  0.00  0.00     0.028 C 
ATOM      7  C7  <0> d          -2.866  -1.060  -0.999  0.00  0.00     0.236 C 
ATOM      8  H21 <0> d          -1.120  -0.615  -1.953  0.00  0.00     0.281 HD
BRANCH   3   9
ATOM      9  C2  <0> d           0.311   0.764  -0.180  0.00  0.00     0.029 C 
ATOM     10  C1  <0> d           1.042   0.955   1.150  0.00  0.00     0.007 C 
ENDBRANCH   3   9
ENDBRANCH   1   2
BRANCH   1  11
ATOM     11  C9  <0> d          -3.007   1.074  -2.805  0.00  0.00     0.269 C 
BRANCH  11  12
ATOM     12  N2  <0> d          -2.303   0.397  -3.902  0.00  0.00    -0.077 N 
ATOM     13  H18 <0> d          -1.413   0.847  -4.059  0.00  0.00     0.274 HD
ATOM     14  H19 <0> d          -2.153  -0.571  -3.659  0.00  0.00     0.274 HD
ATOM     15  H22 <0> d          -2.859   0.451  -4.742  0.00  0.00     0.274 HD
ENDBRANCH  11  12
ENDBRANCH   1  11
BRANCH   1  16
ATOM     16  C10 <0> d          -2.846   1.759  -0.427  0.00  0.00     0.088 A 
ATOM     17  O1  <0> d          -3.842   1.182   0.266  0.00  0.00    -0.304 OA
ATOM     18  C13 <0> d          -4.272   2.026   1.219  0.00  0.00     0.139 A 
ATOM     19  C12 <0> d          -3.553   3.162   1.136  0.00  0.00     0.054 A 
ATOM     20 Br1  <0> d          -5.655   1.681   2.461  0.00  0.00    -0.021 Br
ATOM     21  C11 <0> d          -2.634   2.988   0.075  0.00  0.00     0.057 A 
ATOM     22 Br2  <0> d          -3.736   4.694   2.229  0.00  0.00    -0.048 Br
ENDBRANCH   1  16
TORSDOF 5
