REMARK  2 active torsions:
REMARK  status: ('A' for Active; 'I' for Inactive)
REMARK    1  A    between atoms: C6_7  and  C12_14 
REMARK    2  A    between atoms: N4_18  and  C16_21 
ROOT
ATOM      1  C12 <0> d           5.384  -2.566  -0.669  0.00  0.00     0.100 A 
ATOM      2  C13 <0> d           6.004  -2.661  -1.879  0.00  0.00     0.197 A 
ATOM      3  N3  <0> d           7.099  -3.477  -2.015  0.00  0.00    -0.285 N 
ATOM      4  C14 <0> d           7.559  -4.180  -0.964  0.00  0.00     0.336 A 
ATOM      5  N4  <0> d           6.960  -4.100   0.238  0.00  0.00    -0.230 N 
ATOM      6  C15 <0> d           5.886  -3.306   0.416  0.00  0.00     0.269 A 
ATOM      7  O1  <0> d           5.351  -3.233   1.508  0.00  0.00    -0.267 OA
ATOM      8  O2  <0> d           8.530  -4.899  -1.103  0.00  0.00    -0.246 OA
ATOM      9  O3  <0> d           5.545  -1.958  -2.936  0.00  0.00    -0.171 OA
ATOM     10  H16 <0> d           7.544  -3.548  -2.874  0.00  0.00     0.172 HD
ENDROOT
BRANCH   1  11
ATOM     11  C6  <0> d           4.180  -1.676  -0.495  0.00  0.00     0.289 C 
ATOM     12  C5  <0> d           4.518  -0.535   0.468  0.00  0.00     0.150 C 
ATOM     13  N1  <0> d           5.408   0.457  -0.125  0.00  0.00    -0.378 N 
ATOM     14  C9  <0> d           3.222   0.209   0.754  0.00  0.00    -0.041 C 
ATOM     15  C4  <0> d           4.835   1.637  -0.037  0.00  0.00     0.039 A 
ATOM     16  H17 <0> d           6.276   0.276  -0.519  0.00  0.00     0.160 HD
ATOM     17  C3  <0> d           5.291   2.936  -0.388  0.00  0.00     0.030 A 
ATOM     18  C10 <0> d           3.459   1.502   0.503  0.00  0.00    -0.005 A 
ATOM     19  C2  <0> d           4.490   4.010  -0.224  0.00  0.00     0.002 A 
ATOM     20  C1  <0> d           3.190   3.911   0.291  0.00  0.00     0.001 A 
ATOM     21  C11 <0> d           2.656   2.723   0.653  0.00  0.00     0.014 A 
ATOM     22  C8  <0> d           1.947  -0.519   1.115  0.00  0.00     0.067 C 
ATOM     23  C7  <0> d           1.811  -1.700   0.136  0.00  0.00     0.275 C 
ATOM     24  N2  <0> d           3.068  -2.451   0.076  0.00  0.00     0.095 N 
ATOM     25  H6  <0> d           2.945  -3.324  -0.415  0.00  0.00     0.316 HD
ENDBRANCH   1  11
BRANCH   5  26
ATOM     26  C16 <0> d           7.461  -4.844   1.316  0.00  0.00     0.047 A 
ATOM     27  C21 <0> d           8.433  -4.301   2.144  0.00  0.00     0.031 A 
ATOM     28  C20 <0> d           8.921  -5.034   3.208  0.00  0.00     0.021 A 
ATOM     29  C19 <0> d           8.449  -6.313   3.442  0.00  0.00     0.011 A 
ATOM     30  C18 <0> d           7.484  -6.860   2.614  0.00  0.00     0.021 A 
ATOM     31 Br1  <0> d           9.124  -7.317   4.895  0.00  0.00    -0.051 Br
ATOM     32  C17 <0> d           6.989  -6.128   1.552  0.00  0.00     0.031 A 
ENDBRANCH   5  26
TORSDOF 2
