REMARK  4 active torsions:
REMARK  status: ('A' for Active; 'I' for Inactive)
REMARK    1  A    between atoms: C7_7  and  O1_8 
REMARK    2  A    between atoms: O1_8  and  C8_9 
REMARK    3  A    between atoms: C8_9  and  C9_10 
REMARK    4  A    between atoms: C12_16  and  C13_17 
ROOT
ATOM      1  C9  <0> d           0.644  -0.482   5.846  0.00  0.00     0.123 A 
ATOM      2  N1  <0> d           0.834   0.779   5.579  0.00  0.00    -0.159 NA
ATOM      3  N2  <0> d           0.384   1.717   6.486  0.00  0.00    -0.189 N 
ATOM      4  C10 <0> d           0.427   3.117   6.303  0.00  0.00     0.162 C 
ATOM      5  N3  <0> d           0.489   3.686   5.129  0.00  0.00    -0.281 NA
ATOM      6  C11 <0> d           0.395   3.880   7.583  0.00  0.00     0.082 C 
ATOM      7  C12 <0> d           1.060   5.086   7.734  0.00  0.00     0.030 C 
ATOM      8  C21 <0> d          -0.392   3.275   8.688  0.00  0.00     0.283 C 
ATOM      9  O2  <0> d          -0.858   3.967   9.579  0.00  0.00    -0.265 OA
ATOM     10  N5  <0> d          -0.578   1.943   8.680  0.00  0.00    -0.182 NA
ATOM     11  C22 <0> d          -0.174   1.237   7.646  0.00  0.00     0.201 A 
ATOM     12  S1  <0> d          -0.195  -0.418   7.419  0.00  0.00    -0.031 SA
ATOM     13  H10 <0> d           0.507   3.142   4.327  0.00  0.00     0.188 HD
ENDROOT
BRANCH   7  14
ATOM     14  C13 <0> d           1.472   5.504   9.004  0.00  0.00    -0.027 A 
ATOM     15  C20 <0> d           1.436   4.703  10.287  0.00  0.00     0.159 A 
ATOM     16  N4  <0> d           1.976   5.582  11.329  0.00  0.00    -0.385 N 
ATOM     17  C19 <0> d           2.290   6.737  10.803  0.00  0.00     0.039 A 
ATOM     18  H18 <0> d           2.081   5.345  12.264  0.00  0.00     0.160 HD
ATOM     19  C14 <0> d           1.996   6.744   9.353  0.00  0.00    -0.002 A 
ATOM     20  C18 <0> d           2.856   7.960  11.389  0.00  0.00     0.030 A 
ATOM     21  C15 <0> d           2.270   7.913   8.611  0.00  0.00     0.014 A 
ATOM     22  C16 <0> d           2.792   9.003   9.221  0.00  0.00     0.001 A 
ATOM     23  C17 <0> d           3.082   9.028  10.591  0.00  0.00     0.002 A 
ENDBRANCH   7  14
BRANCH   1  24
ATOM     24  C8  <0> d           1.030  -1.689   5.030  0.00  0.00     0.244 C 
BRANCH  24  25
ATOM     25  O1  <0> d           1.688  -1.265   3.834  0.00  0.00    -0.344 OA
BRANCH  25  26
ATOM     26  C7  <0> d           2.103  -2.237   2.981  0.00  0.00     0.075 A 
ATOM     27  C2  <0> d           2.749  -1.897   1.801  0.00  0.00    -0.029 A 
ATOM     28  C1  <0> d           2.989  -0.448   1.464  0.00  0.00     0.051 C 
ATOM     29  C3  <0> d           3.176  -2.888   0.938  0.00  0.00     0.009 A 
ATOM     30  C4  <0> d           2.955  -4.217   1.246  0.00  0.00     0.001 A 
ATOM     31  C5  <0> d           2.307  -4.559   2.419  0.00  0.00     0.003 A 
ATOM     32  C6  <0> d           1.878  -3.572   3.285  0.00  0.00     0.037 A 
ENDBRANCH  25  26
ENDBRANCH  24  25
ENDBRANCH   1  24
TORSDOF 4
