REMARK  7 active torsions:
REMARK  status: ('A' for Active; 'I' for Inactive)
REMARK    1  A    between atoms: C2_2  and  C3_3 
REMARK    2  A    between atoms: C6_6  and  S2_8 
REMARK    3  A    between atoms: S2_8  and  N1_11 
REMARK    4  A    between atoms: N1_11  and  C7_12 
REMARK    5  A    between atoms: C10_15  and  C13_18 
REMARK    6  A    between atoms: C14_19  and  C15_20 
REMARK    7  A    between atoms: C15_20  and  N2_21 
ROOT
ATOM      1  C7  <0> d           4.264  -3.979   2.604  0.00  0.00     0.042 A 
ATOM      2  C8  <0> d           3.843  -3.318   1.455  0.00  0.00     0.031 A 
ATOM      3  C9  <0> d           4.260  -3.754   0.216  0.00  0.00     0.023 A 
ATOM      4  C10 <0> d           5.106  -4.860   0.115  0.00  0.00     0.018 A 
ATOM      5  C11 <0> d           5.527  -5.521   1.270  0.00  0.00     0.023 A 
ATOM      6  C12 <0> d           5.111  -5.078   2.506  0.00  0.00     0.031 A 
ENDROOT
BRANCH   1   7
ATOM      7  N1  <0> d           3.841  -3.536   3.857  0.00  0.00    -0.280 N 
ATOM      8  H8  <0> d           3.163  -4.031   4.343  0.00  0.00     0.179 HD
BRANCH   7   9
ATOM      9  S2  <0> d           4.495  -2.164   4.515  0.00  0.00     0.269 S 
ATOM     10  O1  <0> d           3.904  -2.006   5.797  0.00  0.00    -0.200 OA
ATOM     11  O2  <0> d           4.423  -1.159   3.513  0.00  0.00    -0.200 OA
BRANCH   9  12
ATOM     12  C6  <0> d           6.207  -2.482   4.786  0.00  0.00     0.120 A 
ATOM     13  C5  <0> d           7.246  -2.351   3.925  0.00  0.00     0.034 A 
ATOM     14  C4  <0> d           8.521  -2.662   4.361  0.00  0.00     0.016 A 
ATOM     15  C3  <0> d           8.694  -3.088   5.636  0.00  0.00    -0.016 A 
ATOM     16  S1  <0> d           7.022  -3.067   6.262  0.00  0.00    -0.081 SA
BRANCH  15  17
ATOM     17  C2  <0> d           9.966  -3.484   6.339  0.00  0.00     0.041 C 
ATOM     18  C1  <0> d          10.579  -2.256   7.015  0.00  0.00     0.010 C 
ENDBRANCH  15  17
ENDBRANCH   9  12
ENDBRANCH   7   9
ENDBRANCH   1   7
BRANCH   4  19
ATOM     19  C13 <0> d           5.540  -5.315  -1.172  0.00  0.00    -0.065 C 
ATOM     20  C14 <0> d           5.897  -5.688  -2.226  0.00  0.00    -0.074 C 
BRANCH  20  21
ATOM     21  C15 <0> d           6.343  -6.156  -3.549  0.00  0.00     0.323 C 
BRANCH  21  22
ATOM     22  N2  <0> d           7.218  -7.324  -3.385  0.00  0.00    -0.069 N 
ATOM     23  H15 <0> d           8.021  -7.068  -2.830  0.00  0.00     0.275 HD
ATOM     24  H16 <0> d           6.710  -8.062  -2.921  0.00  0.00     0.275 HD
ATOM     25  H17 <0> d           7.524  -7.645  -4.291  0.00  0.00     0.275 HD
ENDBRANCH  21  22
ENDBRANCH  20  21
ENDBRANCH   4  19
TORSDOF 7
