REMARK  5 active torsions:
REMARK  status: ('A' for Active; 'I' for Inactive)
REMARK    1  A    between atoms: C6_6  and  S1_8 
REMARK    2  A    between atoms: S1_8  and  N1_11 
REMARK    3  A    between atoms: N1_11  and  C8_12 
REMARK    4  A    between atoms: C8_12  and  C9_13 
REMARK    5  A    between atoms: C10_16  and  C11_18 
ROOT
ATOM      1  N1  <0> d           1.644  -3.200   3.123  0.00  0.00    -0.308 N 
ATOM      2  H8  <0> d           2.014  -4.096   3.154  0.00  0.00     0.172 HD
ENDROOT
BRANCH   1   3
ATOM      3  S1  <0> d           0.057  -2.973   2.709  0.00  0.00     0.259 S 
ATOM      4  O1  <0> d          -0.500  -2.110   3.691  0.00  0.00    -0.201 OA
ATOM      5  O2  <0> d          -0.479  -4.260   2.433  0.00  0.00    -0.201 OA
BRANCH   3   6
ATOM      6  C6  <0> d           0.037  -2.084   1.188  0.00  0.00     0.080 A 
ATOM      7  C5  <0> d           0.040  -2.768  -0.013  0.00  0.00     0.025 A 
ATOM      8  C4  <0> d           0.025  -2.071  -1.207  0.00  0.00     0.002 A 
ATOM      9  C3  <0> d           0.006  -0.689  -1.199  0.00  0.00     0.007 A 
ATOM     10  C2  <0> d           0.002  -0.004   0.002  0.00  0.00    -0.060 A 
ATOM     11  C1  <0> d          -0.018   1.503   0.010  0.00  0.00     0.048 C 
ATOM     12  C7  <0> d           0.023  -0.702   1.195  0.00  0.00     0.032 A 
ENDBRANCH   3   6
ENDBRANCH   1   3
BRANCH   1  13
ATOM     13  C8  <0> d           2.489  -2.047   3.444  0.00  0.00     0.220 C 
BRANCH  13  14
ATOM     14  C9  <0> d           3.744  -2.520   4.131  0.00  0.00     0.187 A 
ATOM     15  O3  <0> d           3.913  -2.676   5.455  0.00  0.00    -0.271 OA
ATOM     16  C10 <0> d           5.176  -3.115   5.627  0.00  0.00     0.203 A 
ATOM     17  N3  <0> d           5.723  -3.203   4.438  0.00  0.00    -0.121 NA
ATOM     18  N2  <0> d           4.865  -2.846   3.549  0.00  0.00    -0.125 NA
BRANCH  16  19
ATOM     19  C11 <0> d           5.825  -3.434   6.917  0.00  0.00     0.022 A 
ATOM     20  C15 <0> d           7.151  -3.878   6.965  0.00  0.00     0.035 A 
ATOM     21  C14 <0> d           7.719  -4.159   8.190  0.00  0.00     0.117 A 
ATOM     22  N4  <0> d           7.026  -4.024   9.305  0.00  0.00    -0.273 NA
ATOM     23  C13 <0> d           5.772  -3.613   9.304  0.00  0.00     0.117 A 
ATOM     24  C12 <0> d           5.128  -3.305   8.124  0.00  0.00     0.035 A 
ENDBRANCH  16  19
ENDBRANCH  13  14
ENDBRANCH   1  13
TORSDOF 5
