REMARK  5 active torsions:
REMARK  status: ('A' for Active; 'I' for Inactive)
REMARK    1  A    between atoms: C4_5  and  C5_7 
REMARK    2  A    between atoms: C5_7  and  N2_8 
REMARK    3  A    between atoms: C9_12  and  C10_13 
REMARK    4  A    between atoms: C13_16  and  C14_18 
REMARK       I    between atoms: C14_18  and  N3_20 
REMARK    5  A    between atoms: N3_20  and  C15_21 
ROOT
ATOM      1  C10 <0> d          -5.299   2.057   1.375  0.00  0.00     0.014 A 
ATOM      2  C11 <0> d          -6.449   2.299   0.693  0.00  0.00     0.018 A 
ATOM      3  C12 <0> d          -7.011   3.550   0.749  0.00  0.00     0.026 A 
ATOM      4  C13 <0> d          -6.354   4.503   1.513  0.00  0.00     0.073 A 
ATOM      5  S2  <0> d          -4.959   3.580   2.132  0.00  0.00    -0.087 SA
ENDROOT
BRANCH   1   6
ATOM      6  C9  <0> d          -4.512   0.774   1.459  0.00  0.00     0.228 C 
ATOM      7  N2  <0> d          -3.054   1.056   1.407  0.00  0.00    -0.058 N 
ATOM      8  C6  <0> d          -2.429  -0.143   2.022  0.00  0.00     0.236 C 
ATOM      9  H21 <0> d          -2.783   1.989   1.922  0.00  0.00     0.281 HD
ATOM     10  C7  <0> d          -3.359  -0.505   3.200  0.00  0.00     0.030 C 
ATOM     11  C8  <0> d          -4.729   0.098   2.830  0.00  0.00     0.040 C 
BRANCH   7  12
ATOM     12  C5  <0> d          -2.602   1.233   0.021  0.00  0.00     0.283 C 
BRANCH  12  13
ATOM     13  C4  <0> d          -1.188   1.755   0.017  0.00  0.00     0.028 A 
ATOM     14  C3  <0> d          -0.013   1.076   0.008  0.00  0.00     0.133 A 
ATOM     15  N1  <0> d           1.109   1.766   0.001  0.00  0.00    -0.258 NA
ATOM     16  C2  <0> d           1.106   3.079   0.008  0.00  0.00     0.071 A 
ATOM     17  C1  <0> d           2.276   4.028   0.003  0.00  0.00     0.078 C 
ATOM     18  S1  <0> d          -0.593   3.440   0.026  0.00  0.00    -0.077 SA
ENDBRANCH  12  13
ENDBRANCH   7  12
ENDBRANCH   1   6
BRANCH   4  19
ATOM     19  C14 <0> d          -6.716   5.903   1.754  0.00  0.00     0.264 C 
ATOM     20  O1  <0> d          -7.720   6.368   1.246  0.00  0.00    -0.267 OA
ATOM     21  N3  <0> d          -5.937   6.675   2.537  0.00  0.00    -0.304 N 
ATOM     22  H16 <0> d          -5.030   6.255   2.995  0.00  0.00     0.171 HD
BRANCH  21  23
ATOM     23  C15 <0> d          -6.282   8.014   2.767  0.00  0.00     0.171 A 
ATOM     24  N6  <0> d          -5.620   8.883   3.505  0.00  0.00    -0.136 NA
ATOM     25  N5  <0> d          -6.332  10.089   3.447  0.00  0.00    -0.191 N 
ATOM     26  N4  <0> d          -7.368   9.921   2.701  0.00  0.00    -0.164 NA
ATOM     27  C17 <0> d          -5.960  11.335   4.123  0.00  0.00     0.205 C 
ATOM     28  C16 <0> d          -7.394   8.691   2.254  0.00  0.00     0.192 A 
ENDBRANCH  21  23
ENDBRANCH   4  19
TORSDOF 5
