REMARK  6 active torsions:
REMARK  status: ('A' for Active; 'I' for Inactive)
REMARK    1  A    between atoms: C3_3  and  C8_9 
REMARK    2  A    between atoms: C6_6  and  C7_7 
REMARK    3  A    between atoms: C7_7  and  N1_8 
REMARK    4  A    between atoms: C8_9  and  S1_10 
REMARK    5  A    between atoms: S1_10  and  N2_13 
REMARK    6  A    between atoms: N2_13  and  C9_14 
ROOT
ATOM      1  C8  <0> d          -4.326   2.733   5.376  0.00  0.00     0.204 C 
ENDROOT
BRANCH   1   2
ATOM      2  C3  <0> d          -4.510   2.081   4.030  0.00  0.00    -0.043 A 
ATOM      3  C2  <0> d          -4.147   2.756   2.880  0.00  0.00     0.009 A 
ATOM      4  C1  <0> d          -4.312   2.156   1.645  0.00  0.00     0.009 A 
ATOM      5  C6  <0> d          -4.849   0.885   1.561  0.00  0.00    -0.033 A 
ATOM      6  C5  <0> d          -5.212   0.210   2.711  0.00  0.00     0.009 A 
ATOM      7  C4  <0> d          -5.043   0.808   3.946  0.00  0.00     0.009 A 
BRANCH   5   8
ATOM      8  C7  <0> d          -5.033   0.233   0.215  0.00  0.00     0.268 C 
BRANCH   8   9
ATOM      9  N1  <0> d          -6.366   0.559  -0.309  0.00  0.00    -0.075 N 
ATOM     10  H7  <0> d          -6.501   0.083  -1.292  0.00  0.00     0.274 HD
ATOM     11  H8  <0> d          -6.462   1.650  -0.414  0.00  0.00     0.274 HD
ATOM     12  H15 <0> d          -7.134   0.188   0.386  0.00  0.00     0.274 HD
ENDBRANCH   8   9
ENDBRANCH   5   8
ENDBRANCH   1   2
BRANCH   1  13
ATOM     13  S1  <0> d          -2.681   2.330   6.023  0.00  0.00     0.255 S 
ATOM     14  O1  <0> d          -2.589   0.938   6.293  0.00  0.00    -0.203 OA
ATOM     15  O2  <0> d          -1.679   2.987   5.259  0.00  0.00    -0.203 OA
BRANCH  13  16
ATOM     16  N2  <0> d          -2.620   3.053   7.512  0.00  0.00    -0.164 NA
BRANCH  16  17
ATOM     17  C9  <0> d          -2.674   4.440   7.614  0.00  0.00     0.072 A 
ATOM     18  C13 <0> d          -3.836   5.081   8.044  0.00  0.00     0.049 A 
ATOM     19  C12 <0> d          -3.848   6.457   8.131  0.00  0.00     0.090 A 
ATOM     20  N3  <0> d          -2.780   7.165   7.815  0.00  0.00    -0.375 N 
ATOM     21  C11 <0> d          -1.662   6.596   7.404  0.00  0.00     0.090 A 
ATOM     22  H16 <0> d          -2.841   8.260   7.901  0.00  0.00     0.164 HD
ATOM     23  C10 <0> d          -1.566   5.225   7.295  0.00  0.00     0.049 A 
ENDBRANCH  16  17
ENDBRANCH  13  16
ENDBRANCH   1  13
TORSDOF 6
