REMARK  1 active torsions:
REMARK  status: ('A' for Active; 'I' for Inactive)
REMARK    1  A    between atoms: C8_8  and  N2_12 
ROOT
ATOM      1  C1  <0> d          -0.018   1.503   0.010  0.00  0.00     0.048 C 
ATOM      2  C2  <0> d           0.002  -0.004   0.002  0.00  0.00    -0.061 A 
ATOM      3  C3  <0> d           0.006  -0.691  -1.198  0.00  0.00     0.015 A 
ATOM      4  C4  <0> d           0.025  -2.070  -1.213  0.00  0.00    -0.034 A 
ATOM      5  C5  <0> d           0.040  -2.782  -0.015  0.00  0.00     0.049 A 
ATOM      6  C6  <0> d           0.037  -2.081   1.184  0.00  0.00     0.012 A 
ATOM      7  C7  <0> d           0.023  -0.704   1.196  0.00  0.00     0.019 A 
ATOM      8  C8  <0> d           0.056  -3.118   2.283  0.00  0.00     0.349 A 
ATOM      9  C9  <0> d           0.071  -4.439   1.543  0.00  0.00     0.260 A 
ATOM     10  O1  <0> d           0.088  -5.544   2.042  0.00  0.00    -0.270 OA
ATOM     11  N1  <0> d           0.060  -4.156   0.229  0.00  0.00    -0.324 N 
ATOM     12  C15 <0> d           0.028  -2.808  -2.527  0.00  0.00     0.050 C 
ATOM     13  H7  <0> d           0.066  -4.829  -0.469  0.00  0.00     0.169 HD
ENDROOT
BRANCH   8  14
ATOM     14  N2  <0> d           1.265  -2.973   3.106  0.00  0.00     0.108 N 
ATOM     15  C14 <0> d           1.239  -3.852   4.193  0.00  0.00     0.301 C 
ATOM     16  C13 <0> d           2.397  -3.607   5.178  0.00  0.00     0.262 C 
ATOM     17  N3  <0> d           3.586  -4.243   4.658  0.00  0.00    -0.073 N 
ATOM     18  C12 <0> d           4.433  -3.305   3.889  0.00  0.00     0.234 C 
ATOM     19  H14 <0> d           3.312  -5.006   4.057  0.00  0.00     0.277 HD
ATOM     20  H22 <0> d           4.122  -4.613   5.428  0.00  0.00     0.277 HD
ATOM     21  C11 <0> d           3.613  -2.374   2.981  0.00  0.00     0.057 C 
ATOM     22  C10 <0> d           2.489  -3.092   2.278  0.00  0.00     0.275 C 
ENDBRANCH   8  14
TORSDOF 1
