REMARK  6 active torsions:
REMARK  status: ('A' for Active; 'I' for Inactive)
REMARK    1  A    between atoms: N1_6  and  C6_7 
REMARK    2  A    between atoms: C9_10  and  C12_13 
REMARK       I    between atoms: C12_13  and  N2_15 
REMARK    3  A    between atoms: N2_15  and  N3_16 
REMARK    4  A    between atoms: N3_16  and  S1_17 
REMARK    5  A    between atoms: S1_17  and  C13_20 
REMARK    6  A    between atoms: C15_22  and  C17_25 
ROOT
ATOM      1  C12 <0> d          -4.538  -3.359   0.029  0.00  0.00     0.270 C 
ATOM      2  O1  <0> d          -4.772  -4.073  -0.927  0.00  0.00    -0.266 OA
ATOM      3  N2  <0> d          -5.362  -3.369   1.096  0.00  0.00    -0.256 N 
ATOM      4  H10 <0> d          -5.176  -2.800   1.858  0.00  0.00     0.191 HD
ENDROOT
BRANCH   1   5
ATOM      5  C9  <0> d          -3.350  -2.482   0.022  0.00  0.00     0.033 A 
ATOM      6  C8  <0> d          -3.080  -1.661   1.120  0.00  0.00     0.019 A 
ATOM      7  C7  <0> d          -1.969  -0.847   1.112  0.00  0.00     0.031 A 
ATOM      8  C6  <0> d          -1.122  -0.835   0.009  0.00  0.00     0.039 A 
ATOM      9  C11 <0> d          -1.388  -1.651  -1.085  0.00  0.00     0.031 A 
ATOM     10  C10 <0> d          -2.495  -2.471  -1.082  0.00  0.00     0.019 A 
BRANCH   8  11
ATOM     11  N1  <0> d           0.002  -0.004   0.002  0.00  0.00    -0.320 N 
ATOM     12  C2  <0> d          -0.017   1.362   0.009  0.00  0.00     0.013 A 
ATOM     13  C1  <0> d          -1.249   2.229   0.020  0.00  0.00     0.068 C 
ATOM     14  C3  <0> d           1.258   1.800  -0.000  0.00  0.00     0.027 A 
ATOM     15  C4  <0> d           2.096   0.667  -0.014  0.00  0.00     0.027 A 
ATOM     16  C5  <0> d           1.302  -0.423  -0.013  0.00  0.00     0.013 A 
ATOM     17  C18 <0> d           1.769  -1.856  -0.025  0.00  0.00     0.068 C 
ENDBRANCH   8  11
ENDBRANCH   1   5
BRANCH   3  18
ATOM     18  N3  <0> d          -6.489  -4.202   1.102  0.00  0.00    -0.220 N 
ATOM     19  H11 <0> d          -7.136  -4.148   0.382  0.00  0.00     0.200 HD
BRANCH  18  20
ATOM     20  S1  <0> d          -6.716  -5.277   2.341  0.00  0.00     0.282 S 
ATOM     21  O2  <0> d          -7.997  -5.861   2.141  0.00  0.00    -0.198 OA
ATOM     22  O3  <0> d          -5.530  -6.054   2.427  0.00  0.00    -0.198 OA
BRANCH  20  23
ATOM     23  C13 <0> d          -6.816  -4.343   3.831  0.00  0.00     0.122 A 
ATOM     24  S2  <0> d          -5.496  -3.863   4.927  0.00  0.00    -0.087 SA
ATOM     25  C16 <0> d          -6.410  -2.994   6.113  0.00  0.00     0.069 A 
ATOM     26  C15 <0> d          -7.706  -3.088   5.646  0.00  0.00     0.049 A 
ATOM     27  C14 <0> d          -7.907  -3.812   4.416  0.00  0.00     0.051 A 
BRANCH  26  28
ATOM     28  C17 <0> d          -8.830  -2.474   6.369  0.00  0.00     0.209 C 
ATOM     29  O4  <0> d          -9.960  -2.575   5.933  0.00  0.00    -0.644 OA
ATOM     30  O5  <0> d          -8.606  -1.799   7.514  0.00  0.00    -0.644 OA
ENDBRANCH  26  28
ENDBRANCH  20  23
ENDBRANCH  18  20
ENDBRANCH   3  18
TORSDOF 6
