REMARK  3 active torsions:
REMARK  status: ('A' for Active; 'I' for Inactive)
REMARK    1  A    between atoms: C4_5  and  C5_6 
REMARK    2  A    between atoms: C5_6  and  N1_7 
REMARK    3  A    between atoms: C9_11  and  C11_13 
ROOT
ATOM      1  N1  <0> d          -1.546  -1.275  -1.375  0.00  0.00    -0.066 N 
ATOM      2  C6  <0> d          -2.048  -0.057  -2.021  0.00  0.00     0.235 C 
ATOM      3  C7  <0> d          -2.380  -0.351  -3.485  0.00  0.00     0.028 C 
ATOM      4  C8  <0> d          -3.450  -1.444  -3.551  0.00  0.00     0.010 C 
ATOM      5  C9  <0> d          -2.945  -2.685  -2.809  0.00  0.00     0.042 C 
ATOM      6  C10 <0> d          -2.592  -2.304  -1.370  0.00  0.00     0.242 C 
ATOM      7  H23 <0> d          -0.743  -1.615  -1.882  0.00  0.00     0.280 HD
ENDROOT
BRANCH   1   8
ATOM      8  C5  <0> d          -1.156  -0.969   0.008  0.00  0.00     0.280 C 
BRANCH   8   9
ATOM      9  C4  <0> d           0.002  -0.004   0.002  0.00  0.00     0.009 A 
ATOM     10  C1  <0> d          -0.016   1.351   0.009  0.00  0.00     0.035 A 
ATOM     11  C2  <0> d           1.184   2.038   0.002  0.00  0.00     0.018 A 
ATOM     12  C3  <0> d           2.343   1.335  -0.013  0.00  0.00     0.069 A 
ATOM     13 Br1  <0> d           1.208   3.929   0.011  0.00  0.00    -0.051 Br
ATOM     14  S1  <0> d           1.753  -0.350  -0.017  0.00  0.00    -0.103 SA
ENDBRANCH   8   9
ENDBRANCH   1   8
BRANCH   5  15
ATOM     15  C11 <0> d          -4.037  -3.756  -2.803  0.00  0.00     0.191 C 
ATOM     16  N2  <0> d          -4.380  -4.131  -4.186  0.00  0.00    -0.070 N 
ATOM     17  C14 <0> d          -4.074  -5.569  -4.371  0.00  0.00     0.233 C 
ATOM     18  H21 <0> d          -5.363  -3.968  -4.349  0.00  0.00     0.277 HD
ATOM     19  H22 <0> d          -3.834  -3.582  -4.833  0.00  0.00     0.277 HD
ATOM     20  C13 <0> d          -4.132  -6.172  -2.945  0.00  0.00     0.029 C 
ATOM     21  C12 <0> d          -3.521  -5.027  -2.095  0.00  0.00     0.035 C 
ENDBRANCH   5  15
TORSDOF 3
