REMARK  3 active torsions:
REMARK  status: ('A' for Active; 'I' for Inactive)
REMARK    1  A    between atoms: C2_2  and  C3_3 
REMARK    2  A    between atoms: C2_2  and  N3_9 
REMARK    3  A    between atoms: C14_17  and  N4_18 
ROOT
ATOM      1  N3  <0> d          -1.370  -0.513   0.133  0.00  0.00    -0.059 N 
ATOM      2  C7  <0> d          -1.990   0.049   1.343  0.00  0.00     0.240 C 
ATOM      3  C8  <0> d          -3.491  -0.240   1.300  0.00  0.00     0.069 C 
ATOM      4  C9  <0> d          -3.721  -1.704   1.029  0.00  0.00    -0.022 A 
ATOM      5  C10 <0> d          -2.720  -2.510   0.532  0.00  0.00    -0.024 A 
ATOM      6  C11 <0> d          -2.972  -3.853   0.291  0.00  0.00     0.009 A 
ATOM      7  C12 <0> d          -4.219  -4.389   0.548  0.00  0.00     0.003 A 
ATOM      8  C13 <0> d          -5.225  -3.587   1.048  0.00  0.00     0.029 A 
ATOM      9  C14 <0> d          -4.979  -2.242   1.290  0.00  0.00     0.032 A 
ATOM     10  C15 <0> d          -1.342  -1.974   0.245  0.00  0.00     0.274 C 
ATOM     11  H21 <0> d          -1.907  -0.247  -0.678  0.00  0.00     0.281 HD
ENDROOT
BRANCH   1  12
ATOM     12  C2  <0> d           0.002  -0.004   0.002  0.00  0.00     0.220 C 
ATOM     13  C1  <0> d          -0.033   1.514  -0.181  0.00  0.00     0.045 C 
BRANCH  12  14
ATOM     14  C3  <0> d           0.661  -0.639  -1.195  0.00  0.00     0.008 A 
ATOM     15  C5  <0> d           1.944  -1.066  -1.264  0.00  0.00     0.122 A 
ATOM     16  N2  <0> d           2.142  -1.574  -2.499  0.00  0.00    -0.285 N 
ATOM     17  N1  <0> d           0.944  -1.447  -3.215  0.00  0.00    -0.185 NA
ATOM     18  C6  <0> d           3.391  -2.150  -3.004  0.00  0.00     0.179 C 
ATOM     19  C4  <0> d           0.058  -0.887  -2.432  0.00  0.00     0.149 A 
ENDBRANCH  12  14
ENDBRANCH   1  12
BRANCH   9  20
ATOM     20  N4  <0> d          -5.994  -1.427   1.795  0.00  0.00    -0.399 N 
ATOM     21  H17 <0> d          -5.823  -0.488   1.964  0.00  0.00     0.156 HD
ATOM     22  H18 <0> d          -6.871  -1.801   1.977  0.00  0.00     0.156 HD
ENDBRANCH   9  20
TORSDOF 3
