REMARK  7 active torsions:
REMARK  status: ('A' for Active; 'I' for Inactive)
REMARK    1  A    between atoms: C5_6  and  C6_7 
REMARK    2  A    between atoms: C6_7  and  C7_8 
REMARK    3  A    between atoms: C6_7  and  N5_27 
REMARK    4  A    between atoms: C7_8  and  N2_9 
REMARK       I    between atoms: N2_9  and  C8_10 
REMARK    5  A    between atoms: C8_10  and  C9_12 
REMARK       I    between atoms: C9_12  and  N3_14 
REMARK    6  A    between atoms: N3_14  and  C10_15 
REMARK    7  A    between atoms: C14_19  and  N4_21 
ROOT
ATOM      1  N2  <0> d           1.621   0.964   4.636  0.00  0.00    -0.350 N 
ATOM      2  C8  <0> d           2.659   1.625   5.186  0.00  0.00     0.309 C 
ATOM      3  O1  <0> d           3.582   1.993   4.489  0.00  0.00    -0.262 OA
ATOM      4  H10 <0> d           0.884   0.669   5.193  0.00  0.00     0.162 HD
ENDROOT
BRANCH   1   5
ATOM      5  C7  <0> d           1.606   0.690   3.197  0.00  0.00     0.165 C 
BRANCH   5   6
ATOM      6  C6  <0> d           0.391  -0.173   2.854  0.00  0.00     0.290 C 
BRANCH   6   7
ATOM      7  C5  <0> d           0.438  -0.551   1.396  0.00  0.00     0.046 A 
ATOM      8  N1  <0> d           0.447   0.318   0.345  0.00  0.00    -0.363 N 
ATOM      9  C1  <0> d           0.412   1.779   0.445  0.00  0.00     0.155 C 
ATOM     10  C2  <0> d           0.499  -0.398  -0.814  0.00  0.00     0.090 A 
ATOM     11  C3  <0> d           0.517  -1.709  -0.500  0.00  0.00     0.019 A 
ATOM     12  C4  <0> d           0.475  -1.807   0.905  0.00  0.00     0.029 A 
ENDBRANCH   6   7
BRANCH   6  13
ATOM     13  N5  <0> d           0.408  -1.391   3.676  0.00  0.00     0.103 N 
ATOM     14  C23 <0> d          -0.778  -2.219   3.415  0.00  0.00     0.301 C 
ATOM     15  C22 <0> d          -0.753  -3.444   4.331  0.00  0.00     0.264 C 
ATOM     16  N6  <0> d           0.471  -4.218   4.081  0.00  0.00    -0.072 N 
ATOM     17  C21 <0> d           1.646  -3.385   4.370  0.00  0.00     0.264 C 
ATOM     18  C24 <0> d           0.486  -5.403   4.948  0.00  0.00     0.269 C 
ATOM     19  H33 <0> d           0.494  -4.508   3.115  0.00  0.00     0.279 HD
ATOM     20  C20 <0> d           1.641  -2.159   3.454  0.00  0.00     0.301 C 
ENDBRANCH   6  13
ENDBRANCH   5   6
ENDBRANCH   1   5
BRANCH   2  21
ATOM     21  C9  <0> d           2.674   1.903   6.653  0.00  0.00     0.313 C 
ATOM     22  O2  <0> d           1.751   1.535   7.350  0.00  0.00    -0.262 OA
ATOM     23  N3  <0> d           3.712   2.564   7.203  0.00  0.00    -0.319 N 
ATOM     24  H11 <0> d           4.415   2.921   6.637  0.00  0.00     0.169 HD
BRANCH  23  25
ATOM     25  C10 <0> d           3.776   2.736   8.588  0.00  0.00     0.037 A 
ATOM     26  C15 <0> d           4.324   3.895   9.120  0.00  0.00     0.059 A 
ATOM     27  C14 <0> d           4.380   4.064  10.496  0.00  0.00     0.039 A 
ATOM     28  C13 <0> d           3.899   3.068  11.337  0.00  0.00     0.030 A 
ATOM     29  C12 <0> d           3.359   1.913  10.804  0.00  0.00     0.004 A 
ATOM     30  C11 <0> d           3.296   1.744   9.435  0.00  0.00     0.029 A 
BRANCH  27  31
ATOM     31  N4  <0> d           4.926   5.234  11.036  0.00  0.00    -0.318 N 
ATOM     32  C19 <0> d           5.311   6.297  10.309  0.00  0.00     0.224 C 
ATOM     33  C18 <0> d           5.859   7.376  11.216  0.00  0.00     0.105 C 
ATOM     34  O3  <0> d           5.229   6.379   9.102  0.00  0.00    -0.273 OA
ATOM     35  C17 <0> d           6.141   6.643  12.548  0.00  0.00     0.029 C 
ATOM     36  C16 <0> d           5.156   5.455  12.468  0.00  0.00     0.133 C 
ENDBRANCH  27  31
ENDBRANCH  23  25
ENDBRANCH   2  21
TORSDOF 7
