REMARK  5 active torsions:
REMARK  status: ('A' for Active; 'I' for Inactive)
REMARK    1  A    between atoms: C4_5  and  C5_6 
REMARK    2  A    between atoms: C5_6  and  C6_7 
REMARK    3  A    between atoms: C5_6  and  S2_9 
REMARK    4  A    between atoms: C6_7  and  N1_8 
REMARK    5  A    between atoms: S2_9  and  C7_10 
ROOT
ATOM      1  C5  <0> d          -1.094  -0.657  -0.104  0.00  0.00     0.119 C 
ENDROOT
BRANCH   1   2
ATOM      2  C4  <0> d          -0.001   0.339   0.184  0.00  0.00    -0.000 A 
ATOM      3  C1  <0> d          -0.074   1.691   0.252  0.00  0.00     0.017 A 
ATOM      4  C2  <0> d           1.071   2.411   0.534  0.00  0.00     0.028 A 
ATOM      5  C3  <0> d           2.235   1.744   0.735  0.00  0.00     0.051 A 
ATOM      6  S1  <0> d           1.726   0.045   0.525  0.00  0.00    -0.086 SA
ATOM      7 Br1  <0> d           3.950   2.433   1.134  0.00  0.00    -0.043 Br
ENDBRANCH   1   2
BRANCH   1   8
ATOM      8  C6  <0> d          -0.737  -1.458  -1.358  0.00  0.00     0.250 C 
BRANCH   8   9
ATOM      9  N1  <0> d          -1.852  -2.350  -1.704  0.00  0.00    -0.078 N 
ATOM     10  H7  <0> d          -1.657  -2.808  -2.581  0.00  0.00     0.274 HD
ATOM     11  H8  <0> d          -1.966  -3.043  -0.980  0.00  0.00     0.274 HD
ATOM     12  H11 <0> d          -2.700  -1.810  -1.788  0.00  0.00     0.274 HD
ENDBRANCH   8   9
ENDBRANCH   1   8
BRANCH   1  13
ATOM     13  S2  <0> d          -1.271  -1.786   1.305  0.00  0.00    -0.096 SA
BRANCH  13  14
ATOM     14  C7  <0> d          -1.881  -0.758   2.600  0.00  0.00     0.126 A 
ATOM     15  N5  <0> d          -2.193   0.515   2.369  0.00  0.00    -0.233 NA
ATOM     16  C11 <0> d          -2.655   1.290   3.333  0.00  0.00     0.236 A 
ATOM     17  N4  <0> d          -2.824   0.862   4.564  0.00  0.00    -0.220 NA
ATOM     18  C9  <0> d          -2.532  -0.402   4.891  0.00  0.00     0.181 A 
ATOM     19  C8  <0> d          -2.043  -1.260   3.894  0.00  0.00     0.117 A 
ATOM     20  N2  <0> d          -2.593  -1.120   6.029  0.00  0.00    -0.222 NA
ATOM     21  N3  <0> d          -1.832  -2.477   4.505  0.00  0.00    -0.345 N 
ATOM     22  H2  <0> d          -1.495  -3.283   4.083  0.00  0.00     0.167 HD
ATOM     23  C10 <0> d          -2.183  -2.337   5.804  0.00  0.00     0.210 A 
ENDBRANCH  13  14
ENDBRANCH   1  13
TORSDOF 5
