REMARK  7 active torsions:
REMARK  status: ('A' for Active; 'I' for Inactive)
REMARK    1  A    between atoms: C2_2  and  C3_3 
REMARK    2  A    between atoms: C2_2  and  O2_9 
REMARK       I    between atoms: C3_3  and  N1_5 
REMARK    3  A    between atoms: N1_5  and  C4_6 
REMARK    4  A    between atoms: O2_9  and  C7_10 
REMARK    5  A    between atoms: C8_11  and  O3_19 
REMARK    6  A    between atoms: C10_13  and  C13_17 
REMARK    7  A    between atoms: C13_17  and  N2_18 
ROOT
ATOM      1  C7  <0> d          -0.095  -0.675  -2.278  0.00  0.00     0.120 A 
ATOM      2  C8  <0> d          -0.675  -1.921  -2.498  0.00  0.00     0.103 A 
ATOM      3  C9  <0> d          -1.454  -2.130  -3.624  0.00  0.00     0.048 A 
ATOM      4  C10 <0> d          -1.655  -1.102  -4.526  0.00  0.00    -0.029 A 
ATOM      5  C11 <0> d          -1.080   0.135  -4.309  0.00  0.00     0.030 A 
ATOM      6  C12 <0> d          -0.305   0.353  -3.183  0.00  0.00     0.047 A 
ATOM      7 Br1  <0> d           0.474   2.050  -2.885  0.00  0.00    -0.048 Br
ENDROOT
BRANCH   1   8
ATOM      8  O2  <0> d           0.671  -0.465  -1.174  0.00  0.00    -0.333 OA
BRANCH   8   9
ATOM      9  C2  <0> d           0.002  -0.004   0.002  0.00  0.00     0.216 C 
ATOM     10  C1  <0> d          -0.019   1.526   0.010  0.00  0.00     0.050 C 
BRANCH   9  11
ATOM     11  C3  <0> d           0.731  -0.503   1.223  0.00  0.00     0.247 C 
ATOM     12  O1  <0> d           1.774  -1.109   1.101  0.00  0.00    -0.271 OA
ATOM     13  N1  <0> d           0.223  -0.277   2.451  0.00  0.00    -0.355 N 
ATOM     14  H5  <0> d          -0.611   0.208   2.548  0.00  0.00     0.162 HD
BRANCH  13  15
ATOM     15  C4  <0> d           0.932  -0.762   3.638  0.00  0.00     0.076 C 
ATOM     16  C5  <0> d           1.995   0.258   4.049  0.00  0.00     0.032 C 
ATOM     17  C6  <0> d          -0.064  -0.952   4.784  0.00  0.00     0.032 C 
ENDBRANCH  13  15
ENDBRANCH   9  11
ENDBRANCH   8   9
ENDBRANCH   1   8
BRANCH   2  18
ATOM     18  O3  <0> d          -0.476  -2.931  -1.609  0.00  0.00    -0.353 OA
ATOM     19  C14 <0> d          -1.101  -4.183  -1.899  0.00  0.00     0.210 C 
ENDBRANCH   2  18
BRANCH   4  20
ATOM     20  C13 <0> d          -2.504  -1.332  -5.751  0.00  0.00     0.268 C 
BRANCH  20  21
ATOM     21  N2  <0> d          -3.903  -1.008  -5.444  0.00  0.00    -0.075 N 
ATOM     22  H17 <0> d          -4.229  -1.599  -4.694  0.00  0.00     0.274 HD
ATOM     23  H18 <0> d          -3.971  -0.041  -5.165  0.00  0.00     0.274 HD
ATOM     24  H22 <0> d          -4.471  -1.162  -6.264  0.00  0.00     0.274 HD
ENDBRANCH  20  21
ENDBRANCH   4  20
TORSDOF 7
