REMARK  3 active torsions:
REMARK  status: ('A' for Active; 'I' for Inactive)
REMARK    1  A    between atoms: C2_2  and  C3_3 
REMARK    2  A    between atoms: C2_2  and  N1_10 
REMARK    3  A    between atoms: N1_10  and  C9_11 
ROOT
ATOM      1  C1  <0> d           2.939   4.099  -1.442  0.00  0.00     0.045 C 
ATOM      2  C2  <0> d           2.451   3.939  -0.001  0.00  0.00     0.217 C 
ENDROOT
BRANCH   2   3
ATOM      3  C3  <0> d           1.157   3.167   0.007  0.00  0.00    -0.011 A 
ATOM      4  C8  <0> d           1.176   1.784   0.000  0.00  0.00     0.019 A 
ATOM      5  C7  <0> d          -0.013   1.076   0.008  0.00  0.00     0.019 A 
ATOM      6 Br1  <0> d           2.826   0.861  -0.020  0.00  0.00    -0.051 Br
ATOM      7  C6  <0> d          -1.219   1.751   0.017  0.00  0.00     0.001 A 
ATOM      8  C5  <0> d          -1.237   3.133   0.029  0.00  0.00     0.001 A 
ATOM      9  C4  <0> d          -0.050   3.841   0.022  0.00  0.00     0.011 A 
ENDBRANCH   2   3
BRANCH   2  10
ATOM     10  N1  <0> d           2.234   5.265   0.593  0.00  0.00    -0.054 N 
ATOM     11  H10 <0> d           1.861   5.955  -0.178  0.00  0.00     0.279 HD
ATOM     12  H15 <0> d           1.496   5.187   1.405  0.00  0.00     0.279 HD
BRANCH  10  13
ATOM     13  C9  <0> d           3.484   5.805   1.143  0.00  0.00     0.287 C 
ATOM     14  C12 <0> d           3.650   5.384   2.587  0.00  0.00     0.289 C 
ATOM     15  O1  <0> d           3.639   6.465   3.380  0.00  0.00    -0.320 OA
ATOM     16  O2  <0> d           3.772   4.244   2.969  0.00  0.00    -0.263 OA
ATOM     17  C11 <0> d           3.967   7.654   2.603  0.00  0.00     0.181 C 
ATOM     18  C10 <0> d           3.430   7.349   1.186  0.00  0.00     0.070 C 
ENDBRANCH  10  13
ENDBRANCH   2  10
TORSDOF 3
