REMARK  6 active torsions:
REMARK  status: ('A' for Active; 'I' for Inactive)
REMARK    1  A    between atoms: C3_3  and  S2_27 
REMARK    2  A    between atoms: C6_6  and  C7_7 
REMARK    3  A    between atoms: C10_10  and  C11_12 
REMARK    4  A    between atoms: C11_12  and  C12_13 
REMARK    5  A    between atoms: N1_16  and  C15_20 
REMARK    6  A    between atoms: S2_27  and  N2_30 
ROOT
ATOM      1  C7  <0> d          -1.230  -0.639  -0.440  0.00  0.00     0.086 A 
ATOM      2  C8  <0> d          -1.277  -1.772  -1.202  0.00  0.00     0.041 A 
ATOM      3  C9  <0> d          -2.606  -1.950  -1.594  0.00  0.00     0.040 A 
ATOM      4  C10 <0> d          -3.326  -0.902  -1.048  0.00  0.00     0.077 A 
ATOM      5  O1  <0> d          -2.470  -0.127  -0.349  0.00  0.00    -0.310 OA
ENDROOT
BRANCH   4   6
ATOM      6  C11 <0> d          -4.714  -0.686  -1.190  0.00  0.00     0.061 C 
BRANCH   6   7
ATOM      7  C12 <0> d          -5.301   0.393  -0.595  0.00  0.00     0.081 A 
ATOM      8  S1  <0> d          -4.567   1.676   0.409  0.00  0.00    -0.023 SA
ATOM      9  C14 <0> d          -6.056   2.614   0.720  0.00  0.00     0.298 A 
ATOM     10  N1  <0> d          -6.993   1.898   0.060  0.00  0.00    -0.238 N 
ATOM     11  O3  <0> d          -6.192   3.635   1.367  0.00  0.00    -0.259 OA
ATOM     12  C13 <0> d          -6.670   0.800  -0.600  0.00  0.00     0.273 A 
ATOM     13  O2  <0> d          -7.514   0.154  -1.195  0.00  0.00    -0.266 OA
BRANCH  10  14
ATOM     14  C15 <0> d          -8.328   2.326   0.076  0.00  0.00     0.046 A 
ATOM     15  C20 <0> d          -8.791   3.194  -0.903  0.00  0.00     0.032 A 
ATOM     16  C19 <0> d         -10.108   3.611  -0.888  0.00  0.00     0.026 A 
ATOM     17  C18 <0> d         -10.962   3.173   0.108  0.00  0.00     0.034 A 
ATOM     18  C17 <0> d         -10.501   2.312   1.089  0.00  0.00     0.026 A 
ATOM     19 Cl1  <0> d         -12.615   3.703   0.128  0.00  0.00    -0.084 Cl
ATOM     20  C16 <0> d          -9.187   1.888   1.075  0.00  0.00     0.032 A 
ENDBRANCH  10  14
ENDBRANCH   6   7
ENDBRANCH   4   6
BRANCH   1  21
ATOM     21  C6  <0> d          -0.018  -0.074   0.185  0.00  0.00    -0.002 A 
ATOM     22  C1  <0> d          -0.102   1.093   0.949  0.00  0.00     0.016 A 
ATOM     23  C2  <0> d           1.034   1.615   1.531  0.00  0.00     0.026 A 
ATOM     24  C3  <0> d           2.255   0.987   1.359  0.00  0.00     0.079 A 
ATOM     25  C4  <0> d           2.346  -0.169   0.603  0.00  0.00     0.026 A 
ATOM     26  C5  <0> d           1.218  -0.703   0.015  0.00  0.00     0.016 A 
BRANCH  24  27
ATOM     27  S2  <0> d           3.701   1.662   2.106  0.00  0.00     0.256 S 
ATOM     28  O4  <0> d           4.807   1.194   1.345  0.00  0.00    -0.201 OA
ATOM     29  O5  <0> d           3.446   3.045   2.307  0.00  0.00    -0.201 OA
BRANCH  27  30
ATOM     30  N2  <0> d           3.839   0.982   3.609  0.00  0.00    -0.324 N 
ATOM     31  H12 <0> d           3.179   0.339   3.913  0.00  0.00     0.169 HD
ATOM     32  H13 <0> d           4.580   1.226   4.186  0.00  0.00     0.169 HD
ENDBRANCH  27  30
ENDBRANCH  24  27
ENDBRANCH   1  21
TORSDOF 6
