REMARK  8 active torsions:
REMARK  status: ('A' for Active; 'I' for Inactive)
REMARK    1  A    between atoms: C2_2  and  C3_3 
REMARK    2  A    between atoms: C2_2  and  N3_36 
REMARK    3  A    between atoms: C3_3  and  C4_4 
REMARK    4  A    between atoms: C4_4  and  N1_5 
REMARK    5  A    between atoms: N1_5  and  C5_6 
REMARK    6  A    between atoms: C25_31  and  C26_32 
REMARK    7  A    between atoms: C25_31  and  N3_36 
REMARK    8  A    between atoms: C26_32  and  O4_33 
ROOT
ATOM      1  C5  <0> d          -1.233   1.751   0.017  0.00  0.00     0.046 A 
ATOM      2  C6  <0> d          -0.013   1.076   0.035  0.00  0.00     0.069 A 
ATOM      3  C7  <0> d           1.177   1.776   0.028  0.00  0.00     0.106 A 
ATOM      4  C8  <0> d           1.168   3.184   0.008  0.00  0.00     0.082 A 
ATOM      5  C9  <0> d          -0.044   3.875  -0.004  0.00  0.00     0.061 A 
ATOM      6  C10 <0> d          -1.261   3.151   0.004  0.00  0.00     0.058 A 
ATOM      7  C11 <0> d          -2.541   3.866  -0.009  0.00  0.00     0.196 A 
ATOM      8  O1  <0> d          -3.586   3.243  -0.002  0.00  0.00    -0.286 OA
ATOM      9  C12 <0> d          -2.560   5.343  -0.029  0.00  0.00     0.029 A 
ATOM     10  C13 <0> d          -3.772   6.029  -0.040  0.00  0.00     0.016 A 
ATOM     11  C14 <0> d          -3.782   7.411  -0.059  0.00  0.00     0.001 A 
ATOM     12  C15 <0> d          -2.593   8.120  -0.067  0.00  0.00     0.001 A 
ATOM     13  C16 <0> d          -1.381   7.456  -0.056  0.00  0.00     0.016 A 
ATOM     14  C17 <0> d          -1.353   6.063  -0.037  0.00  0.00     0.029 A 
ATOM     15  C18 <0> d          -0.063   5.344  -0.026  0.00  0.00     0.196 A 
ATOM     16  O2  <0> d           0.983   5.967  -0.032  0.00  0.00    -0.286 OA
ATOM     17  N2  <0> d           2.368   3.877   0.002  0.00  0.00    -0.351 N 
ATOM     18  H1  <0> d           2.376   4.847  -0.012  0.00  0.00     0.166 HD
ATOM     19  C19 <0> d           3.568   3.158   0.014  0.00  0.00     0.067 A 
ATOM     20  C20 <0> d           4.784   3.826   0.009  0.00  0.00     0.032 A 
ATOM     21  C21 <0> d           5.965   3.107   0.022  0.00  0.00     0.002 A 
ATOM     22  C22 <0> d           5.937   1.725   0.040  0.00  0.00     0.003 A 
ATOM     23  C23 <0> d           4.729   1.053   0.046  0.00  0.00     0.039 A 
ATOM     24  C24 <0> d           3.539   1.764   0.033  0.00  0.00     0.102 A 
ATOM     25  O3  <0> d           2.353   1.103   0.040  0.00  0.00    -0.306 OA
ENDROOT
BRANCH   1  26
ATOM     26  N1  <0> d          -2.420   1.035   0.019  0.00  0.00    -0.389 N 
ATOM     27  H11 <0> d          -3.267   1.501   0.099  0.00  0.00     0.159 HD
BRANCH  26  28
ATOM     28  C4  <0> d          -2.395  -0.425  -0.099  0.00  0.00     0.121 C 
BRANCH  28  29
ATOM     29  C3  <0> d          -3.827  -0.963  -0.071  0.00  0.00     0.047 C 
BRANCH  29  30
ATOM     30  C2  <0> d          -3.801  -2.488  -0.195  0.00  0.00     0.236 C 
BRANCH  30  31
ATOM     31  N3  <0> d          -5.191  -2.991  -0.188  0.00  0.00    -0.073 N 
ATOM     32  C1  <0> d          -5.800  -2.771   1.141  0.00  0.00     0.269 C 
ATOM     33  H26 <0> d          -5.734  -2.479  -0.892  0.00  0.00     0.279 HD
BRANCH  31  34
ATOM     34  C25 <0> d          -5.209  -4.431  -0.520  0.00  0.00     0.260 C 
BRANCH  34  35
ATOM     35  C26 <0> d          -6.660  -4.872  -0.725  0.00  0.00     0.192 C 
BRANCH  35  36
ATOM     36  O4  <0> d          -7.209  -4.190  -1.854  0.00  0.00    -0.399 OA
ATOM     37  H25 <0> d          -8.129  -4.422  -2.044  0.00  0.00     0.209 HD
ENDBRANCH  35  36
ENDBRANCH  34  35
ENDBRANCH  31  34
ENDBRANCH  30  31
ENDBRANCH  29  30
ENDBRANCH  28  29
ENDBRANCH  26  28
ENDBRANCH   1  26
TORSDOF 8
