REMARK  7 active torsions:
REMARK  status: ('A' for Active; 'I' for Inactive)
REMARK    1  A    between atoms: C7_7  and  O1_8 
REMARK    2  A    between atoms: O1_8  and  C8_9 
REMARK    3  A    between atoms: C8_9  and  C9_10 
REMARK    4  A    between atoms: C9_10  and  C10_11 
REMARK    5  A    between atoms: C10_11  and  N1_12 
REMARK       I    between atoms: N1_12  and  C11_13 
REMARK       I    between atoms: C11_13  and  N3_21 
REMARK    6  A    between atoms: N2_14  and  C12_15 
REMARK    7  A    between atoms: C12_15  and  C13_16 
ROOT
ATOM      1  N1  <0> d           0.070   0.149   7.239  0.00  0.00    -0.227 N 
ATOM      2  C11 <0> d           0.089  -0.385   8.505  0.00  0.00     0.667 C 
ATOM      3  N2  <0> d           0.089   0.402   9.544  0.00  0.00    -0.224 N 
ATOM      4  N3  <0> d           0.109  -1.749   8.676  0.00  0.00    -0.235 N 
ATOM      5  H14 <0> d           0.056   1.111   7.118  0.00  0.00     0.177 HD
ATOM      6  H23 <0> d           0.110  -2.335   7.903  0.00  0.00     0.174 HD
ATOM      7  H24 <0> d           0.123  -2.125   9.570  0.00  0.00     0.174 HD
ATOM      8  H25 <0> d           0.075   1.365   9.424  0.00  0.00     0.177 HD
ENDROOT
BRANCH   1   9
ATOM      9  C10 <0> d           0.071  -0.736   6.071  0.00  0.00     0.140 C 
BRANCH   9  10
ATOM     10  C9  <0> d           0.047   0.106   4.793  0.00  0.00     0.047 C 
BRANCH  10  11
ATOM     11  C8  <0> d           0.048  -0.819   3.574  0.00  0.00     0.177 C 
BRANCH  11  12
ATOM     12  O1  <0> d           0.025  -0.033   2.381  0.00  0.00    -0.351 OA
BRANCH  12  13
ATOM     13  C7  <0> d           0.023  -0.704   1.199  0.00  0.00     0.074 A 
ATOM     14  C2  <0> d           0.002  -0.004   0.002  0.00  0.00    -0.027 A 
ATOM     15  C1  <0> d          -0.018   1.503   0.010  0.00  0.00     0.051 C 
ATOM     16  C3  <0> d           0.006  -0.689  -1.198  0.00  0.00     0.033 A 
ATOM     17  C4  <0> d           0.024  -2.072  -1.206  0.00  0.00     0.034 A 
ATOM     18  C5  <0> d           0.040  -2.773  -0.013  0.00  0.00     0.026 A 
ATOM     19 Cl1  <0> d           0.028  -2.930  -2.715  0.00  0.00    -0.084 Cl
ATOM     20  C6  <0> d           0.036  -2.092   1.189  0.00  0.00     0.039 A 
ENDBRANCH  12  13
ENDBRANCH  11  12
ENDBRANCH  10  11
ENDBRANCH   9  10
ENDBRANCH   1   9
BRANCH   3  21
ATOM     21  C12 <0> d           0.110  -0.166  10.894  0.00  0.00     0.170 C 
BRANCH  21  22
ATOM     22  C13 <0> d           0.105   0.965  11.924  0.00  0.00     0.139 C 
ATOM     23  O2  <0> d          -1.142   1.668  11.867  0.00  0.00    -0.384 OA
ATOM     24  C16 <0> d          -1.829   1.547  13.125  0.00  0.00     0.168 C 
ATOM     25  C15 <0> d          -0.718   1.274  14.169  0.00  0.00     0.029 C 
ATOM     26  C14 <0> d           0.248   0.380  13.346  0.00  0.00     0.035 C 
ENDBRANCH  21  22
ENDBRANCH   3  21
TORSDOF 7
