REMARK  3 active torsions:
REMARK  status: ('A' for Active; 'I' for Inactive)
REMARK    1  A    between atoms: C7_7  and  N1_8 
REMARK    2  A    between atoms: N1_8  and  S1_9 
REMARK    3  A    between atoms: S1_9  and  C8_12 
ROOT
ATOM      1  C8  <0> d           1.770  -1.815   3.903  0.00  0.00     0.082 A 
ATOM      2  C9  <0> d           1.847  -3.113   3.431  0.00  0.00     0.027 A 
ATOM      3  C10 <0> d           3.051  -3.775   3.476  0.00  0.00     0.022 A 
ATOM      4  C11 <0> d           4.205  -3.173   3.997  0.00  0.00     0.027 A 
ATOM      5  C12 <0> d           4.130  -1.873   4.473  0.00  0.00     0.053 A 
ATOM      6  C13 <0> d           2.892  -1.211   4.418  0.00  0.00     0.056 A 
ATOM      7  N2  <0> d           5.147  -1.135   5.019  0.00  0.00    -0.326 N 
ATOM      8  C14 <0> d           6.426  -1.128   5.152  0.00  0.00     0.226 C 
ATOM      9  O3  <0> d           6.902  -0.074   5.520  0.00  0.00    -0.273 OA
ATOM     10  C15 <0> d           7.409  -2.221   4.920  0.00  0.00     0.084 C 
ATOM     11  C16 <0> d           7.055  -3.063   3.728  0.00  0.00     0.093 C 
ATOM     12  S2  <0> d           5.658  -4.143   3.996  0.00  0.00    -0.127 SA
ATOM     13  C17 <0> d           8.792  -1.606   4.699  0.00  0.00     0.020 C 
ATOM     14  H12 <0> d           4.776  -0.351   5.452  0.00  0.00     0.169 HD
ENDROOT
BRANCH   1  15
ATOM     15  S1  <0> d           0.240  -0.943   3.851  0.00  0.00     0.263 S 
ATOM     16  O1  <0> d           0.254  -0.032   4.941  0.00  0.00    -0.200 OA
ATOM     17  O2  <0> d          -0.779  -1.921   3.689  0.00  0.00    -0.200 OA
BRANCH  15  18
ATOM     18  N1  <0> d           0.243  -0.030   2.470  0.00  0.00    -0.280 N 
ATOM     19  H8  <0> d           0.286   0.938   2.528  0.00  0.00     0.179 HD
BRANCH  18  20
ATOM     20  C7  <0> d           0.186  -0.652   1.221  0.00  0.00     0.054 A 
ATOM     21  C2  <0> d           1.325  -0.735   0.431  0.00  0.00    -0.034 A 
ATOM     22  C1  <0> d           2.626  -0.152   0.920  0.00  0.00     0.050 C 
ATOM     23  C3  <0> d           1.263  -1.346  -0.806  0.00  0.00     0.009 A 
ATOM     24  C4  <0> d           0.071  -1.886  -1.253  0.00  0.00     0.001 A 
ATOM     25  C5  <0> d          -1.065  -1.806  -0.469  0.00  0.00     0.009 A 
ATOM     26  C6  <0> d          -1.012  -1.191   0.766  0.00  0.00    -0.034 A 
ATOM     27  C18 <0> d          -2.250  -1.103   1.619  0.00  0.00     0.050 C 
ENDBRANCH  18  20
ENDBRANCH  15  18
ENDBRANCH   1  15
TORSDOF 3
