REMARK  6 active torsions:
REMARK  status: ('A' for Active; 'I' for Inactive)
REMARK       I    between atoms: N1_2  and  C2_3 
REMARK    1  A    between atoms: C2_3  and  C3_5 
REMARK       I    between atoms: N2_7  and  C11_15 
REMARK    2  A    between atoms: C11_15  and  C12_17 
REMARK    3  A    between atoms: C12_17  and  N5_32 
REMARK    4  A    between atoms: C14_19  and  C15_20 
REMARK    5  A    between atoms: C14_19  and  N5_32 
REMARK    6  A    between atoms: N4_23  and  C18_25 
ROOT
ATOM      1  C3  <0> d          -0.127  -5.964   2.617  0.00  0.00     0.239 C 
ATOM      2  C4  <0> d          -0.773  -4.688   2.059  0.00  0.00     0.174 C 
ATOM      3  N2  <0> d          -0.735  -3.669   3.123  0.00  0.00    -0.311 N 
ATOM      4  C5  <0> d          -1.040  -4.081   4.431  0.00  0.00     0.070 A 
ATOM      5  C6  <0> d          -1.293  -3.138   5.415  0.00  0.00     0.033 A 
ATOM      6  C7  <0> d          -1.589  -3.547   6.702  0.00  0.00     0.002 A 
ATOM      7  C8  <0> d          -1.632  -4.895   7.007  0.00  0.00     0.003 A 
ATOM      8  C9  <0> d          -1.394  -5.837   6.029  0.00  0.00     0.039 A 
ATOM      9  C10 <0> d          -1.092  -5.437   4.736  0.00  0.00     0.097 A 
ATOM     10  O2  <0> d          -0.845  -6.373   3.783  0.00  0.00    -0.333 OA
ATOM     11  C11 <0> d          -0.414  -2.389   2.851  0.00  0.00     0.250 C 
ATOM     12  O3  <0> d          -0.286  -1.591   3.755  0.00  0.00    -0.271 OA
ENDROOT
BRANCH  11  13
ATOM     13  C12 <0> d          -0.214  -1.949   1.423  0.00  0.00     0.337 C 
BRANCH  13  14
ATOM     14  N5  <0> d           0.244  -0.544   1.417  0.00  0.00    -0.063 N 
ATOM     15  C13 <0> d           1.604  -0.453   1.991  0.00  0.00     0.270 C 
ATOM     16  H26 <0> d          -0.397   0.018   1.989  0.00  0.00     0.280 HD
BRANCH  14  17
ATOM     17  C14 <0> d           0.244  -0.018   0.036  0.00  0.00     0.276 C 
BRANCH  17  18
ATOM     18  C15 <0> d           0.499   1.466   0.081  0.00  0.00     0.004 A 
ATOM     19  C17 <0> d           1.709   2.068   0.017  0.00  0.00     0.129 A 
ATOM     20  N4  <0> d           1.509   3.404   0.089  0.00  0.00    -0.245 N 
ATOM     21  N3  <0> d           0.130   3.627   0.200  0.00  0.00    -0.180 NA
ATOM     22  C16 <0> d          -0.474   2.466   0.189  0.00  0.00     0.149 A 
BRANCH  20  23
ATOM     23  C18 <0> d           2.504   4.390   0.058  0.00  0.00     0.058 A 
ATOM     24  C23 <0> d           2.157   5.732   0.140  0.00  0.00     0.031 A 
ATOM     25  C22 <0> d           3.140   6.701   0.110  0.00  0.00     0.002 A 
ATOM     26  C21 <0> d           4.469   6.337  -0.003  0.00  0.00     0.000 A 
ATOM     27  C20 <0> d           4.818   5.002  -0.085  0.00  0.00     0.002 A 
ATOM     28  C19 <0> d           3.840   4.027  -0.049  0.00  0.00     0.031 A 
ENDBRANCH  20  23
ENDBRANCH  17  18
ENDBRANCH  14  17
ENDBRANCH  13  14
ENDBRANCH  11  13
BRANCH   1  29
ATOM     29  C2  <0> d          -0.185  -7.055   1.578  0.00  0.00     0.248 C 
ATOM     30  N1  <0> d           0.499  -6.925   0.425  0.00  0.00    -0.363 N 
ATOM     31  C1  <0> d           0.442  -7.985  -0.585  0.00  0.00     0.149 C 
ATOM     32  H5  <0> d           1.030  -6.129   0.263  0.00  0.00     0.162 HD
ATOM     33  O1  <0> d          -0.849  -8.050   1.781  0.00  0.00    -0.271 OA
ENDBRANCH   1  29
TORSDOF 6
