REMARK  3 active torsions:
REMARK  status: ('A' for Active; 'I' for Inactive)
REMARK    1  A    between atoms: C3_3  and  N2_19 
REMARK    2  A    between atoms: C7_7  and  S1_8 
REMARK    3  A    between atoms: S1_8  and  N1_11 
ROOT
ATOM      1  S1  <0> d          -2.641   4.210   0.336  0.00  0.00     0.261 S 
ATOM      2  O1  <0> d          -2.853   5.215  -0.645  0.00  0.00    -0.200 OA
ATOM      3  O2  <0> d          -3.544   3.130   0.528  0.00  0.00    -0.200 OA
ENDROOT
BRANCH   1   4
ATOM      4  C7  <0> d          -1.067   3.495  -0.007  0.00  0.00     0.087 A 
ATOM      5  C2  <0> d          -0.560   2.514   0.821  0.00  0.00    -0.013 A 
ATOM      6  C1  <0> d          -1.351   2.054   2.019  0.00  0.00     0.052 C 
ATOM      7  C3  <0> d           0.681   1.951   0.550  0.00  0.00     0.033 A 
ATOM      8  C4  <0> d           1.407   2.377  -0.555  0.00  0.00     0.029 A 
ATOM      9  C5  <0> d           0.893   3.359  -1.379  0.00  0.00     0.004 A 
ATOM     10  C6  <0> d          -0.339   3.921  -1.103  0.00  0.00     0.026 A 
BRANCH   7  11
ATOM     11  N2  <0> d           1.197   0.958   1.385  0.00  0.00    -0.399 N 
ATOM     12  H21 <0> d           2.179   0.513   1.169  0.00  0.00     0.156 HD
ATOM     13  H22 <0> d           0.621   0.620   2.260  0.00  0.00     0.156 HD
ENDBRANCH   7  11
ENDBRANCH   1   4
BRANCH   1  14
ATOM     14  N1  <0> d          -2.518   4.988   1.793  0.00  0.00    -0.306 N 
ATOM     15  C12 <0> d          -1.981   6.353   1.869  0.00  0.00     0.139 C 
ATOM     16  C11 <0> d          -2.989   7.239   2.608  0.00  0.00     0.001 C 
ATOM     17  C10 <0> d          -3.311   6.613   3.967  0.00  0.00     0.011 C 
ATOM     18  C13 <0> d          -2.389   8.631   2.816  0.00  0.00     0.011 C 
ATOM     19  C9  <0> d          -3.941   5.234   3.760  0.00  0.00     0.001 C 
ATOM     20  C8  <0> d          -2.949   4.328   3.033  0.00  0.00     0.139 C 
ATOM     21  C14 <0> d          -4.294   4.624   5.118  0.00  0.00     0.011 C 
ENDBRANCH   1  14
TORSDOF 3
