REMARK  7 active torsions:
REMARK  status: ('A' for Active; 'I' for Inactive)
REMARK    1  A    between atoms: O1_2  and  C2_3 
REMARK    2  A    between atoms: C5_6  and  S1_10 
REMARK    3  A    between atoms: S1_10  and  N1_13 
REMARK    4  A    between atoms: N1_13  and  C8_14 
REMARK    5  A    between atoms: C8_14  and  C9_15 
REMARK    6  A    between atoms: N2_18  and  C14_21 
REMARK    7  A    between atoms: C14_21  and  C15_22 
ROOT
ATOM      1  N1  <0> d           1.568  -2.915   5.683  0.00  0.00    -0.315 N 
ATOM      2  H7  <0> d           1.643  -2.460   6.536  0.00  0.00     0.172 HD
ENDROOT
BRANCH   1   3
ATOM      3  S1  <0> d           2.707  -2.664   4.507  0.00  0.00     0.258 S 
ATOM      4  O2  <0> d           3.102  -3.948   4.044  0.00  0.00    -0.201 OA
ATOM      5  O3  <0> d           3.634  -1.725   5.034  0.00  0.00    -0.201 OA
BRANCH   3   6
ATOM      6  C5  <0> d           1.897  -1.869   3.159  0.00  0.00     0.082 A 
ATOM      7  C4  <0> d           1.836  -0.489   3.107  0.00  0.00     0.028 A 
ATOM      8  C3  <0> d           1.202   0.138   2.051  0.00  0.00     0.041 A 
ATOM      9  C2  <0> d           0.626  -0.619   1.042  0.00  0.00     0.106 A 
ATOM     10  C7  <0> d           0.683  -2.005   1.098  0.00  0.00     0.151 A 
ATOM     11  C6  <0> d           1.324  -2.627   2.154  0.00  0.00     0.070 A 
ATOM     12  F1  <0> d           0.117  -2.746   0.120  0.00  0.00    -0.203 F 
BRANCH   9  13
ATOM     13  O1  <0> d           0.002  -0.004   0.002  0.00  0.00    -0.353 OA
ATOM     14  C1  <0> d          -0.017   1.425   0.010  0.00  0.00     0.210 C 
ENDBRANCH   9  13
ENDBRANCH   3   6
ENDBRANCH   1   3
BRANCH   1  15
ATOM     15  C8  <0> d           0.446  -3.824   5.434  0.00  0.00     0.137 C 
BRANCH  15  16
ATOM     16  C9  <0> d          -0.234  -4.170   6.761  0.00  0.00     0.007 C 
ATOM     17  C13 <0> d          -1.480  -5.018   6.491  0.00  0.00     0.034 C 
ATOM     18  C12 <0> d          -2.110  -5.427   7.825  0.00  0.00     0.235 C 
ATOM     19  N2  <0> d          -1.144  -6.208   8.607  0.00  0.00    -0.067 N 
ATOM     20  C11 <0> d           0.022  -5.377   8.930  0.00  0.00     0.235 C 
ATOM     21  H24 <0> d          -0.847  -7.009   8.070  0.00  0.00     0.280 HD
ATOM     22  C10 <0> d           0.735  -4.967   7.640  0.00  0.00     0.034 C 
BRANCH  19  23
ATOM     23  C14 <0> d          -1.778  -6.663   9.851  0.00  0.00     0.273 C 
BRANCH  23  24
ATOM     24  C15 <0> d          -2.901  -7.614   9.524  0.00  0.00    -0.026 A 
ATOM     25  C18 <0> d          -2.667  -8.946   9.425  0.00  0.00     0.058 A 
ATOM     26  S2  <0> d          -4.291  -9.578   9.035  0.00  0.00    -0.113 SA
ATOM     27  C17 <0> d          -5.169  -8.023   9.021  0.00  0.00     0.050 A 
ATOM     28  C16 <0> d          -4.182  -7.141   9.313  0.00  0.00     0.016 A 
ENDBRANCH  23  24
ENDBRANCH  19  23
ENDBRANCH  15  16
ENDBRANCH   1  15
TORSDOF 7
