REMARK  7 active torsions:
REMARK  status: ('A' for Active; 'I' for Inactive)
REMARK    1  A    between atoms: C4_5  and  C5_7 
REMARK    2  A    between atoms: C5_7  and  C6_8 
REMARK    3  A    between atoms: C6_8  and  N2_9 
REMARK       I    between atoms: N2_9  and  C7_10 
REMARK    4  A    between atoms: C7_10  and  C8_12 
REMARK    5  A    between atoms: C10_15  and  C11_17 
REMARK    6  A    between atoms: C11_17  and  N4_18 
REMARK    7  A    between atoms: N5_21  and  C16_24 
ROOT
ATOM      1  C8  <0> d          -2.502  -5.579   5.506  0.00  0.00     0.149 A 
ATOM      2  C9  <0> d          -3.586  -6.107   6.137  0.00  0.00     0.181 A 
ATOM      3  O2  <0> d          -3.122  -6.894   7.121  0.00  0.00    -0.303 OA
ATOM      4  C10 <0> d          -1.782  -6.851   7.095  0.00  0.00     0.174 A 
ATOM      5  N3  <0> d          -1.397  -6.071   6.130  0.00  0.00    -0.219 NA
ENDROOT
BRANCH   4   6
ATOM      6  C11 <0> d          -0.868  -7.594   8.035  0.00  0.00     0.358 C 
BRANCH   6   7
ATOM      7  N4  <0> d          -0.589  -6.757   9.210  0.00  0.00     0.099 N 
ATOM      8  C15 <0> d           0.101  -7.528  10.253  0.00  0.00     0.292 C 
ATOM      9  C14 <0> d           0.212  -6.678  11.523  0.00  0.00     0.153 C 
ATOM     10  N5  <0> d           0.846  -5.397  11.174  0.00  0.00    -0.375 N 
ATOM     11  C13 <0> d           0.293  -4.631  10.047  0.00  0.00     0.153 C 
ATOM     12  C12 <0> d           0.179  -5.562   8.835  0.00  0.00     0.292 C 
BRANCH  10  13
ATOM     13  C16 <0> d           1.945  -4.921  11.895  0.00  0.00     0.069 A 
ATOM     14  C21 <0> d           3.236  -5.256  11.501  0.00  0.00     0.142 A 
ATOM     15  C20 <0> d           4.320  -4.778  12.214  0.00  0.00     0.044 A 
ATOM     16  F1  <0> d           3.431  -6.043  10.420  0.00  0.00    -0.204 F 
ATOM     17  C19 <0> d           4.120  -3.978  13.324  0.00  0.00     0.003 A 
ATOM     18  C18 <0> d           2.838  -3.648  13.721  0.00  0.00     0.002 A 
ATOM     19  C17 <0> d           1.750  -4.117  13.010  0.00  0.00     0.032 A 
ENDBRANCH  10  13
ENDBRANCH   6   7
ENDBRANCH   4   6
BRANCH   1  20
ATOM     20  C7  <0> d          -2.521  -4.654   4.359  0.00  0.00     0.272 C 
ATOM     21  N2  <0> d          -1.362  -4.215   3.828  0.00  0.00    -0.355 N 
ATOM     22  H8  <0> d          -0.516  -4.507   4.202  0.00  0.00     0.162 HD
ATOM     23  O1  <0> d          -3.582  -4.287   3.891  0.00  0.00    -0.266 OA
BRANCH  21  24
ATOM     24  C6  <0> d          -1.381  -3.295   2.688  0.00  0.00     0.129 C 
BRANCH  24  25
ATOM     25  C5  <0> d           0.055  -2.955   2.284  0.00  0.00     0.086 C 
BRANCH  25  26
ATOM     26  C4  <0> d           0.036  -2.009   1.111  0.00  0.00     0.077 A 
ATOM     27  S1  <0> d           0.032  -2.379  -0.531  0.00  0.00    -0.078 SA
ATOM     28  C3  <0> d           0.006  -0.708  -1.159  0.00  0.00     0.005 A 
ATOM     29  C2  <0> d           0.002  -0.004   0.002  0.00  0.00     0.044 A 
ATOM     30  C22 <0> d          -0.008  -0.215  -2.583  0.00  0.00     0.058 C 
ATOM     31  C1  <0> d          -0.018   1.503   0.010  0.00  0.00     0.071 C 
ATOM     32  N1  <0> d           0.023  -0.699   1.122  0.00  0.00    -0.250 NA
ENDBRANCH  25  26
ENDBRANCH  24  25
ENDBRANCH  21  24
ENDBRANCH   1  20
TORSDOF 7
