REMARK  6 active torsions:
REMARK  status: ('A' for Active; 'I' for Inactive)
REMARK    1  A    between atoms: C3_3  and  C13_20 
REMARK    2  A    between atoms: C5_8  and  C6_10 
REMARK    3  A    between atoms: C6_10  and  S1_11 
REMARK    4  A    between atoms: S1_11  and  C7_14 
REMARK    5  A    between atoms: C13_20  and  C14_21 
REMARK    6  A    between atoms: C14_21  and  O4_22 
ROOT
ATOM      1  C1  <0> d          -0.018   1.503   0.010  0.00  0.00     0.071 C 
ATOM      2  C2  <0> d           0.002  -0.004   0.002  0.00  0.00     0.044 A 
ATOM      3  C3  <0> d          -1.167  -0.702   0.004  0.00  0.00     0.036 A 
ATOM      4  C4  <0> d          -1.113  -2.111  -0.005  0.00  0.00     0.255 A 
ATOM      5  O1  <0> d          -2.136  -2.774  -0.004  0.00  0.00    -0.268 OA
ATOM      6  N1  <0> d           0.097  -2.710  -0.014  0.00  0.00    -0.310 N 
ATOM      7  H1  <0> d           0.160  -3.678  -0.020  0.00  0.00     0.170 HD
ATOM      8  C5  <0> d           1.218  -1.962  -0.015  0.00  0.00     0.121 A 
ATOM      9  N2  <0> d           1.167  -0.657  -0.013  0.00  0.00    -0.239 NA
ENDROOT
BRANCH   8  10
ATOM     10  C6  <0> d           2.560  -2.647  -0.026  0.00  0.00     0.224 C 
BRANCH  10  11
ATOM     11  S1  <0> d           3.876  -1.398  -0.025  0.00  0.00     0.182 S 
ATOM     12  O2  <0> d           3.877  -0.687  -1.256  0.00  0.00    -0.222 OA
ATOM     13  O3  <0> d           3.889  -0.701   1.214  0.00  0.00    -0.222 OA
BRANCH  11  14
ATOM     14  C7  <0> d           5.377  -2.321  -0.038  0.00  0.00     0.059 A 
ATOM     15  C12 <0> d           5.960  -2.676  -1.240  0.00  0.00     0.023 A 
ATOM     16  C11 <0> d           7.139  -3.397  -1.250  0.00  0.00     0.002 A 
ATOM     17  C10 <0> d           7.731  -3.770  -0.058  0.00  0.00     0.000 A 
ATOM     18  C9  <0> d           7.146  -3.419   1.144  0.00  0.00     0.002 A 
ATOM     19  C8  <0> d           5.968  -2.695   1.154  0.00  0.00     0.023 A 
ENDBRANCH  11  14
ENDBRANCH  10  11
ENDBRANCH   8  10
BRANCH   3  20
ATOM     20  C13 <0> d          -2.492   0.017   0.015  0.00  0.00     0.072 C 
BRANCH  20  21
ATOM     21  C14 <0> d          -3.008   0.158  -1.419  0.00  0.00     0.169 C 
BRANCH  21  22
ATOM     22  O4  <0> d          -4.264   0.839  -1.408  0.00  0.00    -0.401 OA
ATOM     23  H16 <0> d          -4.651   0.964  -2.285  0.00  0.00     0.209 HD
ENDBRANCH  21  22
ENDBRANCH  20  21
ENDBRANCH   3  20
TORSDOF 6
