REMARK  6 active torsions:
REMARK  status: ('A' for Active; 'I' for Inactive)
REMARK    1  A    between atoms: C5_5  and  N1_9 
REMARK    2  A    between atoms: C9_11  and  C18_23 
REMARK    3  A    between atoms: C12_14  and  C17_21 
REMARK    4  A    between atoms: C17_21  and  O2_22 
REMARK       I    between atoms: C18_23  and  N3_25 
REMARK    5  A    between atoms: N3_25  and  C19_26 
REMARK    6  A    between atoms: C24_31  and  O4_32 
ROOT
ATOM      1  N1  <0> d          -0.684  -4.639  -0.382  0.00  0.00    -0.333 N 
ATOM      2  C8  <0> d           0.468  -4.844  -0.981  0.00  0.00     0.164 C 
ATOM      3  C9  <0> d           1.227  -6.091  -0.757  0.00  0.00     0.084 C 
ATOM      4  C10 <0> d           2.074  -6.502  -1.763  0.00  0.00     0.036 C 
ATOM      5  C11 <0> d           2.149  -5.665  -2.962  0.00  0.00     0.011 A 
ATOM      6  C12 <0> d           2.766  -6.114  -4.136  0.00  0.00    -0.004 A 
ATOM      7  C13 <0> d           2.795  -5.270  -5.228  0.00  0.00     0.127 A 
ATOM      8  N2  <0> d           2.256  -4.066  -5.176  0.00  0.00    -0.262 NA
ATOM      9  C14 <0> d           1.666  -3.598  -4.094  0.00  0.00     0.065 A 
ATOM     10  C15 <0> d           1.588  -4.374  -2.946  0.00  0.00     0.113 A 
ATOM     11  O1  <0> d           0.989  -3.917  -1.826  0.00  0.00    -0.290 OA
ATOM     12  C16 <0> d           1.071  -2.213  -4.104  0.00  0.00     0.073 C 
ATOM     13  H22 <0> d          -1.090  -5.345   0.144  0.00  0.00     0.168 HD
ENDROOT
BRANCH   3  14
ATOM     14  C18 <0> d           1.085  -6.863   0.490  0.00  0.00     0.260 C 
ATOM     15  O3  <0> d           1.621  -7.949   0.597  0.00  0.00    -0.267 OA
ATOM     16  N3  <0> d           0.361  -6.365   1.512  0.00  0.00    -0.320 N 
ATOM     17  H15 <0> d          -0.114  -5.526   1.406  0.00  0.00     0.169 HD
BRANCH  16  18
ATOM     18  C19 <0> d           0.295  -7.059   2.727  0.00  0.00     0.070 A 
ATOM     19  C24 <0> d           0.012  -6.375   3.907  0.00  0.00     0.095 A 
ATOM     20  C23 <0> d          -0.058  -7.067   5.105  0.00  0.00     0.041 A 
ATOM     21  C22 <0> d           0.163  -8.432   5.130  0.00  0.00     0.026 A 
ATOM     22  C21 <0> d           0.450  -9.111   3.959  0.00  0.00     0.036 A 
ATOM     23  C20 <0> d           0.516  -8.428   2.758  0.00  0.00     0.056 A 
ATOM     24 Cl1  <0> d           0.727 -10.824   3.997  0.00  0.00    -0.084 Cl
BRANCH  19  25
ATOM     25  O4  <0> d          -0.200  -5.032   3.882  0.00  0.00    -0.354 OA
ATOM     26  C25 <0> d          -0.485  -4.397   5.131  0.00  0.00     0.210 C 
ENDBRANCH  19  25
ENDBRANCH  16  18
ENDBRANCH   3  14
BRANCH   1  27
ATOM     27  C5  <0> d          -1.311  -3.429  -0.501  0.00  0.00     0.073 A 
ATOM     28  C4  <0> d          -1.315  -2.758  -1.726  0.00  0.00     0.033 A 
ATOM     29  C3  <0> d          -1.950  -1.538  -1.840  0.00  0.00     0.009 A 
ATOM     30  C2  <0> d          -2.583  -0.978  -0.744  0.00  0.00    -0.059 A 
ATOM     31  C1  <0> d          -3.273   0.354  -0.877  0.00  0.00     0.048 C 
ATOM     32  C7  <0> d          -2.580  -1.633   0.475  0.00  0.00     0.051 A 
ATOM     33  C6  <0> d          -1.953  -2.857   0.603  0.00  0.00     0.143 A 
ATOM     34  F1  <0> d          -1.954  -3.499   1.792  0.00  0.00    -0.204 F 
ENDBRANCH   1  27
BRANCH   6  35
ATOM     35  C17 <0> d           3.384  -7.486  -4.206  0.00  0.00     0.205 C 
BRANCH  35  36
ATOM     36  O2  <0> d           3.942  -7.692  -5.506  0.00  0.00    -0.396 OA
ATOM     37  H14 <0> d           4.358  -8.557  -5.623  0.00  0.00     0.209 HD
ENDBRANCH  35  36
ENDBRANCH   6  35
TORSDOF 6
