REMARK  6 active torsions:
REMARK  status: ('A' for Active; 'I' for Inactive)
REMARK    1  A    between atoms: C7_7  and  N1_8 
REMARK    2  A    between atoms: N1_8  and  C8_9 
REMARK    3  A    between atoms: N2_11  and  N3_12 
REMARK       I    between atoms: N3_12  and  C9_13 
REMARK    4  A    between atoms: C9_13  and  C10_15 
REMARK    5  A    between atoms: C10_15  and  C11_16 
REMARK    6  A    between atoms: C11_16  and  C12_17 
ROOT
ATOM      1  N3  <0> d           4.668   0.942   1.166  0.00  0.00    -0.268 N 
ATOM      2  C9  <0> d           5.933   1.409   1.156  0.00  0.00     0.236 C 
ATOM      3  O1  <0> d           6.543   1.527   2.198  0.00  0.00    -0.272 OA
ATOM      4  H16 <0> d           4.180   0.848   0.333  0.00  0.00     0.190 HD
ENDROOT
BRANCH   1   5
ATOM      5  N2  <0> d           4.059   0.594   2.379  0.00  0.00    -0.274 N 
ATOM      6  C8  <0> d           2.795   0.128   2.388  0.00  0.00     0.186 C 
ATOM      7  S1  <0> d           2.051  -0.298   3.870  0.00  0.00    -0.040 SA
ATOM      8  H15 <0> d           4.548   0.689   3.211  0.00  0.00     0.189 HD
BRANCH   6   9
ATOM      9  N1  <0> d           2.116  -0.004   1.231  0.00  0.00    -0.361 N 
ATOM     10  H14 <0> d           2.538   0.237   0.392  0.00  0.00     0.162 HD
BRANCH   9  11
ATOM     11  C7  <0> d           0.742  -0.511   1.242  0.00  0.00     0.087 C 
ATOM     12  C2  <0> d           0.002  -0.004   0.002  0.00  0.00     0.004 C 
ATOM     13  C1  <0> d          -0.019   1.526   0.010  0.00  0.00     0.012 C 
ATOM     14  C3  <0> d          -1.433  -0.534   0.013  0.00  0.00     0.006 C 
ATOM     15  C4  <0> d          -1.413  -2.063   0.004  0.00  0.00     0.001 C 
ATOM     16  C5  <0> d          -0.673  -2.570   1.244  0.00  0.00     0.002 C 
ATOM     17  C6  <0> d           0.763  -2.041   1.233  0.00  0.00     0.025 C 
ENDBRANCH   9  11
ENDBRANCH   6   9
ENDBRANCH   1   5
BRANCH   2  18
ATOM     18  C10 <0> d           6.588   1.783  -0.148  0.00  0.00     0.109 C 
BRANCH  18  19
ATOM     19  C11 <0> d           8.010   2.280   0.119  0.00  0.00     0.046 C 
BRANCH  19  20
ATOM     20  C12 <0> d           8.665   2.654  -1.185  0.00  0.00    -0.050 A 
ATOM     21  C19 <0> d           9.387   1.729  -2.138  0.00  0.00     0.155 A 
ATOM     22  N4  <0> d           9.838   2.570  -3.253  0.00  0.00    -0.385 N 
ATOM     23  C18 <0> d           9.465   3.806  -3.020  0.00  0.00     0.038 A 
ATOM     24  H27 <0> d          10.332   2.265  -4.029  0.00  0.00     0.160 HD
ATOM     25  C13 <0> d           8.732   3.887  -1.737  0.00  0.00    -0.006 A 
ATOM     26  C17 <0> d           9.644   5.004  -3.764  0.00  0.00     0.030 A 
ATOM     27  C14 <0> d           8.232   5.198  -1.306  0.00  0.00     0.014 A 
ATOM     28  C15 <0> d           8.458   6.277  -2.090  0.00  0.00     0.001 A 
ATOM     29  C16 <0> d           9.155   6.174  -3.301  0.00  0.00     0.002 A 
ENDBRANCH  19  20
ENDBRANCH  18  19
ENDBRANCH   2  18
TORSDOF 6
