REMARK  5 active torsions:
REMARK  status: ('A' for Active; 'I' for Inactive)
REMARK    1  A    between atoms: C4_4  and  C9_13 
REMARK    2  A    between atoms: N1_6  and  C6_7 
REMARK    3  A    between atoms: C6_7  and  C7_8 
REMARK    4  A    between atoms: C9_13  and  C10_15 
REMARK    5  A    between atoms: C10_15  and  N2_16 
ROOT
ATOM      1  C9  <0> d          -3.089   1.685   0.319  0.00  0.00     0.179 C 
ATOM      2  O1  <0> d          -2.772   1.303  -0.788  0.00  0.00    -0.290 OA
ENDROOT
BRANCH   1   3
ATOM      3  C4  <0> d          -2.071   1.829   1.363  0.00  0.00     0.036 A 
ATOM      4  C3  <0> d          -2.280   2.273   2.748  0.00  0.00     0.042 A 
ATOM      5  C2  <0> d          -1.072   2.257   3.336  0.00  0.00     0.009 A 
ATOM      6  C1  <0> d          -0.792   2.642   4.766  0.00  0.00     0.068 C 
ATOM      7  N1  <0> d          -0.139   1.836   2.433  0.00  0.00    -0.345 N 
ATOM      8  C5  <0> d          -0.718   1.572   1.248  0.00  0.00     0.022 A 
ATOM      9  C8  <0> d          -0.013   1.086   0.008  0.00  0.00     0.069 C 
BRANCH   7  10
ATOM     10  C6  <0> d           1.291   1.692   2.714  0.00  0.00     0.246 C 
BRANCH  10  11
ATOM     11  C7  <0> d           2.008   3.007   2.401  0.00  0.00     0.403 C 
ATOM     12  F1  <0> d           1.476   4.029   3.196  0.00  0.00    -0.169 F 
ATOM     13  F2  <0> d           3.374   2.870   2.670  0.00  0.00    -0.169 F 
ATOM     14  F3  <0> d           1.828   3.326   1.051  0.00  0.00    -0.169 F 
ENDBRANCH  10  11
ENDBRANCH   7  10
ENDBRANCH   1   3
BRANCH   1  15
ATOM     15  C10 <0> d          -4.529   2.012   0.621  0.00  0.00     0.220 C 
BRANCH  15  16
ATOM     16  N2  <0> d          -5.341   1.788  -0.577  0.00  0.00    -0.261 N 
ATOM     17  C16 <0> d          -5.591   2.723  -1.502  0.00  0.00     0.326 A 
ATOM     18  N3  <0> d          -6.359   2.261  -2.505  0.00  0.00    -0.324 N 
ATOM     19  O3  <0> d          -5.167   3.861  -1.444  0.00  0.00    -0.247 OA
ATOM     20  C12 <0> d          -6.658   0.853  -2.193  0.00  0.00     0.125 A 
ATOM     21  H18 <0> d          -6.759   2.718  -3.423  0.00  0.00     0.165 HD
ATOM     22  C11 <0> d          -5.935   0.617  -0.882  0.00  0.00     0.257 A 
ATOM     23  C15 <0> d          -8.178   0.699  -1.966  0.00  0.00     0.115 C 
ATOM     24  C13 <0> d          -6.100  -0.058  -3.275  0.00  0.00     0.052 C 
ATOM     25  O2  <0> d          -5.899  -0.411  -0.240  0.00  0.00    -0.270 OA
ATOM     26  S1  <0> d          -8.710  -0.024  -3.579  0.00  0.00    -0.166 SA
ATOM     27  C14 <0> d          -7.162  -0.962  -3.940  0.00  0.00     0.077 C 
ENDBRANCH  15  16
ENDBRANCH   1  15
TORSDOF 5
