REMARK  5 active torsions:
REMARK  status: ('A' for Active; 'I' for Inactive)
REMARK    1  A    between atoms: C3_3  and  S1_20 
REMARK    2  A    between atoms: C6_6  and  N1_7 
REMARK       I    between atoms: N1_7  and  C7_8 
REMARK       I    between atoms: C7_8  and  N2_10 
REMARK    3  A    between atoms: N2_10  and  C8_11 
REMARK    4  A    between atoms: C8_11  and  C9_12 
REMARK    5  A    between atoms: S1_20  and  C14_21 
ROOT
ATOM      1  N1  <0> d          -1.202  -0.721   0.010  0.00  0.00    -0.309 N 
ATOM      2  C7  <0> d          -2.327  -0.154  -0.470  0.00  0.00     0.321 C 
ATOM      3  O1  <0> d          -2.280   0.943  -0.992  0.00  0.00    -0.247 OA
ATOM      4  N2  <0> d          -3.504  -0.804  -0.371  0.00  0.00    -0.336 N 
ATOM      5  H5  <0> d          -1.226  -1.627   0.356  0.00  0.00     0.170 HD
ATOM      6  H6  <0> d          -3.542  -1.679   0.046  0.00  0.00     0.164 HD
ENDROOT
BRANCH   1   7
ATOM      7  C6  <0> d           0.001  -0.002   0.008  0.00  0.00     0.036 A 
ATOM      8  C1  <0> d          -0.013   1.374   0.194  0.00  0.00     0.031 A 
ATOM      9  C2  <0> d           1.171   2.083   0.193  0.00  0.00     0.021 A 
ATOM     10  C3  <0> d           2.377   1.420   0.005  0.00  0.00     0.001 A 
ATOM     11  C4  <0> d           2.391   0.043  -0.181  0.00  0.00     0.021 A 
ATOM     12  C5  <0> d           1.206  -0.665  -0.180  0.00  0.00     0.031 A 
BRANCH  10  13
ATOM     13  S1  <0> d           3.890   2.324   0.002  0.00  0.00    -0.125 SA
BRANCH  13  14
ATOM     14  C14 <0> d           5.159   1.057  -0.272  0.00  0.00     0.052 C 
ATOM     15  C18 <0> d           6.540   1.718  -0.424  0.00  0.00     0.015 C 
ATOM     16  C17 <0> d           7.421   1.165   0.716  0.00  0.00     0.001 C 
ATOM     17  C16 <0> d           6.760  -0.186   1.085  0.00  0.00     0.001 C 
ATOM     18  C15 <0> d           5.248   0.126   0.955  0.00  0.00     0.015 C 
ENDBRANCH  13  14
ENDBRANCH  10  13
ENDBRANCH   1   7
BRANCH   4  19
ATOM     19  C8  <0> d          -4.727  -0.188  -0.892  0.00  0.00     0.205 C 
BRANCH  19  20
ATOM     20  C9  <0> d          -5.894  -1.112  -0.658  0.00  0.00     0.148 A 
ATOM     21  N5  <0> d          -6.694  -1.136   0.436  0.00  0.00    -0.319 N 
ATOM     22  C10 <0> d          -7.604  -2.110   0.214  0.00  0.00     0.130 A 
ATOM     23  C11 <0> d          -6.912  -0.494   1.739  0.00  0.00     0.132 C 
ATOM     24  N4  <0> d          -7.335  -2.636  -0.951  0.00  0.00    -0.135 NA
ATOM     25  C13 <0> d          -8.556  -2.205   1.387  0.00  0.00     0.082 C 
ATOM     26  N3  <0> d          -6.320  -2.042  -1.469  0.00  0.00    -0.133 NA
ATOM     27  C12 <0> d          -8.346  -0.884   2.158  0.00  0.00     0.028 C 
ENDBRANCH  19  20
ENDBRANCH   4  19
TORSDOF 5
