REMARK  6 active torsions:
REMARK  status: ('A' for Active; 'I' for Inactive)
REMARK    1  A    between atoms: C3_3  and  N3_15 
REMARK    2  A    between atoms: N1_6  and  C6_9 
REMARK       I    between atoms: N3_15  and  C12_16 
REMARK    3  A    between atoms: C12_16  and  C13_18 
REMARK    4  A    between atoms: C13_18  and  S1_19 
REMARK    5  A    between atoms: S1_19  and  C14_20 
REMARK    6  A    between atoms: C14_20  and  C15_21 
ROOT
ATOM      1  C1  <0> d           3.695   3.322   0.838  0.00  0.00     0.072 C 
ATOM      2  C2  <0> d           3.556   1.882   0.416  0.00  0.00     0.057 A 
ATOM      3  C3  <0> d           2.478   1.339  -0.193  0.00  0.00     0.129 A 
ATOM      4  C4  <0> d           2.777  -0.075  -0.423  0.00  0.00     0.295 A 
ATOM      5  O1  <0> d           2.048  -0.893  -0.954  0.00  0.00    -0.264 OA
ATOM      6  N1  <0> d           4.014  -0.300   0.067  0.00  0.00    -0.217 N 
ATOM      7  N2  <0> d           4.500   0.904   0.589  0.00  0.00    -0.289 N 
ATOM      8  C5  <0> d           5.810   1.091   1.216  0.00  0.00     0.178 C 
ENDROOT
BRANCH   3   9
ATOM      9  N3  <0> d           1.291   2.010  -0.546  0.00  0.00    -0.320 N 
ATOM     10  C12 <0> d           0.097   1.511  -0.170  0.00  0.00     0.231 C 
ATOM     11  O2  <0> d           0.038   0.436   0.389  0.00  0.00    -0.272 OA
ATOM     12  H12 <0> d           1.333   2.832  -1.060  0.00  0.00     0.169 HD
BRANCH  10  13
ATOM     13  C13 <0> d          -1.165   2.285  -0.450  0.00  0.00     0.177 C 
BRANCH  13  14
ATOM     14  S1  <0> d          -2.595   1.353   0.165  0.00  0.00    -0.155 SA
BRANCH  14  15
ATOM     15  C14 <0> d          -4.014   2.407  -0.244  0.00  0.00     0.112 C 
BRANCH  15  16
ATOM     16  C15 <0> d          -5.284   1.740   0.218  0.00  0.00    -0.048 A 
ATOM     17  C20 <0> d          -5.767   1.981   1.491  0.00  0.00     0.027 A 
ATOM     18  C19 <0> d          -6.933   1.369   1.916  0.00  0.00     0.011 A 
ATOM     19  C18 <0> d          -7.615   0.517   1.067  0.00  0.00     0.019 A 
ATOM     20 Br1  <0> d          -7.593   1.698   3.657  0.00  0.00    -0.051 Br
ATOM     21  C17 <0> d          -7.132   0.277  -0.206  0.00  0.00     0.002 A 
ATOM     22  C16 <0> d          -5.970   0.893  -0.632  0.00  0.00     0.008 A 
ENDBRANCH  15  16
ENDBRANCH  14  15
ENDBRANCH  13  14
ENDBRANCH  10  13
ENDBRANCH   3   9
BRANCH   6  23
ATOM     23  C6  <0> d           4.693  -1.522   0.053  0.00  0.00     0.060 A 
ATOM     24  C11 <0> d           4.057  -2.676   0.494  0.00  0.00     0.031 A 
ATOM     25  C10 <0> d           4.731  -3.882   0.479  0.00  0.00     0.002 A 
ATOM     26  C9  <0> d           6.036  -3.941   0.026  0.00  0.00     0.000 A 
ATOM     27  C8  <0> d           6.672  -2.794  -0.412  0.00  0.00     0.002 A 
ATOM     28  C7  <0> d           6.002  -1.586  -0.406  0.00  0.00     0.031 A 
ENDBRANCH   6  23
TORSDOF 6
