REMARK  5 active torsions:
REMARK  status: ('A' for Active; 'I' for Inactive)
REMARK    1  A    between atoms: N1_2  and  C2_3 
REMARK    2  A    between atoms: N1_2  and  S2_10 
REMARK    3  A    between atoms: S2_10  and  C6_13 
REMARK    4  A    between atoms: C6_13  and  C7_14 
REMARK    5  A    between atoms: C7_14  and  C8_15 
ROOT
ATOM      1  S2  <0> d          -0.000  -0.824  -1.437  0.00  0.00     0.228 S 
ATOM      2  O3  <0> d          -0.583  -2.084  -1.135  0.00  0.00    -0.206 OA
ATOM      3  O4  <0> d          -0.624   0.060  -2.357  0.00  0.00    -0.206 OA
ENDROOT
BRANCH   1   4
ATOM      4  N1  <0> d           0.002  -0.004   0.002  0.00  0.00    -0.309 N 
ATOM      5  C1  <0> d          -0.018   1.461   0.010  0.00  0.00     0.163 C 
BRANCH   4   6
ATOM      6  C2  <0> d           0.024  -0.743   1.267  0.00  0.00     0.110 C 
ATOM      7  C5  <0> d          -1.249  -0.407   2.081  0.00  0.00     0.166 C 
ATOM      8  S1  <0> d          -0.663  -0.534   3.819  0.00  0.00     0.146 S 
ATOM      9  C4  <0> d           1.118  -0.895   3.515  0.00  0.00     0.142 C 
ATOM     10  O1  <0> d          -0.777   0.740   4.438  0.00  0.00    -0.228 OA
ATOM     11  O2  <0> d          -1.266  -1.666   4.430  0.00  0.00    -0.228 OA
ATOM     12  C3  <0> d           1.276  -0.348   2.067  0.00  0.00     0.042 C 
ENDBRANCH   4   6
ENDBRANCH   1   4
BRANCH   1  13
ATOM     13  C6  <0> d           1.752  -1.031  -1.858  0.00  0.00     0.163 C 
BRANCH  13  14
ATOM     14  C7  <0> d           1.872  -1.785  -3.184  0.00  0.00     0.021 C 
BRANCH  14  15
ATOM     15  C8  <0> d           3.349  -1.960  -3.540  0.00  0.00    -0.010 C 
ATOM     16  C12 <0> d           3.470  -2.602  -4.925  0.00  0.00     0.032 C 
ATOM     17  C11 <0> d           4.948  -2.847  -5.240  0.00  0.00     0.232 C 
ATOM     18  N2  <0> d           5.525  -3.743  -4.231  0.00  0.00    -0.075 N 
ATOM     19  C10 <0> d           5.478  -3.103  -2.911  0.00  0.00     0.232 C 
ATOM     20  H20 <0> d           6.484  -3.944  -4.472  0.00  0.00     0.277 HD
ATOM     21  H25 <0> d           4.999  -4.603  -4.206  0.00  0.00     0.277 HD
ATOM     22  C9  <0> d           4.021  -2.868  -2.506  0.00  0.00     0.032 C 
ENDBRANCH  14  15
ENDBRANCH  13  14
ENDBRANCH   1  13
TORSDOF 5
