REMARK  2 active torsions:
REMARK  status: ('A' for Active; 'I' for Inactive)
REMARK       I    between atoms: N1_4  and  C6_7 
REMARK    1  A    between atoms: C6_7  and  C7_9 
REMARK    2  A    between atoms: C7_9  and  N2_10 
ROOT
ATOM      1  N2  <0> d           4.363  -2.736   1.682  0.00  0.00    -0.257 N 
ATOM      2  C8  <0> d           5.056  -3.061   0.576  0.00  0.00     0.265 A 
ATOM      3  O2  <0> d           4.581  -2.868  -0.528  0.00  0.00    -0.267 OA
ATOM      4  C9  <0> d           6.402  -3.656   0.720  0.00  0.00     0.073 A 
ATOM      5  C10 <0> d           7.326  -4.082  -0.342  0.00  0.00    -0.026 A 
ATOM      6  C11 <0> d           8.488  -4.592   0.096  0.00  0.00    -0.008 A 
ATOM      7  S1  <0> d           8.374  -4.512   1.866  0.00  0.00    -0.075 SA
ATOM      8  C12 <0> d           6.855  -3.836   2.022  0.00  0.00     0.094 A 
ATOM      9  N3  <0> d           6.082  -3.476   3.097  0.00  0.00    -0.301 N 
ATOM     10  H1  <0> d           6.418  -3.610   3.997  0.00  0.00     0.171 HD
ATOM     11  C13 <0> d           4.864  -2.933   2.913  0.00  0.00     0.330 A 
ATOM     12  O3  <0> d           4.201  -2.618   3.882  0.00  0.00    -0.246 OA
ATOM     13  C14 <0> d           9.383  -5.011  -1.039  0.00  0.00     0.047 C 
ATOM     14  C15 <0> d           8.445  -5.089  -2.265  0.00  0.00     0.010 C 
ATOM     15  C16 <0> d           7.327  -4.103  -1.869  0.00  0.00     0.041 C 
ENDROOT
BRANCH   1  16
ATOM     16  C7  <0> d           3.030  -2.146   1.542  0.00  0.00     0.240 C 
BRANCH  16  17
ATOM     17  C6  <0> d           3.149  -0.646   1.466  0.00  0.00     0.238 C 
ATOM     18  N1  <0> d           2.043   0.113   1.334  0.00  0.00    -0.351 N 
ATOM     19  C3  <0> d           2.144   1.577   1.259  0.00  0.00     0.126 C 
ATOM     20  C4  <0> d           0.714  -0.508   1.262  0.00  0.00     0.126 C 
ATOM     21  C2  <0> d           1.417   2.058  -0.000  0.00  0.00     0.020 C 
ATOM     22  C1  <0> d          -0.019   1.526   0.010  0.00  0.00     0.003 C 
ATOM     23  C5  <0> d           0.002  -0.004   0.002  0.00  0.00     0.020 C 
ATOM     24  O1  <0> d           4.241  -0.121   1.524  0.00  0.00    -0.272 OA
ENDBRANCH  16  17
ENDBRANCH   1  16
TORSDOF 2
