REMARK  2 active torsions:
REMARK  status: ('A' for Active; 'I' for Inactive)
REMARK    1  A    between atoms: C4_5  and  C7_10 
REMARK       I    between atoms: C7_10  and  N4_12 
REMARK    2  A    between atoms: N4_12  and  C8_13 
ROOT
ATOM      1  C1  <0> d          -0.016   1.353   0.009  0.00  0.00     0.038 A 
ATOM      2  C2  <0> d           1.194   2.056   0.002  0.00  0.00     0.120 A 
ATOM      3  N1  <0> d           2.336   1.403  -0.013  0.00  0.00    -0.240 NA
ATOM      4  C3  <0> d           2.361   0.070  -0.020  0.00  0.00     0.167 A 
ATOM      5  C4  <0> d           3.418  -0.861  -0.035  0.00  0.00     0.099 A 
ATOM      6  C5  <0> d           2.835  -2.142  -0.036  0.00  0.00     0.160 A 
ATOM      7  N2  <0> d           1.534  -2.011  -0.023  0.00  0.00    -0.178 NA
ATOM      8  N3  <0> d           1.201  -0.652  -0.013  0.00  0.00    -0.226 N 
ATOM      9  C6  <0> d           0.002  -0.004   0.002  0.00  0.00     0.122 A 
ENDROOT
BRANCH   5  10
ATOM     10  C7  <0> d           4.850  -0.555  -0.048  0.00  0.00     0.263 C 
ATOM     11  O1  <0> d           5.225   0.603  -0.046  0.00  0.00    -0.267 OA
ATOM     12  N4  <0> d           5.753  -1.556  -0.062  0.00  0.00    -0.302 N 
ATOM     13  H5  <0> d           5.454  -2.478  -0.063  0.00  0.00     0.171 HD
BRANCH  12  14
ATOM     14  C8  <0> d           7.103  -1.267  -0.074  0.00  0.00     0.164 C 
ATOM     15  S1  <0> d           8.457  -2.431  -0.093  0.00  0.00    -0.091 SA
ATOM     16  C10 <0> d           9.815  -1.250   0.304  0.00  0.00     0.104 C 
ATOM     17  C9  <0> d           9.100   0.066  -0.107  0.00  0.00     0.162 C 
ATOM     18  N5  <0> d           7.657  -0.089  -0.068  0.00  0.00    -0.266 NA
ENDBRANCH  12  14
ENDBRANCH   5  10
TORSDOF 2
