REMARK  6 active torsions:
REMARK  status: ('A' for Active; 'I' for Inactive)
REMARK    1  A    between atoms: C2_2  and  N1_9 
REMARK    2  A    between atoms: N1_9  and  C6_10 
REMARK    3  A    between atoms: C6_10  and  C8_12 
REMARK    4  A    between atoms: C6_10  and  C13_18 
REMARK    5  A    between atoms: C8_12  and  C9_13 
REMARK    6  A    between atoms: C9_13  and  O3_16 
ROOT
ATOM      1  N1  <0> d           0.486  -0.293  -1.014  0.00  0.00    -0.047 N 
ATOM      2  H10 <0> d           1.476  -0.214  -0.832  0.00  0.00     0.279 HD
ATOM      3  H25 <0> d           0.164  -1.204  -0.724  0.00  0.00     0.279 HD
ENDROOT
BRANCH   1   4
ATOM      4  C2  <0> d          -0.234   0.744  -0.264  0.00  0.00     0.137 C 
ATOM      5  C1  <0> d          -1.650   0.864  -0.833  0.00  0.00     0.047 C 
ATOM      6  C5  <0> d           0.492   2.089  -0.459  0.00  0.00     0.178 C 
ATOM      7  S1  <0> d           1.065   2.509   1.240  0.00  0.00     0.146 S 
ATOM      8  C4  <0> d           0.897   0.832   1.996  0.00  0.00     0.143 C 
ATOM      9  O1  <0> d           0.128   3.390   1.844  0.00  0.00    -0.228 OA
ATOM     10  O2  <0> d           2.439   2.866   1.196  0.00  0.00    -0.228 OA
ATOM     11  C3  <0> d          -0.330   0.309   1.198  0.00  0.00     0.054 C 
ENDBRANCH   1   4
BRANCH   1  12
ATOM     12  C6  <0> d           0.237  -0.121  -2.451  0.00  0.00     0.212 C 
ATOM     13  C7  <0> d           0.426   1.349  -2.829  0.00  0.00     0.058 C 
BRANCH  12  14
ATOM     14  C8  <0> d           1.221  -0.982  -3.247  0.00  0.00     0.087 C 
BRANCH  14  15
ATOM     15  C9  <0> d           2.602  -0.914  -2.592  0.00  0.00     0.056 C 
ATOM     16  C10 <0> d           3.613  -1.671  -3.456  0.00  0.00     0.045 C 
ATOM     17  C11 <0> d           3.034   0.548  -2.464  0.00  0.00     0.045 C 
BRANCH  15  18
ATOM     18  O3  <0> d           2.545  -1.509  -1.295  0.00  0.00    -0.386 OA
ATOM     19  C12 <0> d           3.790  -1.498  -0.594  0.00  0.00     0.202 C 
ENDBRANCH  15  18
ENDBRANCH  14  15
ENDBRANCH  12  14
BRANCH  12  20
ATOM     20  C13 <0> d          -1.173  -0.545  -2.771  0.00  0.00     0.210 C 
ATOM     21  O4  <0> d          -1.833  -1.145  -1.939  0.00  0.00    -0.646 OA
ATOM     22  O5  <0> d          -1.655  -0.288  -3.861  0.00  0.00    -0.646 OA
ENDBRANCH  12  20
ENDBRANCH   1  12
TORSDOF 6
