REMARK  8 active torsions:
REMARK  status: ('A' for Active; 'I' for Inactive)
REMARK    1  A    between atoms: N1_5  and  C7_8 
REMARK    2  A    between atoms: C7_8  and  C8_9 
REMARK    3  A    between atoms: C9_10  and  O4_22 
REMARK    4  A    between atoms: C12_14  and  C16_20 
REMARK    5  A    between atoms: N2_15  and  C13_16 
REMARK    6  A    between atoms: C13_16  and  C14_17 
REMARK    7  A    between atoms: C14_17  and  O2_18 
REMARK    8  A    between atoms: C16_20  and  O3_21 
ROOT
ATOM      1  C8  <0> d          -0.360  -4.221   2.636  0.00  0.00     0.075 A 
ATOM      2  C9  <0> d          -1.289  -4.859   3.388  0.00  0.00     0.140 A 
ATOM      3  C10 <0> d          -0.895  -5.462   4.609  0.00  0.00     0.208 A 
ATOM      4  O1  <0> d          -1.711  -6.045   5.309  0.00  0.00    -0.285 OA
ATOM      5  C11 <0> d           0.460  -5.377   5.000  0.00  0.00     0.085 A 
ATOM      6  C12 <0> d           1.339  -4.726   4.205  0.00  0.00     0.039 A 
ATOM      7  N2  <0> d           0.936  -4.163   3.041  0.00  0.00    -0.346 N 
ENDROOT
BRANCH   1   8
ATOM      8  C7  <0> d          -0.766  -3.577   1.336  0.00  0.00     0.294 C 
BRANCH   8   9
ATOM      9  N1  <0> d          -0.344  -4.427   0.215  0.00  0.00    -0.066 N 
ATOM     10  C4  <0> d          -0.612  -3.734  -1.051  0.00  0.00     0.235 C 
ATOM     11  C3  <0> d          -0.101  -4.580  -2.218  0.00  0.00     0.032 C 
ATOM     12  C2  <0> d          -0.819  -5.933  -2.214  0.00  0.00    -0.015 C 
ATOM     13  C1  <0> d          -0.257  -6.815  -3.330  0.00  0.00     0.010 C 
ATOM     14  C6  <0> d          -0.595  -6.614  -0.861  0.00  0.00     0.032 C 
ATOM     15  C5  <0> d          -1.088  -5.692   0.256  0.00  0.00     0.235 C 
ATOM     16  H27 <0> d           0.644  -4.616   0.292  0.00  0.00     0.280 HD
ENDBRANCH   8   9
ENDBRANCH   1   8
BRANCH   7  17
ATOM     17  C13 <0> d           1.918  -3.472   2.202  0.00  0.00     0.155 C 
BRANCH  17  18
ATOM     18  C14 <0> d           1.924  -1.981   2.546  0.00  0.00     0.187 C 
BRANCH  18  19
ATOM     19  O2  <0> d           2.391  -1.804   3.885  0.00  0.00    -0.394 OA
ATOM     20  C15 <0> d           2.435  -0.440   4.309  0.00  0.00     0.201 C 
ENDBRANCH  18  19
ENDBRANCH  17  18
ENDBRANCH   7  17
BRANCH   2  21
ATOM     21  O4  <0> d          -2.585  -4.918   2.977  0.00  0.00    -0.355 OA
ATOM     22  H26 <0> d          -3.168  -5.395   3.583  0.00  0.00     0.218 HD
ENDBRANCH   2  21
BRANCH   6  23
ATOM     23  C16 <0> d           2.786  -4.631   4.616  0.00  0.00     0.221 C 
BRANCH  23  24
ATOM     24  O3  <0> d           2.971  -5.299   5.866  0.00  0.00    -0.395 OA
ATOM     25  H25 <0> d           3.881  -5.278   6.192  0.00  0.00     0.209 HD
ENDBRANCH  23  24
ENDBRANCH   6  23
TORSDOF 8
