REMARK  4 active torsions:
REMARK  status: ('A' for Active; 'I' for Inactive)
REMARK    1  A    between atoms: C2_2  and  N1_5 
REMARK       I    between atoms: N1_5  and  C5_6 
REMARK    2  A    between atoms: C5_6  and  C6_8 
REMARK    3  A    between atoms: C12_15  and  C18_21 
REMARK    4  A    between atoms: C21_24  and  N3_27 
ROOT
ATOM      1  C6  <0> d           1.876   1.017   0.108  0.00  0.00     0.053 A 
ATOM      2  C7  <0> d           1.639  -0.354   0.171  0.00  0.00     0.019 A 
ATOM      3  C8  <0> d           0.347  -0.829   0.242  0.00  0.00     0.002 A 
ATOM      4  C9  <0> d          -0.715   0.060   0.241  0.00  0.00     0.010 A 
ATOM      5  C10 <0> d          -0.499   1.419   0.171  0.00  0.00    -0.028 A 
ATOM      6  C11 <0> d           0.801   1.930   0.116  0.00  0.00     0.031 A 
ATOM      7  N2  <0> d           1.106   3.280   0.089  0.00  0.00    -0.282 NA
ATOM      8  C12 <0> d          -0.025   4.216  -0.011  0.00  0.00     0.098 C 
ATOM      9  C13 <0> d          -1.134   3.670   0.864  0.00  0.00     0.023 C 
ATOM     10  C14 <0> d          -1.620   2.383   0.128  0.00  0.00     0.049 C 
ATOM     11  C15 <0> d          -2.937   2.114   0.753  0.00  0.00    -0.021 C 
ATOM     12  C16 <0> d          -3.453   3.267   1.164  0.00  0.00    -0.029 C 
ATOM     13  C17 <0> d          -2.477   4.410   0.868  0.00  0.00     0.034 C 
ATOM     14  H17 <0> d           1.714   3.529   0.855  0.00  0.00     0.128 HD
ENDROOT
BRANCH   8  15
ATOM     15  C18 <0> d          -0.495   4.303  -1.440  0.00  0.00    -0.040 A 
ATOM     16  C23 <0> d          -1.158   5.433  -1.882  0.00  0.00     0.011 A 
ATOM     17  C22 <0> d          -1.588   5.513  -3.193  0.00  0.00     0.037 A 
ATOM     18  C21 <0> d          -1.356   4.463  -4.063  0.00  0.00     0.102 A 
ATOM     19  C20 <0> d          -0.692   3.334  -3.621  0.00  0.00     0.037 A 
ATOM     20  C19 <0> d          -0.257   3.256  -2.311  0.00  0.00     0.011 A 
BRANCH  18  21
ATOM     21  N3  <0> d          -1.817   4.549  -5.467  0.00  0.00    -0.116 N 
ATOM     22  O2  <0> d          -2.401   5.544  -5.856  0.00  0.00    -0.532 OA
ATOM     23  O3  <0> d          -1.612   3.625  -6.232  0.00  0.00    -0.532 OA
ENDBRANCH  18  21
ENDBRANCH   8  15
BRANCH   1  24
ATOM     24  C5  <0> d           3.261   1.518   0.034  0.00  0.00     0.254 C 
ATOM     25  N1  <0> d           4.292   0.650   0.027  0.00  0.00    -0.349 N 
ATOM     26  H13 <0> d           4.123  -0.304   0.070  0.00  0.00     0.163 HD
ATOM     27  O1  <0> d           3.473   2.714  -0.021  0.00  0.00    -0.268 OA
BRANCH  25  28
ATOM     28  C2  <0> d           5.668   1.147  -0.047  0.00  0.00     0.022 C 
ATOM     29  C1  <0> d           5.950   2.047   1.157  0.00  0.00     0.037 C 
ATOM     30  C3  <0> d           6.639  -0.035  -0.040  0.00  0.00     0.037 C 
ATOM     31  C4  <0> d           5.852   1.950  -1.337  0.00  0.00     0.037 C 
ENDBRANCH  25  28
ENDBRANCH   1  24
TORSDOF 4
