REMARK  7 active torsions:
REMARK  status: ('A' for Active; 'I' for Inactive)
REMARK    1  A    between atoms: N1_3  and  C19_29 
REMARK    2  A    between atoms: C5_7  and  C6_8 
REMARK    3  A    between atoms: C8_10  and  C9_14 
REMARK       I    between atoms: C9_14  and  N5_16 
REMARK    4  A    between atoms: N5_16  and  N6_17 
REMARK    5  A    between atoms: C10_18  and  C11_19 
REMARK    6  A    between atoms: C14_22  and  C17_25 
REMARK    7  A    between atoms: C17_25  and  O3_27 
ROOT
ATOM      1  C6  <0> d           3.102   5.204  -3.411  0.00  0.00     0.045 A 
ATOM      2  C7  <0> d           1.920   5.160  -2.753  0.00  0.00     0.067 A 
ATOM      3  C8  <0> d           1.694   3.791  -2.472  0.00  0.00     0.148 A 
ATOM      4  N3  <0> d           2.716   3.123  -2.970  0.00  0.00    -0.169 NA
ATOM      5  N4  <0> d           3.546   3.933  -3.521  0.00  0.00    -0.281 N 
ATOM      6  H2  <0> d           4.399   3.662  -3.968  0.00  0.00     0.189 HD
ENDROOT
BRANCH   3   7
ATOM      7  C9  <0> d           0.532   3.220  -1.762  0.00  0.00     0.292 C 
ATOM      8  O1  <0> d          -0.348   3.951  -1.350  0.00  0.00    -0.264 OA
ATOM      9  N5  <0> d           0.448   1.889  -1.570  0.00  0.00    -0.242 N 
ATOM     10  H10 <0> d           1.150   1.306  -1.899  0.00  0.00     0.192 HD
BRANCH   9  11
ATOM     11  N6  <0> d          -0.655   1.347  -0.896  0.00  0.00    -0.183 NA
ATOM     12  C10 <0> d          -0.668   0.087  -0.582  0.00  0.00     0.150 C 
BRANCH  12  13
ATOM     13  C11 <0> d           0.582  -0.691  -0.602  0.00  0.00    -0.017 A 
ATOM     14  C16 <0> d           1.815  -0.035  -0.520  0.00  0.00     0.014 A 
ATOM     15  C15 <0> d           2.975  -0.757  -0.539  0.00  0.00     0.018 A 
ATOM     16  C14 <0> d           2.930  -2.151  -0.640  0.00  0.00     0.039 A 
ATOM     17  C13 <0> d           1.697  -2.807  -0.722  0.00  0.00     0.018 A 
ATOM     18  C12 <0> d           0.537  -2.086  -0.698  0.00  0.00     0.014 A 
BRANCH  16  19
ATOM     19  C17 <0> d           4.182  -2.930  -0.660  0.00  0.00     0.292 C 
ATOM     20  O2  <0> d           5.253  -2.360  -0.589  0.00  0.00    -0.259 OA
BRANCH  19  21
ATOM     21  O3  <0> d           4.139  -4.273  -0.757  0.00  0.00    -0.323 OA
ATOM     22  C18 <0> d           5.410  -4.974  -0.772  0.00  0.00     0.213 C 
ENDBRANCH  19  21
ENDBRANCH  16  19
ENDBRANCH  12  13
ENDBRANCH   9  11
ENDBRANCH   3   7
BRANCH   1  23
ATOM     23  C5  <0> d           3.792   6.439  -3.929  0.00  0.00     0.135 A 
ATOM     24  C2  <0> d           5.294   6.296  -3.818  0.00  0.00     0.024 A 
ATOM     25  C1  <0> d           6.076   6.109  -2.543  0.00  0.00     0.066 C 
ATOM     26  N1  <0> d           5.786   6.362  -5.009  0.00  0.00    -0.264 N 
ATOM     27  N2  <0> d           4.816   6.539  -5.992  0.00  0.00    -0.298 N 
ATOM     28  C3  <0> d           3.550   6.599  -5.418  0.00  0.00     0.032 A 
ATOM     29  H6  <0> d           4.998   6.612  -6.942  0.00  0.00     0.187 HD
ATOM     30  C4  <0> d           2.393   6.758  -6.034  0.00  0.00     0.041 C 
BRANCH  26  31
ATOM     31  C19 <0> d           7.133   6.268  -5.279  0.00  0.00     0.056 A 
ATOM     32  C24 <0> d           7.879   5.211  -4.760  0.00  0.00     0.031 A 
ATOM     33  C23 <0> d           9.229   5.121  -5.034  0.00  0.00     0.002 A 
ATOM     34  C22 <0> d           9.841   6.078  -5.824  0.00  0.00     0.000 A 
ATOM     35  C21 <0> d           9.107   7.129  -6.342  0.00  0.00     0.002 A 
ATOM     36  C20 <0> d           7.755   7.226  -6.079  0.00  0.00     0.031 A 
ENDBRANCH  26  31
ENDBRANCH   1  23
TORSDOF 7
