REMARK  5 active torsions:
REMARK  status: ('A' for Active; 'I' for Inactive)
REMARK    1  A    between atoms: C3_3  and  C5_6 
REMARK    2  A    between atoms: C8_9  and  C10_14 
REMARK       I    between atoms: C10_14  and  N2_16 
REMARK    3  A    between atoms: N2_16  and  C11_17 
REMARK    4  A    between atoms: C11_17  and  C12_18 
REMARK    5  A    between atoms: C12_18  and  C13_19 
ROOT
ATOM      1  C10 <0> d           7.784   0.484  -0.070  0.00  0.00     0.257 C 
ATOM      2  O3  <0> d           8.434   1.509  -0.160  0.00  0.00    -0.267 OA
ATOM      3  N2  <0> d           8.411  -0.706   0.013  0.00  0.00    -0.356 N 
ATOM      4  H7  <0> d           7.894  -1.528   0.011  0.00  0.00     0.162 HD
ENDROOT
BRANCH   1   5
ATOM      5  C8  <0> d           6.318   0.544  -0.053  0.00  0.00     0.100 A 
ATOM      6  C7  <0> d           5.661   1.779  -0.015  0.00  0.00     0.025 A 
ATOM      7  C6  <0> d           4.277   1.808  -0.000  0.00  0.00     0.034 A 
ATOM      8  C5  <0> d           3.560   0.618  -0.023  0.00  0.00     0.069 A 
ATOM      9  N1  <0> d           4.208  -0.587  -0.054  0.00  0.00    -0.320 N 
ATOM     10  C9  <0> d           5.552  -0.648  -0.075  0.00  0.00     0.261 A 
ATOM     11  H1  <0> d           3.691  -1.408  -0.066  0.00  0.00     0.169 HD
ATOM     12  O2  <0> d           6.112  -1.730  -0.108  0.00  0.00    -0.267 OA
BRANCH   8  13
ATOM     13  C3  <0> d           2.096   0.654  -0.007  0.00  0.00     0.101 A 
ATOM     14  C2  <0> d           1.320   1.779   0.025  0.00  0.00     0.041 A 
ATOM     15  C1  <0> d          -0.016   1.348   0.030  0.00  0.00     0.027 A 
ATOM     16  C4  <0> d           0.002  -0.003   0.002  0.00  0.00     0.142 A 
ATOM     17  O1  <0> d           1.277  -0.417  -0.020  0.00  0.00    -0.321 OA
ENDBRANCH   8  13
ENDBRANCH   1   5
BRANCH   3  18
ATOM     18  C11 <0> d           9.872  -0.760   0.109  0.00  0.00     0.127 C 
BRANCH  18  19
ATOM     19  C12 <0> d          10.324  -2.219   0.192  0.00  0.00     0.058 C 
BRANCH  19  20
ATOM     20  C13 <0> d          11.827  -2.274   0.290  0.00  0.00    -0.051 A 
ATOM     21  C18 <0> d          12.439  -2.255   1.529  0.00  0.00     0.049 A 
ATOM     22  C17 <0> d          13.820  -2.311   1.621  0.00  0.00     0.119 A 
ATOM     23  C16 <0> d          14.587  -2.375   0.470  0.00  0.00     0.084 A 
ATOM     24  F1  <0> d          14.418  -2.299   2.832  0.00  0.00    -0.206 F 
ATOM     25  C15 <0> d          13.973  -2.388  -0.770  0.00  0.00     0.119 A 
ATOM     26  C14 <0> d          12.592  -2.337  -0.859  0.00  0.00     0.049 A 
ATOM     27  F2  <0> d          14.721  -2.451  -1.893  0.00  0.00    -0.206 F 
ENDBRANCH  19  20
ENDBRANCH  18  19
ENDBRANCH   3  18
TORSDOF 5
