REMARK  7 active torsions:
REMARK  status: ('A' for Active; 'I' for Inactive)
REMARK    1  A    between atoms: C4_4  and  C7_7 
REMARK    2  A    between atoms: C7_7  and  S1_8 
REMARK    3  A    between atoms: S1_8  and  C8_9 
REMARK    4  A    between atoms: C9_12  and  C10_14 
REMARK    5  A    between atoms: C10_14  and  C11_15 
REMARK    6  A    between atoms: C10_14  and  N4_25 
REMARK    7  A    between atoms: C11_15  and  C12_16 
ROOT
ATOM      1  C10 <0> d           6.567  -3.763  -1.442  0.00  0.00     0.239 C 
ENDROOT
BRANCH   1   2
ATOM      2  C9  <0> d           6.853  -3.187  -0.053  0.00  0.00     0.300 C 
ATOM      3  N2  <0> d           7.332  -1.803  -0.165  0.00  0.00    -0.160 NA
ATOM      4  N1  <0> d           6.769  -1.089   0.675  0.00  0.00    -0.151 NA
ATOM      5  C8  <0> d           5.831  -1.891   1.472  0.00  0.00     0.332 C 
ATOM      6  O1  <0> d           5.635  -3.107   0.719  0.00  0.00    -0.324 OA
BRANCH   5   7
ATOM      7  S1  <0> d           4.257  -1.011   1.666  0.00  0.00    -0.108 SA
BRANCH   7   8
ATOM      8  C7  <0> d           3.711  -0.707  -0.038  0.00  0.00     0.116 C 
BRANCH   8   9
ATOM      9  C4  <0> d           2.396   0.029  -0.020  0.00  0.00    -0.049 A 
ATOM     10  C3  <0> d           2.377   1.411  -0.013  0.00  0.00     0.008 A 
ATOM     11  C2  <0> d           1.171   2.086   0.002  0.00  0.00     0.001 A 
ATOM     12  C1  <0> d          -0.017   1.378   0.010  0.00  0.00     0.000 A 
ATOM     13  C6  <0> d           0.002  -0.004   0.002  0.00  0.00     0.001 A 
ATOM     14  C5  <0> d           1.208  -0.679  -0.012  0.00  0.00     0.008 A 
ENDBRANCH   8   9
ENDBRANCH   7   8
ENDBRANCH   5   7
ENDBRANCH   1   2
BRANCH   1  15
ATOM     15  C11 <0> d           7.857  -3.778  -2.263  0.00  0.00     0.074 C 
BRANCH  15  16
ATOM     16  C12 <0> d           7.604  -4.457  -3.585  0.00  0.00    -0.048 A 
ATOM     17  C19 <0> d           7.650  -5.942  -3.867  0.00  0.00     0.155 A 
ATOM     18  N3  <0> d           7.330  -6.090  -5.292  0.00  0.00    -0.385 N 
ATOM     19  C18 <0> d           7.131  -4.899  -5.802  0.00  0.00     0.038 A 
ATOM     20  H21 <0> d           7.279  -6.929  -5.776  0.00  0.00     0.160 HD
ATOM     21  C13 <0> d           7.295  -3.861  -4.759  0.00  0.00    -0.006 A 
ATOM     22  C17 <0> d           6.801  -4.476  -7.119  0.00  0.00     0.030 A 
ATOM     23  C14 <0> d           7.109  -2.457  -5.143  0.00  0.00     0.014 A 
ATOM     24  C15 <0> d           6.797  -2.163  -6.426  0.00  0.00     0.001 A 
ATOM     25  C16 <0> d           6.646  -3.164  -7.395  0.00  0.00     0.002 A 
ENDBRANCH  15  16
ENDBRANCH   1  15
BRANCH   1  26
ATOM     26  N4  <0> d           5.564  -2.932  -2.120  0.00  0.00    -0.070 N 
ATOM     27  H19 <0> d           5.914  -1.990  -2.212  0.00  0.00     0.274 HD
ATOM     28  H20 <0> d           5.375  -3.312  -3.035  0.00  0.00     0.274 HD
ATOM     29  H22 <0> d           4.713  -2.922  -1.578  0.00  0.00     0.274 HD
ENDBRANCH   1  26
TORSDOF 7
