REMARK  10 active torsions:
REMARK  status: ('A' for Active; 'I' for Inactive)
REMARK    1  A    between atoms: N1_2  and  C3_4 
REMARK    2  A    between atoms: C3_4  and  C4_5 
REMARK    3  A    between atoms: C4_5  and  C5_6 
REMARK    4  A    between atoms: C5_6  and  O1_7 
REMARK    5  A    between atoms: O1_7  and  C6_8 
REMARK    6  A    between atoms: C9_11  and  C12_14 
REMARK    7  A    between atoms: C12_14  and  C13_15 
REMARK    8  A    between atoms: C12_14  and  N3_17 
REMARK    9  A    between atoms: C13_15  and  N2_16 
REMARK   10  A    between atoms: N3_17  and  C15_19 
ROOT
ATOM      1  C6  <0> d          -1.306   2.887   0.066  0.00  0.00     0.068 A 
ATOM      2  C7  <0> d          -1.148   1.531   0.314  0.00  0.00     0.037 A 
ATOM      3  C8  <0> d           0.107   0.960   0.246  0.00  0.00     0.012 A 
ATOM      4  C9  <0> d           1.205   1.735  -0.080  0.00  0.00    -0.034 A 
ATOM      5  C10 <0> d           1.049   3.085  -0.334  0.00  0.00     0.012 A 
ATOM      6  C11 <0> d          -0.204   3.663  -0.262  0.00  0.00     0.037 A 
ENDROOT
BRANCH   4   7
ATOM      7  C12 <0> d           2.573   1.108  -0.159  0.00  0.00     0.142 C 
BRANCH   7   8
ATOM      8  C13 <0> d           3.113   1.240  -1.585  0.00  0.00     0.259 C 
BRANCH   8   9
ATOM      9  N2  <0> d           4.492   0.736  -1.634  0.00  0.00    -0.077 N 
ATOM     10  H20 <0> d           4.880   0.831  -2.659  0.00  0.00     0.274 HD
ATOM     11  H21 <0> d           4.507  -0.321  -1.333  0.00  0.00     0.274 HD
ATOM     12  H31 <0> d           5.121   1.322  -0.948  0.00  0.00     0.274 HD
ENDBRANCH   8   9
ENDBRANCH   7   8
BRANCH   7  13
ATOM     13  N3  <0> d           3.477   1.789   0.771  0.00  0.00    -0.375 N 
ATOM     14  C14 <0> d           3.839   3.190   0.546  0.00  0.00     0.150 C 
BRANCH  13  15
ATOM     15  C15 <0> d           3.994   1.102   1.872  0.00  0.00     0.030 A 
ATOM     16  C20 <0> d           4.758   1.775   2.816  0.00  0.00     0.029 A 
ATOM     17  C19 <0> d           5.267   1.093   3.903  0.00  0.00     0.002 A 
ATOM     18  C18 <0> d           5.017  -0.259   4.053  0.00  0.00     0.000 A 
ATOM     19  C17 <0> d           4.256  -0.932   3.115  0.00  0.00     0.002 A 
ATOM     20  C16 <0> d           3.739  -0.255   2.027  0.00  0.00     0.029 A 
ENDBRANCH  13  15
ENDBRANCH   7  13
ENDBRANCH   4   7
BRANCH   1  21
ATOM     21  O1  <0> d          -2.540   3.453   0.137  0.00  0.00    -0.351 OA
BRANCH  21  22
ATOM     22  C5  <0> d          -3.629   2.594   0.479  0.00  0.00     0.177 C 
BRANCH  22  23
ATOM     23  C4  <0> d          -4.927   3.403   0.510  0.00  0.00     0.054 C 
BRANCH  23  24
ATOM     24  C3  <0> d          -6.093   2.483   0.877  0.00  0.00     0.236 C 
BRANCH  24  25
ATOM     25  N1  <0> d          -7.339   3.260   0.907  0.00  0.00    -0.079 N 
ATOM     26  C1  <0> d          -7.688   3.748  -0.435  0.00  0.00     0.269 C 
ATOM     27  C2  <0> d          -8.438   2.472   1.482  0.00  0.00     0.269 C 
ATOM     28  H30 <0> d          -7.177   4.136   1.552  0.00  0.00     0.278 HD
ENDBRANCH  24  25
ENDBRANCH  23  24
ENDBRANCH  22  23
ENDBRANCH  21  22
ENDBRANCH   1  21
TORSDOF 10
