REMARK  8 active torsions:
REMARK  status: ('A' for Active; 'I' for Inactive)
REMARK    1  A    between atoms: C2_2  and  N1_3 
REMARK    2  A    between atoms: N1_3  and  C3_4 
REMARK       I    between atoms: N1_3  and  C5_6 
REMARK    3  A    between atoms: C5_6  and  C6_8 
REMARK    4  A    between atoms: C6_8  and  N2_9 
REMARK    5  A    between atoms: N2_9  and  C8_11 
REMARK    6  A    between atoms: C8_11  and  C9_12 
REMARK    7  A    between atoms: C8_11  and  C15_19 
REMARK    8  A    between atoms: C15_19  and  N3_21 
ROOT
ATOM      1  C8  <0> d          -5.272  -1.807   2.599  0.00  0.00     0.287 C 
ENDROOT
BRANCH   1   2
ATOM      2  N2  <0> d          -3.860  -1.973   2.228  0.00  0.00     0.104 N 
ATOM      3  C7  <0> d          -3.257  -3.104   2.946  0.00  0.00     0.311 C 
BRANCH   2   4
ATOM      4  C6  <0> d          -3.713  -2.133   0.775  0.00  0.00     0.375 C 
BRANCH   4   5
ATOM      5  C5  <0> d          -2.253  -2.054   0.406  0.00  0.00     0.248 C 
ATOM      6  N1  <0> d          -1.876  -2.175  -0.882  0.00  0.00    -0.351 N 
ATOM      7  O1  <0> d          -1.419  -1.883   1.269  0.00  0.00    -0.271 OA
BRANCH   6   8
ATOM      8  C2  <0> d          -0.458  -2.099  -1.240  0.00  0.00     0.121 C 
ATOM      9  C1  <0> d          -0.083  -0.645  -1.534  0.00  0.00     0.026 C 
ENDBRANCH   6   8
BRANCH   6  10
ATOM     10  C3  <0> d          -2.885  -2.383  -1.924  0.00  0.00     0.121 C 
ATOM     11  C4  <0> d          -3.117  -3.883  -2.118  0.00  0.00     0.026 C 
ENDBRANCH   6  10
ENDBRANCH   4   5
ENDBRANCH   2   4
ENDBRANCH   1   2
BRANCH   1  12
ATOM     12  C9  <0> d          -5.807  -0.540   1.981  0.00  0.00    -0.006 A 
ATOM     13  C14 <0> d          -7.137  -0.461   1.609  0.00  0.00     0.019 A 
ATOM     14  C13 <0> d          -7.629   0.703   1.046  0.00  0.00     0.019 A 
ATOM     15 Br1  <0> d          -8.283  -1.941   1.875  0.00  0.00    -0.050 Br
ATOM     16  C12 <0> d          -6.790   1.782   0.847  0.00  0.00     0.001 A 
ATOM     17  C11 <0> d          -5.459   1.701   1.215  0.00  0.00     0.001 A 
ATOM     18  C10 <0> d          -4.968   0.540   1.781  0.00  0.00     0.011 A 
ENDBRANCH   1  12
BRANCH   1  19
ATOM     19  C15 <0> d          -5.392  -1.722   4.121  0.00  0.00     0.217 C 
ATOM     20  C16 <0> d          -4.527  -0.571   4.638  0.00  0.00     0.042 C 
BRANCH  19  21
ATOM     21  N3  <0> d          -6.795  -1.484   4.489  0.00  0.00    -0.073 N 
ATOM     22  H25 <0> d          -6.870  -1.398   5.491  0.00  0.00     0.274 HD
ATOM     23  H26 <0> d          -7.117  -0.633   4.053  0.00  0.00     0.274 HD
ATOM     24  H27 <0> d          -7.361  -2.258   4.175  0.00  0.00     0.274 HD
ENDBRANCH  19  21
ENDBRANCH   1  19
TORSDOF 8
