REMARK  6 active torsions:
REMARK  status: ('A' for Active; 'I' for Inactive)
REMARK    1  A    between atoms: C4_5  and  C9_11 
REMARK    2  A    between atoms: C9_11  and  N2_12 
REMARK       I    between atoms: N2_12  and  C10_13 
REMARK    3  A    between atoms: C10_13  and  C11_15 
REMARK    4  A    between atoms: C11_15  and  C12_16 
REMARK    5  A    between atoms: N4_22  and  C16_23 
REMARK    6  A    between atoms: C16_23  and  C17_24 
ROOT
ATOM      1  C11 <0> d           9.847   4.461  -4.637  0.00  0.00     0.145 C 
ENDROOT
BRANCH   1   2
ATOM      2  C10 <0> d           9.993   5.355  -3.433  0.00  0.00     0.220 C 
ATOM      3  N2  <0> d           9.380   6.555  -3.407  0.00  0.00    -0.359 N 
ATOM      4  H9  <0> d           8.844   6.843  -4.163  0.00  0.00     0.162 HD
ATOM      5  O1  <0> d          10.663   4.996  -2.488  0.00  0.00    -0.274 OA
BRANCH   3   6
ATOM      6  C9  <0> d           9.521   7.425  -2.237  0.00  0.00     0.151 C 
BRANCH   6   7
ATOM      7  C4  <0> d           8.732   8.716  -2.462  0.00  0.00     0.123 A 
ATOM      8  N1  <0> d           7.334   8.404  -2.783  0.00  0.00    -0.380 N 
ATOM      9  C3  <0> d           6.566   8.939  -1.865  0.00  0.00     0.038 A 
ATOM     10  H30 <0> d           7.030   7.889  -3.546  0.00  0.00     0.160 HD
ATOM     11  C2  <0> d           5.153   8.941  -1.698  0.00  0.00     0.033 A 
ATOM     12  C6  <0> d           7.387   9.650  -0.859  0.00  0.00    -0.009 A 
ATOM     13  C1  <0> d           4.592   9.576  -0.647  0.00  0.00     0.044 A 
ATOM     14  C8  <0> d           5.348  10.257   0.320  0.00  0.00     0.117 A 
ATOM     15  C7  <0> d           6.699  10.316   0.253  0.00  0.00     0.055 A 
ATOM     16  F1  <0> d           4.712  10.869   1.342  0.00  0.00    -0.206 F 
ATOM     17  C5  <0> d           8.693   9.533  -1.190  0.00  0.00     0.013 A 
ENDBRANCH   6   7
ENDBRANCH   3   6
ENDBRANCH   1   2
BRANCH   1  18
ATOM     18  C12 <0> d          10.736   3.227  -4.466  0.00  0.00     0.288 C 
ATOM     19  N4  <0> d          10.146   2.339  -3.457  0.00  0.00    -0.056 N 
ATOM     20  C15 <0> d          11.097   1.257  -3.159  0.00  0.00     0.255 C 
ATOM     21  H31 <0> d           9.954   2.863  -2.616  0.00  0.00     0.281 HD
ATOM     22  C14 <0> d          12.281   1.844  -2.387  0.00  0.00     0.150 C 
ATOM     23  N3  <0> d          12.806   3.010  -3.094  0.00  0.00    -0.358 N 
ATOM     24  C13 <0> d          12.108   3.657  -4.034  0.00  0.00     0.249 C 
ATOM     25  H12 <0> d          13.695   3.327  -2.873  0.00  0.00     0.162 HD
ATOM     26  O2  <0> d          12.605   4.632  -4.559  0.00  0.00    -0.271 OA
BRANCH  19  27
ATOM     27  C16 <0> d           8.898   1.764  -3.976  0.00  0.00     0.240 C 
BRANCH  27  28
ATOM     28  C17 <0> d           7.957   1.452  -2.811  0.00  0.00     0.011 C 
ATOM     29  C22 <0> d           7.194   0.158  -3.103  0.00  0.00     0.006 C 
ATOM     30  C21 <0> d           6.253  -0.154  -1.938  0.00  0.00     0.000 C 
ATOM     31  C20 <0> d           7.068  -0.322  -0.655  0.00  0.00     0.000 C 
ATOM     32  C19 <0> d           7.831   0.971  -0.362  0.00  0.00     0.000 C 
ATOM     33  C18 <0> d           8.772   1.283  -1.527  0.00  0.00     0.006 C 
ENDBRANCH  27  28
ENDBRANCH  19  27
ENDBRANCH   1  18
TORSDOF 6
