REMARK  5 active torsions:
REMARK  status: ('A' for Active; 'I' for Inactive)
REMARK    1  A    between atoms: N1_2  and  C2_3 
REMARK    2  A    between atoms: N1_2  and  S1_7 
REMARK    3  A    between atoms: C2_3  and  C3_4 
REMARK    4  A    between atoms: S1_7  and  C5_10 
REMARK    5  A    between atoms: C7_12  and  N3_18 
ROOT
ATOM      1  C3  <0> d           4.508   5.532  -1.314  0.00  0.00     0.144 C 
ATOM      2  C4  <0> d           3.947   6.890  -1.400  0.00  0.00     0.060 C 
ATOM      3  N2  <0> d           3.514   7.938  -1.466  0.00  0.00    -0.197 NA
ENDROOT
BRANCH   1   4
ATOM      4  C2  <0> d           3.396   4.506  -1.539  0.00  0.00     0.149 C 
BRANCH   4   5
ATOM      5  N1  <0> d           3.955   3.154  -1.453  0.00  0.00    -0.310 N 
ATOM      6  C1  <0> d           4.569   2.539  -2.633  0.00  0.00     0.163 C 
BRANCH   5   7
ATOM      7  S1  <0> d           3.893   2.321  -0.023  0.00  0.00     0.263 S 
ATOM      8  O1  <0> d           3.791   3.293   1.008  0.00  0.00    -0.200 OA
ATOM      9  O2  <0> d           4.942   1.363  -0.066  0.00  0.00    -0.200 OA
BRANCH   7  10
ATOM     10  C5  <0> d           2.382   1.415  -0.013  0.00  0.00     0.120 A 
ATOM     11  C10 <0> d           1.173   2.088   0.002  0.00  0.00     0.142 A 
ATOM     12  C9  <0> d          -0.017   1.378   0.010  0.00  0.00     0.088 A 
ATOM     13  F1  <0> d           1.153   3.438   0.010  0.00  0.00    -0.204 F 
ATOM     14  C8  <0> d           0.002  -0.004   0.002  0.00  0.00     0.145 A 
ATOM     15  C7  <0> d           1.217  -0.681  -0.013  0.00  0.00     0.066 A 
ATOM     16  F2  <0> d          -1.158  -0.696   0.009  0.00  0.00    -0.204 F 
ATOM     17  C6  <0> d           2.407   0.033  -0.021  0.00  0.00     0.060 A 
BRANCH  15  18
ATOM     18  N3  <0> d           1.239  -2.081  -0.021  0.00  0.00    -0.397 N 
ATOM     19  H10 <0> d           0.296  -2.646  -0.015  0.00  0.00     0.156 HD
ATOM     20  H11 <0> d           2.201  -2.615  -0.032  0.00  0.00     0.156 HD
ENDBRANCH  15  18
ENDBRANCH   7  10
ENDBRANCH   5   7
ENDBRANCH   4   5
ENDBRANCH   1   4
TORSDOF 5
