REMARK  2 active torsions:
REMARK  status: ('A' for Active; 'I' for Inactive)
REMARK    1  A    between atoms: C9_12  and  C16_23 
REMARK    2  A    between atoms: C11_17  and  C12_18 
ROOT
ATOM      1  C1  <0> d           0.459   1.683  -0.378  0.00  0.00     0.002 A 
ATOM      2  C2  <0> d           0.534   1.650   1.007  0.00  0.00     0.002 A 
ATOM      3  C3  <0> d           1.203   0.628   1.646  0.00  0.00     0.032 A 
ATOM      4  C4  <0> d           1.808  -0.379   0.897  0.00  0.00     0.060 A 
ATOM      5  C5  <0> d           1.731  -0.345  -0.506  0.00  0.00     0.060 A 
ATOM      6  C6  <0> d           1.051   0.696  -1.135  0.00  0.00     0.032 A 
ATOM      7  N1  <0> d           2.405  -1.444  -0.964  0.00  0.00    -0.340 N 
ATOM      8  H1  <0> d           2.523  -1.690  -1.895  0.00  0.00     0.167 HD
ATOM      9  C7  <0> d           2.874  -2.122   0.092  0.00  0.00     0.117 A 
ATOM     10  N2  <0> d           2.525  -1.496   1.225  0.00  0.00    -0.340 N 
ATOM     11  C8  <0> d           3.625  -3.317   0.022  0.00  0.00     0.041 A 
ATOM     12  C9  <0> d           5.131  -3.289  -0.136  0.00  0.00     0.157 A 
ATOM     13  N3  <0> d           5.823  -4.587  -0.199  0.00  0.00    -0.354 N 
ATOM     14  C10 <0> d           5.094  -5.716  -0.114  0.00  0.00     0.173 A 
ATOM     15  S1  <0> d           5.899  -7.225  -0.186  0.00  0.00    -0.041 SA
ATOM     16  N4  <0> d           3.763  -5.701   0.026  0.00  0.00    -0.332 N 
ATOM     17  C11 <0> d           3.018  -4.540   0.101  0.00  0.00     0.064 A 
ATOM     18  H7  <0> d           6.787  -4.628  -0.300  0.00  0.00     0.163 HD
ATOM     19  H14 <0> d           2.743  -1.787   2.124  0.00  0.00     0.167 HD
ATOM     20  H15 <0> d           3.297  -6.550   0.081  0.00  0.00     0.168 HD
ENDROOT
BRANCH  17  21
ATOM     21  C12 <0> d           1.562  -4.619   0.260  0.00  0.00     0.032 A 
ATOM     22  S2  <0> d           0.354  -3.309   0.214  0.00  0.00    -0.100 SA
ATOM     23  C15 <0> d          -1.035  -4.218   0.472  0.00  0.00     0.050 A 
ATOM     24  C14 <0> d          -0.583  -5.489   0.598  0.00  0.00     0.008 A 
ATOM     25  C13 <0> d           0.768  -5.731   0.492  0.00  0.00     0.021 A 
ENDBRANCH  17  21
BRANCH  12  26
ATOM     26  C16 <0> d           5.451  -2.533  -1.400  0.00  0.00    -0.024 A 
ATOM     27  C19 <0> d           5.252  -3.104  -2.613  0.00  0.00     0.059 A 
ATOM     28  S3  <0> d           5.776  -1.808  -3.722  0.00  0.00    -0.113 SA
ATOM     29  C18 <0> d           6.233  -0.595  -2.494  0.00  0.00     0.050 A 
ATOM     30  C17 <0> d           5.957  -1.248  -1.339  0.00  0.00     0.017 A 
ENDBRANCH  12  26
TORSDOF 2
