REMARK  5 active torsions:
REMARK  status: ('A' for Active; 'I' for Inactive)
REMARK    1  A    between atoms: C2_2  and  C3_3 
REMARK    2  A    between atoms: C4_6  and  S1_8 
REMARK    3  A    between atoms: S1_8  and  C5_9 
REMARK    4  A    between atoms: C5_9  and  C6_10 
REMARK       I    between atoms: C6_10  and  N3_12 
REMARK    5  A    between atoms: N3_12  and  C7_13 
ROOT
ATOM      1  C5  <0> d          -0.667   4.000   0.027  0.00  0.00     0.186 C 
ENDROOT
BRANCH   1   2
ATOM      2  S1  <0> d          -1.449   2.368   0.022  0.00  0.00    -0.073 SA
BRANCH   2   3
ATOM      3  C4  <0> d          -0.016   1.342   0.009  0.00  0.00     0.231 A 
ATOM      4  N2  <0> d           1.231   1.748  -0.000  0.00  0.00    -0.114 NA
ATOM      5  N1  <0> d           2.011   0.725  -0.013  0.00  0.00    -0.126 NA
ATOM      6  C3  <0> d           1.300  -0.365  -0.012  0.00  0.00     0.169 A 
ATOM      7  O1  <0> d           0.002  -0.004   0.002  0.00  0.00    -0.268 OA
BRANCH   6   8
ATOM      8  C2  <0> d           1.833  -1.774  -0.025  0.00  0.00     0.084 C 
ATOM      9  C1  <0> d           2.027  -2.259   1.414  0.00  0.00     0.013 C 
ENDBRANCH   6   8
ENDBRANCH   2   3
ENDBRANCH   1   2
BRANCH   1  10
ATOM     10  C6  <0> d          -1.731   5.067   0.038  0.00  0.00     0.233 C 
ATOM     11  O2  <0> d          -2.903   4.755   0.042  0.00  0.00    -0.272 OA
ATOM     12  N3  <0> d          -1.380   6.369   0.043  0.00  0.00    -0.305 N 
ATOM     13  H8  <0> d          -0.317   6.652   0.040  0.00  0.00     0.171 HD
BRANCH  12  14
ATOM     14  C7  <0> d          -2.362   7.353   0.054  0.00  0.00     0.172 A 
ATOM     15  S2  <0> d          -2.176   9.079   0.062  0.00  0.00    -0.062 SA
ATOM     16  C9  <0> d          -3.912   9.500   0.073  0.00  0.00     0.072 A 
ATOM     17  C8  <0> d          -4.471   8.265   0.069  0.00  0.00     0.126 A 
ATOM     18  N4  <0> d          -3.673   7.215   0.054  0.00  0.00    -0.236 NA
ENDBRANCH  12  14
ENDBRANCH   1  10
TORSDOF 5
