REMARK  5 active torsions:
REMARK  status: ('A' for Active; 'I' for Inactive)
REMARK    1  A    between atoms: O1_2  and  C2_3 
REMARK    2  A    between atoms: C10_13  and  C13_17 
REMARK    3  A    between atoms: C16_20  and  O2_33 
REMARK    4  A    between atoms: C17_21  and  C19_23 
REMARK    5  A    between atoms: C19_23  and  N3_24 
ROOT
ATOM      1  C13 <0> d          -1.220   1.750   0.017  0.00  0.00    -0.019 A 
ATOM      2  C14 <0> d          -0.013   1.076   0.008  0.00  0.00     0.012 A 
ATOM      3  C15 <0> d           1.174   1.782   0.000  0.00  0.00     0.038 A 
ATOM      4  C16 <0> d           1.155   3.169   0.008  0.00  0.00     0.076 A 
ATOM      5  C17 <0> d          -0.057   3.844   0.023  0.00  0.00    -0.004 A 
ATOM      6  C18 <0> d          -1.242   3.132   0.031  0.00  0.00     0.021 A 
ENDROOT
BRANCH   1   7
ATOM      7  C10 <0> d          -2.513   0.977   0.019  0.00  0.00     0.303 C 
ATOM      8  C9  <0> d          -2.824   0.504  -1.382  0.00  0.00     0.055 A 
ATOM      9  C8  <0> d          -3.267  -0.748  -1.653  0.00  0.00    -0.019 A 
ATOM     10  N1  <0> d          -2.706   1.214  -2.542  0.00  0.00    -0.356 N 
ATOM     11  C6  <0> d          -3.444  -0.836  -3.085  0.00  0.00     0.002 A 
ATOM     12  C12 <0> d          -3.506  -1.794  -0.594  0.00  0.00     0.071 C 
ATOM     13  C5  <0> d          -3.076   0.433  -3.603  0.00  0.00     0.043 A 
ATOM     14  C7  <0> d          -3.874  -1.867  -3.928  0.00  0.00     0.051 A 
ATOM     15  C4  <0> d          -3.132   0.688  -4.971  0.00  0.00     0.033 A 
ATOM     16  C3  <0> d          -3.559  -0.342  -5.789  0.00  0.00     0.039 A 
ATOM     17  C2  <0> d          -3.921  -1.586  -5.285  0.00  0.00     0.069 A 
ATOM     18  C11 <0> d          -3.548  -1.089   0.769  0.00  0.00     0.275 C 
ATOM     19  N2  <0> d          -2.386  -0.199   0.895  0.00  0.00     0.098 N 
ATOM     20  H9  <0> d          -1.482  -0.763   0.622  0.00  0.00     0.317 HD
ATOM     21  H1  <0> d          -2.377   2.249  -2.711  0.00  0.00     0.166 HD
BRANCH  17  22
ATOM     22  O1  <0> d          -4.333  -2.554  -6.147  0.00  0.00    -0.356 OA
ATOM     23  C1  <0> d          -4.363  -2.217  -7.535  0.00  0.00     0.210 C 
ENDBRANCH  17  22
ENDBRANCH   1   7
BRANCH   5  24
ATOM     24  C19 <0> d          -0.082   5.350   0.032  0.00  0.00     0.194 C 
BRANCH  24  25
ATOM     25  N3  <0> d           0.162   5.835   1.393  0.00  0.00    -0.245 N 
ATOM     26  N5  <0> d           1.407   6.132   1.967  0.00  0.00    -0.065 NA
ATOM     27  N4  <0> d           1.236   6.532   3.178  0.00  0.00    -0.130 NA
ATOM     28  C25 <0> d          -0.076   6.531   3.489  0.00  0.00     0.109 A 
ATOM     29  C20 <0> d          -0.783   6.093   2.356  0.00  0.00     0.085 A 
ATOM     30  C24 <0> d          -0.785   6.869   4.649  0.00  0.00     0.036 A 
ATOM     31  C21 <0> d          -2.170   5.989   2.402  0.00  0.00     0.034 A 
ATOM     32  C22 <0> d          -2.838   6.326   3.546  0.00  0.00     0.002 A 
ATOM     33  C23 <0> d          -2.146   6.764   4.667  0.00  0.00     0.003 A 
ENDBRANCH  24  25
ENDBRANCH   5  24
BRANCH   4  34
ATOM     34  O2  <0> d           2.321   3.867   0.000  0.00  0.00    -0.355 OA
ATOM     35  C26 <0> d           3.531   3.107  -0.016  0.00  0.00     0.210 C 
ENDBRANCH   4  34
TORSDOF 5
