REMARK  2 active torsions:
REMARK  status: ('A' for Active; 'I' for Inactive)
REMARK       I    between atoms: N1_2  and  C3_4 
REMARK    1  A    between atoms: C3_4  and  C4_6 
REMARK    2  A    between atoms: C4_6  and  N2_7 
ROOT
ATOM      1  N2  <0> d           0.014  -2.659  -2.561  0.00  0.00    -0.284 N 
ATOM      2  C5  <0> d          -1.181  -2.893  -3.193  0.00  0.00     0.097 A 
ATOM      3  C6  <0> d          -1.220  -3.351  -4.508  0.00  0.00     0.073 A 
ATOM      4  C7  <0> d          -2.558  -3.559  -5.063  0.00  0.00    -0.026 A 
ATOM      5  C8  <0> d          -3.571  -3.278  -4.219  0.00  0.00    -0.008 A 
ATOM      6  S1  <0> d          -2.779  -2.751  -2.728  0.00  0.00    -0.075 SA
ATOM      7  C9  <0> d          -5.037  -3.393  -4.503  0.00  0.00     0.047 C 
ATOM      8  C10 <0> d          -5.226  -3.522  -6.021  0.00  0.00     0.005 C 
ATOM      9  C11 <0> d          -4.256  -4.580  -6.554  0.00  0.00     0.005 C 
ATOM     10  C12 <0> d          -2.820  -4.056  -6.477  0.00  0.00     0.041 C 
ATOM     11  C13 <0> d           0.090  -3.561  -5.160  0.00  0.00     0.263 A 
ATOM     12  O2  <0> d           0.150  -3.959  -6.309  0.00  0.00    -0.267 OA
ATOM     13  N3  <0> d           1.216  -3.308  -4.468  0.00  0.00    -0.275 N 
ATOM     14  H1  <0> d           2.075  -3.447  -4.896  0.00  0.00     0.173 HD
ATOM     15  C14 <0> d           1.181  -2.862  -3.202  0.00  0.00     0.330 A 
ATOM     16  O3  <0> d           2.225  -2.642  -2.619  0.00  0.00    -0.246 OA
ENDROOT
BRANCH   1  17
ATOM     17  C4  <0> d           0.021  -2.178  -1.177  0.00  0.00     0.237 C 
BRANCH  17  18
ATOM     18  C3  <0> d           0.000  -0.672  -1.169  0.00  0.00     0.237 C 
ATOM     19  N1  <0> d           0.002  -0.004   0.002  0.00  0.00    -0.359 N 
ATOM     20  C1  <0> d          -0.018   1.461   0.010  0.00  0.00     0.152 C 
ATOM     21  C2  <0> d           0.024  -0.743   1.267  0.00  0.00     0.152 C 
ATOM     22  O1  <0> d          -0.018  -0.060  -2.216  0.00  0.00    -0.272 OA
ENDBRANCH  17  18
ENDBRANCH   1  17
TORSDOF 2
