REMARK  5 active torsions:
REMARK  status: ('A' for Active; 'I' for Inactive)
REMARK    1  A    between atoms: C4_4  and  N2_10 
REMARK       I    between atoms: N2_10  and  C9_11 
REMARK    2  A    between atoms: C9_11  and  C10_13 
REMARK    3  A    between atoms: N3_16  and  C13_18 
REMARK    4  A    between atoms: C13_18  and  O2_19 
REMARK    5  A    between atoms: O2_19  and  C14_20 
ROOT
ATOM      1  N2  <0> d           0.376   5.050  -1.216  0.00  0.00    -0.351 N 
ATOM      2  C9  <0> d           0.077   5.700  -2.358  0.00  0.00     0.272 C 
ATOM      3  O1  <0> d          -0.186   5.072  -3.365  0.00  0.00    -0.266 OA
ATOM      4  H16 <0> d           0.615   5.618  -0.305  0.00  0.00     0.163 HD
ENDROOT
BRANCH   2   5
ATOM      5  C10 <0> d           0.070   7.177  -2.386  0.00  0.00     0.146 A 
ATOM      6  N4  <0> d           0.329   7.982  -1.375  0.00  0.00    -0.165 NA
ATOM      7  N3  <0> d           0.236   9.207  -1.752  0.00  0.00    -0.256 N 
ATOM      8  C12 <0> d          -0.105   9.269  -3.057  0.00  0.00     0.117 A 
ATOM      9  C11 <0> d          -0.222   7.996  -3.502  0.00  0.00     0.058 A 
BRANCH   7  10
ATOM     10  C13 <0> d           0.461  10.369  -0.888  0.00  0.00     0.325 C 
BRANCH  10  11
ATOM     11  O2  <0> d           0.263  11.567  -1.641  0.00  0.00    -0.327 OA
BRANCH  11  12
ATOM     12  C14 <0> d           0.435  12.745  -0.983  0.00  0.00     0.109 A 
ATOM     13  C19 <0> d           0.264  13.948  -1.655  0.00  0.00     0.152 A 
ATOM     14  C18 <0> d           0.433  15.145  -0.982  0.00  0.00     0.087 A 
ATOM     15  F1  <0> d          -0.072  13.950  -2.963  0.00  0.00    -0.203 F 
ATOM     16  C17 <0> d           0.784  15.142   0.357  0.00  0.00     0.119 A 
ATOM     17  C16 <0> d           0.959  13.943   1.026  0.00  0.00     0.045 A 
ATOM     18  F2  <0> d           0.955  16.311   1.012  0.00  0.00    -0.206 F 
ATOM     19  C15 <0> d           0.785  12.746   0.358  0.00  0.00     0.043 A 
ENDBRANCH  11  12
ENDBRANCH  10  11
ENDBRANCH   7  10
ENDBRANCH   2   5
BRANCH   1  20
ATOM     20  C4  <0> d           0.383   3.582  -1.188  0.00  0.00     0.089 C 
ATOM     21  C3  <0> d          -1.030   3.077  -0.900  0.00  0.00     0.063 C 
ATOM     22  C2  <0> d          -1.049   1.551  -0.842  0.00  0.00     0.121 C 
ATOM     23  C1  <0> d          -0.958   0.983  -2.263  0.00  0.00     0.046 C 
ATOM     24  N1  <0> d          -0.012   1.005   0.008  0.00  0.00    -0.059 N 
ATOM     25  C20 <0> d          -2.418   1.125  -0.266  0.00  0.00     0.046 C 
ATOM     26  C6  <0> d           1.318   1.579  -0.002  0.00  0.00     0.121 C 
ATOM     27  H9  <0> d          -0.322   1.079   1.060  0.00  0.00     0.279 HD
ATOM     28  H27 <0> d           0.156  -0.051  -0.252  0.00  0.00     0.279 HD
ATOM     29  C5  <0> d           1.307   3.104  -0.068  0.00  0.00     0.063 C 
ATOM     30  C7  <0> d           2.027   1.175   1.309  0.00  0.00     0.046 C 
ATOM     31  C8  <0> d           2.153   1.022  -1.161  0.00  0.00     0.046 C 
ENDBRANCH   1  20
TORSDOF 5
