REMARK  5 active torsions:
REMARK  status: ('A' for Active; 'I' for Inactive)
REMARK    1  A    between atoms: C2_2  and  N3_31 
REMARK    2  A    between atoms: C8_9  and  N2_14 
REMARK    3  A    between atoms: C9_10  and  C10_11 
REMARK       I    between atoms: C10_11  and  N1_13 
REMARK       I    between atoms: N2_14  and  C11_15 
REMARK    4  A    between atoms: C11_15  and  C12_17 
REMARK    5  A    between atoms: C15_20  and  C18_23 
ROOT
ATOM      1  C4  <0> d           2.017   2.978  -3.634  0.00  0.00     0.240 C 
ATOM      2  C5  <0> d           1.330   2.047  -2.631  0.00  0.00     0.068 C 
ATOM      3  C6  <0> d           1.880   2.355  -1.243  0.00  0.00    -0.023 A 
ATOM      4  C7  <0> d           3.038   3.042  -1.109  0.00  0.00     0.018 A 
ATOM      5  S1  <0> d           3.287   3.171   0.637  0.00  0.00    -0.074 SA
ATOM      6  C8  <0> d           1.873   2.331   1.184  0.00  0.00     0.093 A 
ATOM      7  C9  <0> d           1.245   1.963   0.001  0.00  0.00     0.073 A 
ATOM      8  C22 <0> d           3.896   3.562  -2.220  0.00  0.00     0.282 C 
ATOM      9  N3  <0> d           3.482   2.881  -3.470  0.00  0.00    -0.063 N 
ATOM     10  H30 <0> d           3.746   1.890  -3.414  0.00  0.00     0.280 HD
ENDROOT
BRANCH   6  11
ATOM     11  N2  <0> d           1.469   2.084   2.486  0.00  0.00    -0.316 N 
ATOM     12  C11 <0> d           2.215   2.523   3.518  0.00  0.00     0.256 C 
ATOM     13  O2  <0> d           3.244   3.136   3.307  0.00  0.00    -0.267 OA
ATOM     14  H14 <0> d           0.648   1.595   2.654  0.00  0.00     0.169 HD
BRANCH  12  15
ATOM     15  C12 <0> d           1.784   2.259   4.907  0.00  0.00     0.032 A 
ATOM     16  C17 <0> d           2.555   2.713   5.979  0.00  0.00     0.017 A 
ATOM     17  C16 <0> d           2.147   2.463   7.272  0.00  0.00     0.009 A 
ATOM     18  C15 <0> d           0.975   1.765   7.509  0.00  0.00    -0.051 A 
ATOM     19  C14 <0> d           0.207   1.313   6.452  0.00  0.00     0.009 A 
ATOM     20  C13 <0> d           0.601   1.561   5.153  0.00  0.00     0.017 A 
BRANCH  18  21
ATOM     21  C18 <0> d           0.535   1.496   8.925  0.00  0.00    -0.024 C 
ATOM     22  C19 <0> d           0.331   2.825   9.657  0.00  0.00     0.019 C 
ATOM     23  C20 <0> d          -0.779   0.714   8.911  0.00  0.00     0.019 C 
ATOM     24  C21 <0> d           1.608   0.677   9.646  0.00  0.00     0.019 C 
ENDBRANCH  18  21
ENDBRANCH  12  15
ENDBRANCH   6  11
BRANCH   7  25
ATOM     25  C10 <0> d          -0.014   1.213   0.009  0.00  0.00     0.252 C 
ATOM     26  O1  <0> d           0.002  -0.004   0.002  0.00  0.00    -0.268 OA
ATOM     27  N1  <0> d          -1.191   1.871   0.018  0.00  0.00    -0.366 N 
ATOM     28  H12 <0> d          -2.024   1.375   0.019  0.00  0.00     0.159 HD
ATOM     29  H13 <0> d          -1.204   2.841   0.023  0.00  0.00     0.159 HD
ENDBRANCH   7  25
BRANCH   9  30
ATOM     30  C2  <0> d           4.162   3.495  -4.631  0.00  0.00     0.180 C 
ATOM     31  C1  <0> d           5.670   3.515  -4.373  0.00  0.00     0.039 C 
ATOM     32  C3  <0> d           3.870   2.657  -5.877  0.00  0.00     0.039 C 
ENDBRANCH   9  30
TORSDOF 5
