REMARK  5 active torsions:
REMARK  status: ('A' for Active; 'I' for Inactive)
REMARK    1  A    between atoms: C2_2  and  C3_3 
REMARK    2  A    between atoms: C8_8  and  N1_9 
REMARK       I    between atoms: N1_9  and  C9_10 
REMARK    3  A    between atoms: C9_10  and  C10_12 
REMARK    4  A    between atoms: C10_12  and  N2_13 
REMARK    5  A    between atoms: N3_18  and  C15_21 
ROOT
ATOM      1  N2  <0> d           6.362  -0.515   0.938  0.00  0.00    -0.262 N 
ATOM      2  C11 <0> d           7.405   0.389   0.473  0.00  0.00     0.235 C 
ATOM      3  C12 <0> d           8.159  -0.696  -0.384  0.00  0.00     0.259 C 
ATOM      4  C13 <0> d           9.000   0.121  -1.227  0.00  0.00     0.260 C 
ATOM      5  O2  <0> d          10.121  -0.125  -1.618  0.00  0.00    -0.270 OA
ATOM      6  N3  <0> d           8.243   1.240  -1.486  0.00  0.00    -0.248 N 
ATOM      7  C14 <0> d           7.170   1.374  -0.627  0.00  0.00     0.258 C 
ATOM      8  O3  <0> d           6.226   2.126  -0.737  0.00  0.00    -0.270 OA
ATOM      9  N4  <0> d           8.070  -1.854   0.374  0.00  0.00    -0.157 NA
ATOM     10  N5  <0> d           7.043  -1.753   1.117  0.00  0.00    -0.074 NA
ENDROOT
BRANCH   1  11
ATOM     11  C10 <0> d           4.947  -0.219   1.171  0.00  0.00     0.250 C 
BRANCH  11  12
ATOM     12  C9  <0> d           4.165  -0.474  -0.091  0.00  0.00     0.241 C 
ATOM     13  N1  <0> d           2.833  -0.268  -0.113  0.00  0.00    -0.325 N 
ATOM     14  H12 <0> d           2.388   0.106   0.663  0.00  0.00     0.169 HD
ATOM     15  O1  <0> d           4.734  -0.865  -1.088  0.00  0.00    -0.271 OA
BRANCH  13  16
ATOM     16  C8  <0> d           2.093  -0.594  -1.255  0.00  0.00     0.041 A 
ATOM     17  C3  <0> d           0.800  -1.084  -1.129  0.00  0.00    -0.032 A 
ATOM     18  C4  <0> d           0.070  -1.399  -2.258  0.00  0.00     0.009 A 
ATOM     19  C5  <0> d           0.627  -1.234  -3.513  0.00  0.00     0.001 A 
ATOM     20  C6  <0> d           1.917  -0.751  -3.641  0.00  0.00     0.002 A 
ATOM     21  C7  <0> d           2.652  -0.433  -2.516  0.00  0.00     0.030 A 
BRANCH  17  22
ATOM     22  C2  <0> d           0.191  -1.265   0.238  0.00  0.00     0.036 C 
ATOM     23  C1  <0> d          -0.422   0.058   0.702  0.00  0.00     0.010 C 
ENDBRANCH  17  22
ENDBRANCH  13  16
ENDBRANCH  11  12
ENDBRANCH   1  11
BRANCH   6  24
ATOM     24  C15 <0> d           8.535   2.158  -2.506  0.00  0.00     0.047 A 
ATOM     25  C20 <0> d           9.641   1.961  -3.322  0.00  0.00     0.057 A 
ATOM     26  C19 <0> d           9.924   2.865  -4.329  0.00  0.00     0.074 A 
ATOM     27  C18 <0> d           9.110   3.970  -4.518  0.00  0.00     0.138 A 
ATOM     28 Cl1  <0> d          11.302   2.616  -5.355  0.00  0.00    -0.081 Cl
ATOM     29  C17 <0> d           8.010   4.170  -3.701  0.00  0.00     0.046 A 
ATOM     30  F1  <0> d           9.391   4.855  -5.500  0.00  0.00    -0.204 F 
ATOM     31  C16 <0> d           7.721   3.266  -2.697  0.00  0.00     0.033 A 
ENDBRANCH   6  24
TORSDOF 5
