REMARK  5 active torsions:
REMARK  status: ('A' for Active; 'I' for Inactive)
REMARK    1  A    between atoms: C5_6  and  C6_7 
REMARK       I    between atoms: C6_7  and  N1_9 
REMARK    2  A    between atoms: N1_9  and  C7_10 
REMARK    3  A    between atoms: N3_24  and  N4_25 
REMARK       I    between atoms: N4_25  and  C20_26 
REMARK    4  A    between atoms: C20_26  and  C21_28 
REMARK    5  A    between atoms: C25_32  and  O4_34 
ROOT
ATOM      1  C1  <0> d           0.425   1.686   0.009  0.00  0.00     0.052 C 
ATOM      2  C2  <0> d           0.339   0.181   0.012  0.00  0.00    -0.008 A 
ATOM      3  C3  <0> d           0.279  -0.659  -1.107  0.00  0.00     0.029 A 
ATOM      4  C4  <0> d           0.208  -1.953  -0.647  0.00  0.00     0.067 A 
ATOM      5  O1  <0> d           0.228  -1.919   0.683  0.00  0.00    -0.308 OA
ATOM      6  C5  <0> d           0.310  -0.637   1.107  0.00  0.00     0.150 A 
ATOM      7  C16 <0> d           0.124  -3.146  -1.565  0.00  0.00     0.066 C 
ATOM      8  C17 <0> d          -0.378  -2.696  -2.939  0.00  0.00     0.013 C 
ATOM      9  C18 <0> d           0.473  -1.539  -3.474  0.00  0.00     0.062 C 
ATOM     10  C19 <0> d           0.284  -0.343  -2.552  0.00  0.00     0.068 C 
ATOM     11  N3  <0> d           0.138   0.866  -3.001  0.00  0.00    -0.176 NA
ENDROOT
BRANCH   6  12
ATOM     12  C6  <0> d           0.358  -0.198   2.506  0.00  0.00     0.276 C 
ATOM     13  O2  <0> d           0.430   0.988   2.770  0.00  0.00    -0.265 OA
ATOM     14  N1  <0> d           0.322  -1.108   3.499  0.00  0.00    -0.350 N 
ATOM     15  H4  <0> d           0.265  -2.054   3.289  0.00  0.00     0.163 HD
BRANCH  14  16
ATOM     16  C7  <0> d           0.370  -0.669   4.900  0.00  0.00     0.089 C 
ATOM     17  C11 <0> d          -0.287  -1.729   5.783  0.00  0.00     0.063 C 
ATOM     18  C10 <0> d          -0.199  -1.338   7.254  0.00  0.00     0.121 C 
ATOM     19  N2  <0> d           1.143  -0.961   7.668  0.00  0.00    -0.059 N 
ATOM     20  C12 <0> d          -1.218  -0.238   7.563  0.00  0.00     0.046 C 
ATOM     21  C13 <0> d          -0.609  -2.578   8.084  0.00  0.00     0.046 C 
ATOM     22  C9  <0> d           1.898  -0.078   6.791  0.00  0.00     0.121 C 
ATOM     23  H8  <0> d           1.688  -1.815   7.811  0.00  0.00     0.279 HD
ATOM     24  H37 <0> d           1.084  -0.523   8.591  0.00  0.00     0.279 HD
ATOM     25  C8  <0> d           1.831  -0.523   5.331  0.00  0.00     0.063 C 
ATOM     26  C14 <0> d           1.455   1.379   6.921  0.00  0.00     0.046 C 
ATOM     27  C15 <0> d           3.381  -0.147   7.224  0.00  0.00     0.046 C 
ENDBRANCH  14  16
ENDBRANCH   6  12
BRANCH  11  28
ATOM     28  N4  <0> d           0.151   1.107  -4.381  0.00  0.00    -0.243 N 
ATOM     29  C20 <0> d           0.000   2.362  -4.847  0.00  0.00     0.271 C 
ATOM     30  O3  <0> d          -0.147   3.286  -4.070  0.00  0.00    -0.266 OA
ATOM     31  H29 <0> d           0.269   0.370  -5.001  0.00  0.00     0.192 HD
BRANCH  29  32
ATOM     32  C21 <0> d           0.014   2.616  -6.303  0.00  0.00     0.036 A 
ATOM     33  C26 <0> d          -0.142   3.915  -6.789  0.00  0.00     0.053 A 
ATOM     34  C25 <0> d          -0.123   4.146  -8.154  0.00  0.00     0.069 A 
ATOM     35  C24 <0> d           0.041   3.087  -9.036  0.00  0.00     0.037 A 
ATOM     36  C23 <0> d           0.190   1.798  -8.556  0.00  0.00     0.004 A 
ATOM     37  C22 <0> d           0.177   1.557  -7.198  0.00  0.00     0.017 A 
BRANCH  34  38
ATOM     38  O4  <0> d          -0.269   5.410  -8.631  0.00  0.00    -0.356 OA
ATOM     39  C27 <0> d          -0.245   5.575 -10.050  0.00  0.00     0.210 C 
ENDBRANCH  34  38
ENDBRANCH  29  32
ENDBRANCH  11  28
TORSDOF 5
