REMARK  4 active torsions:
REMARK  status: ('A' for Active; 'I' for Inactive)
REMARK    1  A    between atoms: C3_3  and  C7_9 
REMARK    2  A    between atoms: C4_4  and  C6_7 
REMARK    3  A    between atoms: C6_7  and  N2_8 
REMARK    4  A    between atoms: C7_9  and  N3_10 
ROOT
ATOM      1  C1  <0> d          -0.017   1.378   0.010  0.00  0.00     0.020 A 
ATOM      2  C2  <0> d           1.185   2.070   0.002  0.00  0.00     0.012 A 
ATOM      3  C3  <0> d           2.365   1.343  -0.013  0.00  0.00    -0.012 A 
ATOM      4  C4  <0> d           2.305  -0.038  -0.020  0.00  0.00     0.067 A 
ATOM      5  N1  <0> d           1.144  -0.663  -0.013  0.00  0.00    -0.263 NA
ATOM      6  C5  <0> d           0.002  -0.004   0.002  0.00  0.00     0.117 A 
ENDROOT
BRANCH   3   7
ATOM      7  C7  <0> d           3.696   2.049  -0.023  0.00  0.00     0.191 C 
BRANCH   7   8
ATOM      8  N3  <0> d           4.171   2.178  -1.403  0.00  0.00    -0.276 N 
ATOM      9  N4  <0> d           4.338   1.131  -2.318  0.00  0.00    -0.184 NA
ATOM     10  C10 <0> d           4.774   1.637  -3.443  0.00  0.00     0.159 A 
ATOM     11  C9  <0> d           4.907   3.020  -3.278  0.00  0.00     0.047 A 
ATOM     12  C8  <0> d           4.530   3.327  -2.015  0.00  0.00     0.133 A 
ATOM     13 Br1  <0> d           5.507   4.245  -4.588  0.00  0.00    -0.048 Br
ENDBRANCH   7   8
ENDBRANCH   3   7
BRANCH   4  14
ATOM     14  C6  <0> d           3.582  -0.839  -0.037  0.00  0.00     0.289 C 
BRANCH  14  15
ATOM     15  N2  <0> d           4.010  -1.107   1.343  0.00  0.00    -0.074 N 
ATOM     16  H6  <0> d           4.167  -0.233   1.822  0.00  0.00     0.274 HD
ATOM     17  H7  <0> d           3.292  -1.628   1.823  0.00  0.00     0.274 HD
ATOM     18  H12 <0> d           4.865  -1.643   1.332  0.00  0.00     0.274 HD
ENDBRANCH  14  15
ENDBRANCH   4  14
TORSDOF 4
