REMARK  4 active torsions:
REMARK  status: ('A' for Active; 'I' for Inactive)
REMARK    1  A    between atoms: S1_2  and  C2_3 
REMARK    2  A    between atoms: C4_6  and  C11_15 
REMARK    3  A    between atoms: N2_7  and  C5_8 
REMARK       I    between atoms: C11_15  and  N3_17 
REMARK    4  A    between atoms: N3_17  and  C12_18 
ROOT
ATOM      1  C11 <0> d           3.526   0.397  -0.765  0.00  0.00     0.274 C 
ATOM      2  O1  <0> d           4.344   1.290  -0.633  0.00  0.00    -0.266 OA
ATOM      3  N3  <0> d           3.839  -0.703  -1.479  0.00  0.00    -0.322 N 
ATOM      4  H11 <0> d           3.103  -1.512  -1.593  0.00  0.00     0.169 HD
ENDROOT
BRANCH   1   5
ATOM      5  C4  <0> d           2.207   0.517  -0.148  0.00  0.00     0.127 A 
ATOM      6  C3  <0> d           1.700   1.615   0.513  0.00  0.00     0.155 A 
ATOM      7  N1  <0> d           0.469   1.317   0.923  0.00  0.00    -0.234 NA
ATOM      8  C2  <0> d           0.159   0.088   0.559  0.00  0.00     0.173 A 
ATOM      9  N2  <0> d           1.210  -0.454  -0.112  0.00  0.00    -0.284 N 
BRANCH   8  10
ATOM     10  S1  <0> d          -1.370  -0.722   0.890  0.00  0.00    -0.096 SA
ATOM     11  C1  <0> d          -2.232   0.590   1.792  0.00  0.00     0.099 C 
ENDBRANCH   8  10
BRANCH   9  12
ATOM     12  C5  <0> d           1.278  -1.742  -0.661  0.00  0.00     0.042 A 
ATOM     13  C10 <0> d           0.825  -1.971  -1.954  0.00  0.00     0.033 A 
ATOM     14  C9  <0> d           0.892  -3.241  -2.493  0.00  0.00     0.044 A 
ATOM     15  C8  <0> d           1.411  -4.285  -1.746  0.00  0.00     0.116 A 
ATOM     16  C7  <0> d           1.862  -4.059  -0.456  0.00  0.00     0.044 A 
ATOM     17  F1  <0> d           1.476  -5.526  -2.275  0.00  0.00    -0.206 F 
ATOM     18  C6  <0> d           1.802  -2.789   0.084  0.00  0.00     0.033 A 
ENDBRANCH   9  12
ENDBRANCH   1   5
BRANCH   3  19
ATOM     19  C12 <0> d           5.101  -0.814  -2.076  0.00  0.00     0.037 A 
ATOM     20  C17 <0> d           5.690  -2.062  -2.220  0.00  0.00     0.061 A 
ATOM     21  C16 <0> d           6.939  -2.169  -2.812  0.00  0.00     0.065 A 
ATOM     22  C15 <0> d           7.599  -1.022  -3.259  0.00  0.00     0.063 A 
ATOM     23  N4  <0> d           7.772  -3.249  -3.093  0.00  0.00    -0.306 N 
ATOM     24  C14 <0> d           7.005   0.222  -3.111  0.00  0.00     0.034 A 
ATOM     25  N5  <0> d           8.814  -1.443  -3.799  0.00  0.00    -0.307 N 
ATOM     26  C13 <0> d           5.758   0.325  -2.528  0.00  0.00     0.032 A 
ATOM     27  C18 <0> d           8.888  -2.782  -3.684  0.00  0.00     0.325 A 
ATOM     28  H2  <0> d           9.514  -0.705  -4.220  0.00  0.00     0.170 HD
ATOM     29  O2  <0> d           9.822  -3.467  -4.058  0.00  0.00    -0.247 OA
ATOM     30  H1  <0> d           7.459  -4.269  -2.827  0.00  0.00     0.170 HD
ENDBRANCH   3  19
TORSDOF 4
