REMARK  3 active torsions:
REMARK  status: ('A' for Active; 'I' for Inactive)
REMARK    1  A    between atoms: C4_5  and  C6_9 
REMARK    2  A    between atoms: C5_7  and  N3_8 
REMARK    3  A    between atoms: C6_9  and  C7_10 
ROOT
ATOM      1  C1  <0> d          -0.018   1.503   0.010  0.00  0.00     0.054 C 
ATOM      2  C2  <0> d           0.002  -0.004   0.002  0.00  0.00     0.006 A 
ATOM      3  C3  <0> d           0.006  -0.705  -1.188  0.00  0.00     0.016 A 
ATOM      4  N1  <0> d           0.024  -2.030  -1.157  0.00  0.00    -0.347 N 
ATOM      5  C4  <0> d           0.038  -2.683  -0.013  0.00  0.00     0.108 A 
ATOM      6  N2  <0> d           0.034  -2.055   1.146  0.00  0.00    -0.218 NA
ATOM      7  C5  <0> d           0.023  -0.726   1.197  0.00  0.00     0.131 A 
ATOM      8  C11 <0> d          -0.010   0.027  -2.505  0.00  0.00     0.069 C 
ATOM      9  H18 <0> d           0.027  -2.527  -1.990  0.00  0.00     0.167 HD
ENDROOT
BRANCH   5  10
ATOM     10  C6  <0> d           0.058  -4.190  -0.029  0.00  0.00     0.110 C 
BRANCH  10  11
ATOM     11  C7  <0> d           1.250  -4.693   0.788  0.00  0.00     0.128 C 
ATOM     12  O1  <0> d           2.482  -4.356   0.132  0.00  0.00    -0.385 OA
ATOM     13  C10 <0> d           3.433  -5.414   0.306  0.00  0.00     0.168 C 
ATOM     14  C9  <0> d           2.742  -6.536   1.110  0.00  0.00     0.029 C 
ATOM     15  C8  <0> d           1.237  -6.241   0.861  0.00  0.00     0.034 C 
ENDBRANCH  10  11
ENDBRANCH   5  10
BRANCH   7  16
ATOM     16  N3  <0> d           0.026  -0.069   2.417  0.00  0.00    -0.383 N 
ATOM     17  H5  <0> d           0.013   0.901   2.445  0.00  0.00     0.157 HD
ATOM     18  H6  <0> d           0.041  -0.578   3.242  0.00  0.00     0.157 HD
ENDBRANCH   7  16
TORSDOF 3
