REMARK  6 active torsions:
REMARK  status: ('A' for Active; 'I' for Inactive)
REMARK    1  A    between atoms: C4_4  and  C10_16 
REMARK       I    between atoms: C10_16  and  N4_18 
REMARK    2  A    between atoms: N4_18  and  C11_19 
REMARK    3  A    between atoms: C11_19  and  C12_20 
REMARK    4  A    between atoms: C11_19  and  C16_25 
REMARK    5  A    between atoms: C12_20  and  C13_21 
REMARK    6  A    between atoms: C13_21  and  N5_22 
ROOT
ATOM      1  C10 <0> d          -0.014   1.211   0.009  0.00  0.00     0.253 C 
ATOM      2  O3  <0> d          -0.008   0.016   0.229  0.00  0.00    -0.268 OA
ATOM      3  N4  <0> d          -1.178   1.845  -0.234  0.00  0.00    -0.348 N 
ATOM      4  H10 <0> d          -1.184   2.927  -0.434  0.00  0.00     0.163 HD
ENDROOT
BRANCH   1   5
ATOM      5  C4  <0> d           1.259   1.969   0.001  0.00  0.00     0.053 A 
ATOM      6  C3  <0> d           1.611   2.779  -1.081  0.00  0.00     0.045 A 
ATOM      7  C2  <0> d           2.809   3.474  -1.044  0.00  0.00     0.034 A 
ATOM      8  C1  <0> d           3.185   4.352  -2.210  0.00  0.00     0.070 C 
ATOM      9  N3  <0> d           3.631   3.383  -0.018  0.00  0.00    -0.235 NA
ATOM     10  C8  <0> d           3.354   2.628   1.032  0.00  0.00     0.150 A 
ATOM     11  C5  <0> d           2.156   1.895   1.078  0.00  0.00     0.094 A 
ATOM     12  N2  <0> d           4.223   2.540   2.106  0.00  0.00    -0.287 N 
ATOM     13  C6  <0> d           1.883   1.066   2.264  0.00  0.00     0.264 A 
ATOM     14  O1  <0> d           0.860   0.414   2.348  0.00  0.00    -0.267 OA
ATOM     15  N1  <0> d           2.800   1.050   3.257  0.00  0.00    -0.274 N 
ATOM     16  H1  <0> d           2.627   0.441   4.156  0.00  0.00     0.173 HD
ATOM     17  C7  <0> d           3.930   1.769   3.167  0.00  0.00     0.330 A 
ATOM     18  O2  <0> d           4.723   1.722   4.087  0.00  0.00    -0.246 OA
ATOM     19  C9  <0> d           5.478   3.295   2.085  0.00  0.00     0.163 C 
ENDBRANCH   1   5
BRANCH   3  20
ATOM     20  C11 <0> d          -2.436   1.095  -0.232  0.00  0.00     0.119 C 
BRANCH  20  21
ATOM     21  C12 <0> d          -2.659   0.469  -1.610  0.00  0.00     0.057 C 
BRANCH  21  22
ATOM     22  C13 <0> d          -1.569  -0.569  -1.882  0.00  0.00     0.236 C 
BRANCH  22  23
ATOM     23  N5  <0> d          -1.782  -1.170  -3.205  0.00  0.00    -0.079 N 
ATOM     24  C14 <0> d          -0.632  -1.993  -3.602  0.00  0.00     0.269 C 
ATOM     25  C15 <0> d          -3.025  -1.953  -3.233  0.00  0.00     0.269 C 
ATOM     26  H26 <0> d          -1.881  -0.353  -3.935  0.00  0.00     0.278 HD
ENDBRANCH  22  23
ENDBRANCH  21  22
ENDBRANCH  20  21
BRANCH  20  27
ATOM     27  C16 <0> d          -3.577   2.026   0.087  0.00  0.00    -0.035 A 
ATOM     28  C21 <0> d          -4.601   1.607   0.916  0.00  0.00     0.009 A 
ATOM     29  C20 <0> d          -5.647   2.462   1.209  0.00  0.00     0.001 A 
ATOM     30  C19 <0> d          -5.669   3.736   0.673  0.00  0.00     0.000 A 
ATOM     31  C18 <0> d          -4.645   4.155  -0.156  0.00  0.00     0.001 A 
ATOM     32  C17 <0> d          -3.597   3.302  -0.445  0.00  0.00     0.009 A 
ENDBRANCH  20  27
ENDBRANCH   3  20
TORSDOF 6
