REMARK  6 active torsions:
REMARK  status: ('A' for Active; 'I' for Inactive)
REMARK    1  A    between atoms: C2_2  and  O1_3 
REMARK    2  A    between atoms: O1_3  and  C3_4 
REMARK    3  A    between atoms: C6_7  and  N1_10 
REMARK    4  A    between atoms: C11_14  and  C12_15 
REMARK    5  A    between atoms: C15_18  and  O4_23 
REMARK    6  A    between atoms: C16_19  and  O3_21 
ROOT
ATOM      1  N1  <0> d           6.031   3.268   0.277  0.00  0.00    -0.254 N 
ATOM      2  C9  <0> d           4.931   3.827   0.822  0.00  0.00     0.270 A 
ATOM      3  O2  <0> d           4.993   4.897   1.396  0.00  0.00    -0.266 OA
ATOM      4  C10 <0> d           3.650   3.103   0.703  0.00  0.00     0.101 A 
ATOM      5  C11 <0> d           2.482   3.611   1.236  0.00  0.00     0.034 C 
ATOM      6  C19 <0> d           3.674   1.808  -0.006  0.00  0.00     0.263 A 
ATOM      7  O5  <0> d           2.660   1.150  -0.141  0.00  0.00    -0.267 OA
ATOM      8  N2  <0> d           4.851   1.377  -0.505  0.00  0.00    -0.299 N 
ATOM      9  C20 <0> d           5.977   2.089  -0.358  0.00  0.00     0.188 A 
ATOM     10  S1  <0> d           7.426   1.458  -1.019  0.00  0.00    -0.040 SA
ATOM     11  H18 <0> d           4.884   0.530  -0.977  0.00  0.00     0.171 HD
ENDROOT
BRANCH   5  12
ATOM     12  C12 <0> d           1.197   2.995   0.905  0.00  0.00    -0.032 A 
ATOM     13  C17 <0> d           0.273   2.704   1.921  0.00  0.00     0.051 A 
ATOM     14  C16 <0> d          -0.936   2.123   1.601  0.00  0.00     0.102 A 
ATOM     15  C15 <0> d          -1.241   1.830   0.271  0.00  0.00     0.099 A 
ATOM     16  C14 <0> d          -0.325   2.113  -0.736  0.00  0.00     0.040 A 
ATOM     17  C13 <0> d           0.884   2.692  -0.428  0.00  0.00     0.014 A 
BRANCH  14  18
ATOM     18  O3  <0> d          -1.835   1.840   2.582  0.00  0.00    -0.353 OA
ATOM     19  C18 <0> d          -1.459   2.171   3.921  0.00  0.00     0.210 C 
ENDBRANCH  14  18
BRANCH  15  20
ATOM     20  O4  <0> d          -2.434   1.263  -0.041  0.00  0.00    -0.358 OA
ATOM     21  H17 <0> d          -2.424   0.296  -0.032  0.00  0.00     0.217 HD
ENDBRANCH  15  20
ENDBRANCH   5  12
BRANCH   1  22
ATOM     22  C6  <0> d           7.260   3.936   0.377  0.00  0.00     0.045 A 
ATOM     23  C5  <0> d           7.617   4.880  -0.577  0.00  0.00     0.033 A 
ATOM     24  C4  <0> d           8.827   5.538  -0.478  0.00  0.00     0.039 A 
ATOM     25  C3  <0> d           9.685   5.257   0.575  0.00  0.00     0.068 A 
ATOM     26  C8  <0> d           9.329   4.314   1.528  0.00  0.00     0.039 A 
ATOM     27  C7  <0> d           8.117   3.659   1.433  0.00  0.00     0.033 A 
BRANCH  25  28
ATOM     28  O1  <0> d          10.877   5.905   0.672  0.00  0.00    -0.352 OA
BRANCH  28  29
ATOM     29  C2  <0> d          11.711   5.566   1.782  0.00  0.00     0.171 C 
ATOM     30  C1  <0> d          12.998   6.391   1.723  0.00  0.00     0.034 C 
ENDBRANCH  28  29
ENDBRANCH  25  28
ENDBRANCH   1  22
TORSDOF 6
