REMARK  5 active torsions:
REMARK  status: ('A' for Active; 'I' for Inactive)
REMARK    1  A    between atoms: N2_5  and  S1_8 
REMARK    2  A    between atoms: S1_8  and  C6_11 
REMARK    3  A    between atoms: C9_14  and  N4_17 
REMARK    4  A    between atoms: N4_17  and  N5_18 
REMARK    5  A    between atoms: C11_19  and  C12_20 
ROOT
ATOM      1  C6  <0> d          -0.608  -5.324   1.168  0.00  0.00     0.097 A 
ATOM      2  C7  <0> d          -1.468  -5.938   0.267  0.00  0.00     0.030 A 
ATOM      3  C8  <0> d          -1.077  -7.133  -0.309  0.00  0.00     0.053 A 
ATOM      4  C9  <0> d           0.159  -7.677   0.032  0.00  0.00     0.143 A 
ATOM      5  N3  <0> d           0.951  -7.060   0.897  0.00  0.00    -0.240 NA
ATOM      6  C10 <0> d           0.606  -5.916   1.457  0.00  0.00     0.144 A 
ENDROOT
BRANCH   1   7
ATOM      7  S1  <0> d          -1.058  -3.800   1.930  0.00  0.00     0.262 S 
ATOM      8  O1  <0> d          -0.313  -3.715   3.138  0.00  0.00    -0.200 OA
ATOM      9  O2  <0> d          -2.477  -3.737   1.905  0.00  0.00    -0.200 OA
BRANCH   7  10
ATOM     10  N2  <0> d          -0.511  -2.583   0.950  0.00  0.00    -0.303 N 
ATOM     11  C3  <0> d          -1.358  -2.038  -0.122  0.00  0.00     0.163 C 
ATOM     12  C2  <0> d          -1.376  -0.510   0.002  0.00  0.00     0.255 C 
ATOM     13  N1  <0> d           0.002  -0.004   0.002  0.00  0.00    -0.072 N 
ATOM     14  C1  <0> d          -0.018   1.465   0.010  0.00  0.00     0.269 C 
ATOM     15  C5  <0> d           0.713  -0.489   1.192  0.00  0.00     0.255 C 
ATOM     16  H19 <0> d           0.477  -0.328  -0.827  0.00  0.00     0.279 HD
ATOM     17  C4  <0> d           0.834  -2.015   1.127  0.00  0.00     0.163 C 
ENDBRANCH   7  10
ENDBRANCH   1   7
BRANCH   4  18
ATOM     18  N4  <0> d           0.564  -8.876  -0.538  0.00  0.00    -0.261 N 
ATOM     19  H15 <0> d          -0.013  -9.332  -1.171  0.00  0.00     0.191 HD
BRANCH  18  20
ATOM     20  N5  <0> d           1.806  -9.429  -0.199  0.00  0.00    -0.184 NA
ATOM     21  C11 <0> d           2.186 -10.552  -0.734  0.00  0.00     0.157 C 
BRANCH  21  22
ATOM     22  C12 <0> d           3.486 -11.131  -0.379  0.00  0.00     0.025 A 
ATOM     23  S2  <0> d           4.726 -10.508   0.744  0.00  0.00    -0.081 SA
ATOM     24  C15 <0> d           5.923 -11.818   0.555  0.00  0.00     0.052 A 
ATOM     25  C14 <0> d           5.317 -12.636  -0.346  0.00  0.00     0.028 A 
ATOM     26 Br1  <0> d           7.609 -12.015   1.389  0.00  0.00    -0.043 Br
ATOM     27  C13 <0> d           4.074 -12.298  -0.831  0.00  0.00     0.022 A 
ENDBRANCH  21  22
ENDBRANCH  18  20
ENDBRANCH   4  18
TORSDOF 5
