REMARK  5 active torsions:
REMARK  status: ('A' for Active; 'I' for Inactive)
REMARK    1  A    between atoms: C4_5  and  C5_6 
REMARK       I    between atoms: C5_6  and  N1_8 
REMARK    2  A    between atoms: N1_8  and  C6_9 
REMARK    3  A    between atoms: C6_9  and  C11_14 
REMARK    4  A    between atoms: C11_14  and  N3_17 
REMARK    5  A    between atoms: N2_15  and  O2_16 
ROOT
ATOM      1  C6  <0> d          -2.054  -3.203   0.150  0.00  0.00     0.095 C 
ATOM      2  C7  <0> d          -2.840  -2.911   1.453  0.00  0.00     0.039 C 
ATOM      3  C8  <0> d          -2.017  -3.667   2.525  0.00  0.00     0.003 C 
ATOM      4  C9  <0> d          -1.571  -4.962   1.816  0.00  0.00     0.003 C 
ATOM      5  C10 <0> d          -1.595  -4.667   0.306  0.00  0.00     0.039 C 
ENDROOT
BRANCH   1   6
ATOM      6  N1  <0> d          -0.897  -2.312   0.038  0.00  0.00    -0.340 N 
ATOM      7  C5  <0> d          -1.076  -0.976   0.010  0.00  0.00     0.259 C 
ATOM      8  O1  <0> d          -2.201  -0.513  -0.014  0.00  0.00    -0.267 OA
ATOM      9  H3  <0> d          -0.003  -2.683  -0.016  0.00  0.00     0.164 HD
BRANCH   7  10
ATOM     10  C4  <0> d           0.085  -0.082   0.009  0.00  0.00     0.073 A 
ATOM     11  C1  <0> d           0.120   1.304  -0.017  0.00  0.00     0.026 A 
ATOM     12  C2  <0> d           1.372   1.870  -0.010  0.00  0.00     0.028 A 
ATOM     13  C3  <0> d           2.461   1.060   0.021  0.00  0.00     0.052 A 
ATOM     14  S1  <0> d           1.819  -0.492   0.042  0.00  0.00    -0.077 SA
ATOM     15 Br1  <0> d           4.283   1.564   0.037  0.00  0.00    -0.043 Br
ENDBRANCH   7  10
ENDBRANCH   1   6
BRANCH   1  16
ATOM     16  C11 <0> d          -2.950  -3.057  -1.053  0.00  0.00     0.153 C 
ATOM     17  N2  <0> d          -4.073  -3.693  -1.104  0.00  0.00    -0.120 NA
BRANCH  17  18
ATOM     18  O2  <0> d          -4.407  -4.622  -0.088  0.00  0.00    -0.265 OA
ATOM     19  H12 <0> d          -5.266  -5.048  -0.212  0.00  0.00     0.247 HD
ENDBRANCH  17  18
BRANCH  16  20
ATOM     20  N3  <0> d          -2.571  -2.244  -2.099  0.00  0.00    -0.384 N 
ATOM     21  H13 <0> d          -1.693  -1.833  -2.099  0.00  0.00     0.157 HD
ATOM     22  H14 <0> d          -3.183  -2.084  -2.834  0.00  0.00     0.157 HD
ENDBRANCH  16  20
ENDBRANCH   1  16
TORSDOF 5
