REMARK  4 active torsions:
REMARK  status: ('A' for Active; 'I' for Inactive)
REMARK    1  A    between atoms: O1_2  and  C2_3 
REMARK    2  A    between atoms: C5_6  and  C8_9 
REMARK    3  A    between atoms: C13_15  and  O4_32 
REMARK    4  A    between atoms: C17_19  and  C20_23 
ROOT
ATOM      1  C8  <0> d           2.577  -2.540   4.293  0.00  0.00     0.067 A 
ATOM      2  C9  <0> d           2.637  -3.934   4.333  0.00  0.00     0.033 A 
ATOM      3  C10 <0> d           3.269  -4.547   5.394  0.00  0.00     0.021 A 
ATOM      4  C11 <0> d           3.831  -3.738   6.395  0.00  0.00     0.060 A 
ATOM      5  C12 <0> d           3.739  -2.352   6.285  0.00  0.00     0.084 A 
ATOM      6  N1  <0> d           3.125  -1.806   5.252  0.00  0.00    -0.249 NA
ATOM      7  C13 <0> d           4.351  -1.469   7.333  0.00  0.00     0.209 C 
ATOM      8  C14 <0> d           5.841  -1.670   7.394  0.00  0.00     0.045 C 
ATOM      9  C15 <0> d           6.373  -2.851   7.755  0.00  0.00     0.026 C 
ATOM     10  C16 <0> d           7.876  -3.037   7.785  0.00  0.00     0.067 C 
ATOM     11  C17 <0> d           8.549  -1.716   8.160  0.00  0.00     0.031 C 
ATOM     12  C18 <0> d           8.158  -0.664   7.117  0.00  0.00     0.093 C 
ATOM     13  C19 <0> d           6.659  -0.572   7.060  0.00  0.00     0.161 C 
ATOM     14  O2  <0> d           6.140   0.472   6.717  0.00  0.00    -0.292 OA
ATOM     15  N2  <0> d           5.605  -3.915   8.113  0.00  0.00    -0.326 N 
ATOM     16  C26 <0> d           4.502  -4.356   7.544  0.00  0.00     0.258 C 
ATOM     17  O3  <0> d           3.998  -5.359   8.010  0.00  0.00    -0.267 OA
ATOM     18  H21 <0> d           5.910  -4.414   8.887  0.00  0.00     0.169 HD
ENDROOT
BRANCH   1  19
ATOM     19  C5  <0> d           1.897  -1.870   3.160  0.00  0.00    -0.007 A 
ATOM     20  C4  <0> d           1.835  -0.477   3.106  0.00  0.00     0.016 A 
ATOM     21  C3  <0> d           1.202   0.142   2.050  0.00  0.00     0.037 A 
ATOM     22  C2  <0> d           0.625  -0.618   1.041  0.00  0.00     0.068 A 
ATOM     23  C7  <0> d           0.680  -2.005   1.094  0.00  0.00     0.037 A 
ATOM     24  C6  <0> d           1.316  -2.631   2.144  0.00  0.00     0.016 A 
BRANCH  22  25
ATOM     25  O1  <0> d           0.002  -0.004   0.002  0.00  0.00    -0.356 OA
ATOM     26  C1  <0> d          -0.017   1.425   0.010  0.00  0.00     0.210 C 
ENDBRANCH  22  25
ENDBRANCH   1  19
BRANCH   7  27
ATOM     27  O4  <0> d           3.782  -1.784   8.606  0.00  0.00    -0.384 OA
ATOM     28  H22 <0> d           2.824  -1.661   8.649  0.00  0.00     0.211 HD
ENDBRANCH   7  27
BRANCH  11  29
ATOM     29  C20 <0> d          10.046  -1.894   8.167  0.00  0.00    -0.053 A 
ATOM     30  C25 <0> d          10.763  -1.666   9.327  0.00  0.00     0.007 A 
ATOM     31  C24 <0> d          12.135  -1.833   9.335  0.00  0.00     0.001 A 
ATOM     32  C23 <0> d          12.791  -2.218   8.181  0.00  0.00     0.000 A 
ATOM     33  C22 <0> d          12.075  -2.441   7.020  0.00  0.00     0.001 A 
ATOM     34  C21 <0> d          10.702  -2.278   7.013  0.00  0.00     0.007 A 
ENDBRANCH  11  29
TORSDOF 4
