REMARK  4 active torsions:
REMARK  status: ('A' for Active; 'I' for Inactive)
REMARK       I    between atoms: N1_2  and  C2_3 
REMARK    1  A    between atoms: C2_3  and  C3_5 
REMARK    2  A    between atoms: C6_8  and  C9_11 
REMARK    3  A    between atoms: C9_11  and  N2_12 
REMARK       I    between atoms: N2_12  and  C11_14 
REMARK    4  A    between atoms: C11_14  and  C12_16 
ROOT
ATOM      1  N2  <0> d          -2.002   1.522  -0.720  0.00  0.00    -0.348 N 
ATOM      2  C10 <0> d          -3.018   2.520  -1.063  0.00  0.00     0.153 C 
ATOM      3  C11 <0> d          -2.020   0.311  -1.310  0.00  0.00     0.260 C 
ATOM      4  O2  <0> d          -1.219  -0.542  -0.974  0.00  0.00    -0.267 OA
ENDROOT
BRANCH   1   5
ATOM      5  C9  <0> d          -0.965   1.842   0.265  0.00  0.00     0.164 C 
BRANCH   5   6
ATOM      6  C6  <0> d          -1.444   1.458   1.641  0.00  0.00    -0.040 A 
ATOM      7  C5  <0> d          -1.192   0.188   2.129  0.00  0.00     0.010 A 
ATOM      8  C4  <0> d          -1.627  -0.170   3.388  0.00  0.00     0.017 A 
ATOM      9  C3  <0> d          -2.324   0.753   4.171  0.00  0.00     0.032 A 
ATOM     10  C8  <0> d          -2.575   2.032   3.673  0.00  0.00     0.017 A 
ATOM     11  C7  <0> d          -2.130   2.379   2.414  0.00  0.00     0.010 A 
BRANCH   9  12
ATOM     12  C2  <0> d          -2.794   0.376   5.521  0.00  0.00     0.251 C 
ATOM     13  N1  <0> d          -3.466   1.269   6.274  0.00  0.00    -0.361 N 
ATOM     14  C1  <0> d          -3.932   0.895   7.612  0.00  0.00     0.149 C 
ATOM     15  H4  <0> d          -3.666   2.278   5.884  0.00  0.00     0.162 HD
ATOM     16  O1  <0> d          -2.574  -0.739   5.952  0.00  0.00    -0.268 OA
ENDBRANCH   9  12
ENDBRANCH   5   6
ENDBRANCH   1   5
BRANCH   3  17
ATOM     17  C12 <0> d          -3.005   0.020  -2.358  0.00  0.00     0.118 A 
ATOM     18  C19 <0> d          -2.835   0.523  -3.671  0.00  0.00     0.270 A 
ATOM     19  N4  <0> d          -3.766   0.231  -4.604  0.00  0.00    -0.273 N 
ATOM     20  O3  <0> d          -1.867   1.207  -3.953  0.00  0.00    -0.266 OA
ATOM     21  C14 <0> d          -4.847  -0.536  -4.275  0.00  0.00     0.136 A 
ATOM     22  C18 <0> d          -3.617   0.708  -5.870  0.00  0.00     0.102 A 
ATOM     23  N3  <0> d          -5.008  -1.010  -3.037  0.00  0.00    -0.242 NA
ATOM     24  C15 <0> d          -5.810  -0.834  -5.254  0.00  0.00     0.051 A 
ATOM     25  C13 <0> d          -4.132  -0.767  -2.084  0.00  0.00     0.141 A 
ATOM     26  C16 <0> d          -5.652  -0.353  -6.521  0.00  0.00     0.005 A 
ATOM     27  C17 <0> d          -4.533   0.431  -6.827  0.00  0.00     0.018 A 
ENDBRANCH   3  17
TORSDOF 4
