REMARK  4 active torsions:
REMARK  status: ('A' for Active; 'I' for Inactive)
REMARK    1  A    between atoms: C6_6  and  N1_8 
REMARK    2  A    between atoms: C14_20  and  C15_21 
REMARK    3  A    between atoms: C15_21  and  C16_22 
REMARK       I    between atoms: C16_22  and  N5_24 
REMARK    4  A    between atoms: N5_24  and  C17_25 
ROOT
ATOM      1  N1  <0> d          -1.222   8.905  -4.868  0.00  0.00    -0.215 N 
ATOM      2  C8  <0> d          -1.927   8.680  -3.725  0.00  0.00     0.171 A 
ATOM      3  C9  <0> d          -1.167   7.792  -2.946  0.00  0.00     0.099 A 
ATOM      4  C10 <0> d           0.007   7.507  -3.676  0.00  0.00     0.160 A 
ATOM      5  N2  <0> d          -0.035   8.164  -4.801  0.00  0.00    -0.177 NA
ATOM      6  C11 <0> d          -1.669   7.384  -1.692  0.00  0.00     0.265 A 
ATOM      7  O1  <0> d          -1.027   6.614  -0.999  0.00  0.00    -0.267 OA
ATOM      8  N3  <0> d          -2.881   7.856  -1.255  0.00  0.00    -0.286 N 
ATOM      9  C12 <0> d          -3.552   8.715  -2.077  0.00  0.00     0.174 A 
ATOM     10  N4  <0> d          -3.101   9.106  -3.248  0.00  0.00    -0.204 NA
ATOM     11  S1  <0> d          -5.067   9.144  -1.244  0.00  0.00    -0.090 SA
ATOM     12  C13 <0> d          -4.856   8.159   0.279  0.00  0.00     0.108 A 
ATOM     13  C14 <0> d          -3.494   7.499   0.024  0.00  0.00     0.113 A 
ENDROOT
BRANCH  13  14
ATOM     14  C15 <0> d          -3.674   5.980   0.069  0.00  0.00     0.129 C 
BRANCH  14  15
ATOM     15  C16 <0> d          -4.164   5.572   1.434  0.00  0.00     0.225 C 
ATOM     16  O2  <0> d          -4.246   6.397   2.320  0.00  0.00    -0.273 OA
ATOM     17  N5  <0> d          -4.510   4.292   1.671  0.00  0.00    -0.311 N 
ATOM     18  H14 <0> d          -4.444   3.632   0.963  0.00  0.00     0.170 HD
BRANCH  17  19
ATOM     19  C17 <0> d          -4.963   3.914   2.934  0.00  0.00     0.135 A 
ATOM     20  N6  <0> d          -5.051   4.819   3.897  0.00  0.00    -0.243 NA
ATOM     21  C21 <0> d          -5.474   4.504   5.106  0.00  0.00     0.119 A 
ATOM     22  C20 <0> d          -5.844   3.209   5.412  0.00  0.00     0.020 A 
ATOM     23  C19 <0> d          -5.767   2.231   4.430  0.00  0.00     0.012 A 
ATOM     24  C18 <0> d          -5.314   2.590   3.173  0.00  0.00    -0.016 A 
ATOM     25  C22 <0> d          -5.207   1.562   2.077  0.00  0.00     0.052 C 
ENDBRANCH  17  19
ENDBRANCH  14  15
ENDBRANCH  13  14
BRANCH   1  26
ATOM     26  C6  <0> d          -1.616   9.732  -5.926  0.00  0.00     0.061 A 
ATOM     27  C5  <0> d          -2.957   9.825  -6.275  0.00  0.00     0.032 A 
ATOM     28  C4  <0> d          -3.342  10.646  -7.317  0.00  0.00     0.003 A 
ATOM     29  C3  <0> d          -2.394  11.366  -8.020  0.00  0.00     0.007 A 
ATOM     30  C2  <0> d          -1.057  11.272  -7.678  0.00  0.00    -0.060 A 
ATOM     31  C1  <0> d          -0.026  12.059  -8.446  0.00  0.00     0.048 C 
ATOM     32  C7  <0> d          -0.665  10.457  -6.634  0.00  0.00     0.038 A 
ENDBRANCH   1  26
TORSDOF 4
