REMARK  4 active torsions:
REMARK  status: ('A' for Active; 'I' for Inactive)
REMARK    1  A    between atoms: C2_2  and  O1_3 
REMARK    2  A    between atoms: O1_3  and  C3_4 
REMARK    3  A    between atoms: P1_11  and  C13_20 
REMARK    4  A    between atoms: C18_25  and  O5_26 
ROOT
ATOM      1  C3  <0> d          -1.498  -1.849   0.006  0.00  0.00     0.111 C 
ATOM      2  C4  <0> d          -0.428  -2.642  -0.008  0.00  0.00     0.019 C 
ATOM      3  C5  <0> d          -0.520  -4.137  -0.006  0.00  0.00     0.019 C 
ATOM      4  C6  <0> d           0.586  -4.741  -0.867  0.00  0.00     0.046 C 
ATOM      5  C7  <0> d           0.380  -4.369  -2.341  0.00  0.00     0.238 C 
ATOM      6  C8  <0> d           1.518  -5.023  -3.135  0.00  0.00     0.213 C 
ATOM      7  O2  <0> d           1.404  -4.660  -4.523  0.00  0.00    -0.312 OA
ATOM      8  P1  <0> d          -0.042  -4.864  -5.241  0.00  0.00     0.346 P 
ATOM      9  O3  <0> d          -0.227  -6.280  -5.629  0.00  0.00    -0.260 OA
ATOM     10  N1  <0> d          -1.155  -4.433  -4.101  0.00  0.00    -0.172 N 
ATOM     11  N2  <0> d          -0.929  -4.837  -2.802  0.00  0.00     0.018 N 
ATOM     12  C9  <0> d          -2.004  -4.229  -2.002  0.00  0.00     0.268 C 
ATOM     13  C10 <0> d          -1.869  -4.613  -0.547  0.00  0.00     0.029 C 
ATOM     14  C11 <0> d          -2.989  -3.912   0.237  0.00  0.00     0.093 C 
ATOM     15  C12 <0> d          -2.852  -2.425   0.022  0.00  0.00     0.182 C 
ATOM     16  O4  <0> d          -3.830  -1.731  -0.163  0.00  0.00    -0.290 OA
ATOM     17  H14 <0> d          -1.941  -3.917  -4.339  0.00  0.00     0.197 HD
ATOM     18  H24 <0> d          -0.971  -5.843  -2.741  0.00  0.00     0.309 HD
ENDROOT
BRANCH   8  19
ATOM     19  C13 <0> d          -0.179  -3.791  -6.697  0.00  0.00     0.084 A 
ATOM     20  C18 <0> d           0.232  -4.251  -7.939  0.00  0.00     0.083 A 
ATOM     21  C17 <0> d           0.121  -3.430  -9.052  0.00  0.00     0.037 A 
ATOM     22  C16 <0> d          -0.388  -2.153  -8.918  0.00  0.00     0.003 A 
ATOM     23  C15 <0> d          -0.791  -1.694  -7.678  0.00  0.00     0.001 A 
ATOM     24  C14 <0> d          -0.687  -2.512  -6.568  0.00  0.00     0.022 A 
BRANCH  20  25
ATOM     25  O5  <0> d           0.737  -5.506  -8.067  0.00  0.00    -0.360 OA
ATOM     26  H23 <0> d           0.071  -6.181  -8.257  0.00  0.00     0.217 HD
ENDBRANCH  20  25
ENDBRANCH   8  19
BRANCH   1  27
ATOM     27  O1  <0> d          -1.339  -0.499   0.012  0.00  0.00    -0.348 OA
BRANCH  27  28
ATOM     28  C2  <0> d           0.002  -0.004   0.002  0.00  0.00     0.171 C 
ATOM     29  C1  <0> d          -0.019   1.526   0.010  0.00  0.00     0.034 C 
ENDBRANCH  27  28
ENDBRANCH   1  27
TORSDOF 4
