REMARK  6 active torsions:
REMARK  status: ('A' for Active; 'I' for Inactive)
REMARK    1  A    between atoms: C2_2  and  O1_3 
REMARK    2  A    between atoms: O1_3  and  C3_4 
REMARK    3  A    between atoms: C5_6  and  C16_20 
REMARK    4  A    between atoms: C8_9  and  O2_10 
REMARK    5  A    between atoms: O2_10  and  C9_11 
REMARK    6  A    between atoms: C9_11  and  C10_12 
ROOT
ATOM      1  C3  <0> d          -0.809  -2.159  -0.554  0.00  0.00     0.104 A 
ATOM      2  C4  <0> d          -0.961  -0.826  -0.236  0.00  0.00     0.051 A 
ATOM      3  C5  <0> d           0.137   0.043  -0.326  0.00  0.00    -0.031 A 
ATOM      4  C6  <0> d           1.382  -0.449  -0.747  0.00  0.00     0.033 A 
ATOM      5  C7  <0> d           1.524  -1.782  -1.057  0.00  0.00     0.048 A 
ATOM      6  C8  <0> d           0.435  -2.642  -0.966  0.00  0.00     0.119 A 
ATOM      7 Br1  <0> d           3.204  -2.446  -1.616  0.00  0.00    -0.048 Br
ENDROOT
BRANCH   3   8
ATOM      8  C16 <0> d          -0.018   1.458   0.010  0.00  0.00     0.034 C 
ATOM      9  C17 <0> d           0.920   2.085   0.809  0.00  0.00     0.101 A 
ATOM     10  C20 <0> d           0.921   3.550   0.992  0.00  0.00     0.265 A 
ATOM     11  C18 <0> d           1.961   1.319   1.522  0.00  0.00     0.265 A 
ATOM     12  N2  <0> d           1.868   4.091   1.786  0.00  0.00    -0.275 N 
ATOM     13  O5  <0> d           0.093   4.249   0.441  0.00  0.00    -0.267 OA
ATOM     14  C19 <0> d           2.787   3.333   2.398  0.00  0.00     0.329 A 
ATOM     15  H16 <0> d           1.883   5.053   1.917  0.00  0.00     0.173 HD
ATOM     16  N1  <0> d           2.846   1.999   2.279  0.00  0.00    -0.275 N 
ATOM     17  O4  <0> d           3.612   3.884   3.101  0.00  0.00    -0.246 OA
ATOM     18  H15 <0> d           3.539   1.511   2.751  0.00  0.00     0.173 HD
ATOM     19  O3  <0> d           2.022   0.108   1.425  0.00  0.00    -0.267 OA
ENDBRANCH   3   8
BRANCH   1  20
ATOM     20  O1  <0> d          -1.871  -3.004  -0.468  0.00  0.00    -0.349 OA
BRANCH  20  21
ATOM     21  C2  <0> d          -3.113  -2.443  -0.040  0.00  0.00     0.171 C 
ATOM     22  C1  <0> d          -4.182  -3.538  -0.004  0.00  0.00     0.034 C 
ENDBRANCH  20  21
ENDBRANCH   1  20
BRANCH   6  23
ATOM     23  O2  <0> d           0.581  -3.954  -1.278  0.00  0.00    -0.342 OA
BRANCH  23  24
ATOM     24  C9  <0> d           0.349  -4.327  -2.638  0.00  0.00     0.214 C 
BRANCH  24  25
ATOM     25  C10 <0> d           0.557  -5.812  -2.794  0.00  0.00    -0.031 A 
ATOM     26  C15 <0> d           1.806  -6.304  -3.119  0.00  0.00     0.051 A 
ATOM     27  C14 <0> d           1.998  -7.668  -3.257  0.00  0.00     0.117 A 
ATOM     28  C13 <0> d           0.935  -8.537  -3.080  0.00  0.00     0.042 A 
ATOM     29  F1  <0> d           3.220  -8.151  -3.571  0.00  0.00    -0.206 F 
ATOM     30  C12 <0> d          -0.315  -8.042  -2.760  0.00  0.00     0.004 A 
ATOM     31  C11 <0> d          -0.504  -6.681  -2.617  0.00  0.00     0.009 A 
ENDBRANCH  24  25
ENDBRANCH  23  24
ENDBRANCH   6  23
TORSDOF 6
