REMARK  3 active torsions:
REMARK  status: ('A' for Active; 'I' for Inactive)
REMARK    1  A    between atoms: C2_2  and  C3_3 
REMARK    2  A    between atoms: C3_3  and  N1_5 
REMARK    3  A    between atoms: C6_8  and  C9_14 
ROOT
ATOM      1  C9  <0> d           4.553   1.986  -3.192  0.00  0.00     0.257 C 
ATOM      2  C10 <0> d           4.642   1.218  -4.513  0.00  0.00     0.147 A 
ATOM      3  C11 <0> d           3.205   0.923  -4.929  0.00  0.00    -0.041 A 
ATOM      4  C12 <0> d           3.135  -0.385  -5.133  0.00  0.00    -0.005 A 
ATOM      5  C13 <0> d           2.048  -1.244  -5.630  0.00  0.00     0.014 A 
ATOM      6  C14 <0> d           2.320  -2.574  -5.702  0.00  0.00     0.001 A 
ATOM      7  C15 <0> d           3.549  -3.129  -5.332  0.00  0.00     0.002 A 
ATOM      8  C16 <0> d           4.606  -2.413  -4.871  0.00  0.00     0.030 A 
ATOM      9  C17 <0> d           4.443  -1.002  -4.757  0.00  0.00     0.039 A 
ATOM     10  N3  <0> d           5.302  -0.079  -4.370  0.00  0.00    -0.378 N 
ATOM     11  C18 <0> d           2.154   2.006  -4.954  0.00  0.00     0.065 C 
ATOM     12  C19 <0> d           2.286   2.760  -3.618  0.00  0.00     0.239 C 
ATOM     13  N4  <0> d           3.680   3.153  -3.392  0.00  0.00    -0.064 N 
ATOM     14  C20 <0> d           3.749   4.010  -2.201  0.00  0.00     0.270 C 
ATOM     15  H24 <0> d           6.204  -0.224  -4.045  0.00  0.00     0.160 HD
ATOM     16  H25 <0> d           4.007   3.675  -4.190  0.00  0.00     0.280 HD
ENDROOT
BRANCH   1  17
ATOM     17  C6  <0> d           3.974   1.095  -2.124  0.00  0.00     0.097 A 
ATOM     18  C5  <0> d           4.669   0.880  -0.920  0.00  0.00     0.264 A 
ATOM     19  N1  <0> d           4.134   0.080   0.022  0.00  0.00    -0.261 N 
ATOM     20  O1  <0> d           5.748   1.415  -0.732  0.00  0.00    -0.267 OA
ATOM     21  C8  <0> d           2.945  -0.517  -0.183  0.00  0.00     0.331 A 
ATOM     22  N2  <0> d           2.261  -0.322  -1.325  0.00  0.00    -0.286 N 
ATOM     23  O2  <0> d           2.481  -1.239   0.678  0.00  0.00    -0.246 OA
ATOM     24  C7  <0> d           2.769   0.485  -2.311  0.00  0.00     0.196 A 
ATOM     25  H12 <0> d           1.403  -0.757  -1.453  0.00  0.00     0.172 HD
ATOM     26  O3  <0> d           2.082   0.674  -3.457  0.00  0.00    -0.171 OA
BRANCH  19  27
ATOM     27  C3  <0> d           4.854  -0.147   1.278  0.00  0.00     0.093 C 
ATOM     28  C4  <0> d           3.993   0.323   2.452  0.00  0.00     0.033 C 
BRANCH  27  29
ATOM     29  C2  <0> d           5.154  -1.639   1.431  0.00  0.00     0.021 C 
ATOM     30  C1  <0> d           6.117  -2.082   0.327  0.00  0.00     0.007 C 
ENDBRANCH  27  29
ENDBRANCH  19  27
ENDBRANCH   1  17
TORSDOF 3
