REMARK  4 active torsions:
REMARK  status: ('A' for Active; 'I' for Inactive)
REMARK    1  A    between atoms: C4_4  and  C17_20 
REMARK    2  A    between atoms: C7_7  and  O1_8 
REMARK    3  A    between atoms: O1_8  and  C8_9 
REMARK    4  A    between atoms: C17_20  and  O3_21 
ROOT
ATOM      1  C8  <0> d           0.011  -0.677   3.579  0.00  0.00     0.076 A 
ATOM      2  C9  <0> d           0.074  -2.062   3.623  0.00  0.00     0.039 A 
ATOM      3  C10 <0> d           0.060  -2.716   4.838  0.00  0.00     0.033 A 
ATOM      4  C11 <0> d          -0.016  -1.987   6.018  0.00  0.00     0.041 A 
ATOM      5  C12 <0> d          -0.079  -0.600   5.973  0.00  0.00    -0.028 A 
ATOM      6  C13 <0> d          -0.060   0.053   4.756  0.00  0.00     0.046 A 
ATOM      7  C14 <0> d          -0.160   0.189   7.254  0.00  0.00     0.050 C 
ATOM      8  C15 <0> d          -0.967  -0.598   8.288  0.00  0.00     0.108 C 
ATOM      9  C16 <0> d          -0.468  -2.015   8.358  0.00  0.00     0.222 C 
ATOM     10  O2  <0> d          -0.459  -2.596   9.422  0.00  0.00    -0.273 OA
ATOM     11  N1  <0> d          -0.030  -2.646   7.253  0.00  0.00    -0.327 N 
ATOM     12  H14 <0> d           0.278  -3.564   7.312  0.00  0.00     0.169 HD
ENDROOT
BRANCH   1  13
ATOM     13  O1  <0> d           0.025  -0.034   2.381  0.00  0.00    -0.310 OA
BRANCH  13  14
ATOM     14  C7  <0> d          -1.167   0.213   1.775  0.00  0.00     0.082 A 
ATOM     15  C2  <0> d          -1.202   0.864   0.551  0.00  0.00    -0.028 A 
ATOM     16  C1  <0> d           0.081   1.299  -0.110  0.00  0.00     0.051 C 
ATOM     17  C3  <0> d          -2.415   1.109  -0.065  0.00  0.00     0.019 A 
ATOM     18  C4  <0> d          -3.592   0.711   0.541  0.00  0.00    -0.034 A 
ATOM     19  C5  <0> d          -3.559   0.066   1.764  0.00  0.00     0.012 A 
ATOM     20  C6  <0> d          -2.350  -0.181   2.384  0.00  0.00     0.038 A 
BRANCH  18  21
ATOM     21  C17 <0> d          -4.913   0.980  -0.133  0.00  0.00     0.202 C 
BRANCH  21  22
ATOM     22  O3  <0> d          -5.252  -0.123  -0.975  0.00  0.00    -0.396 OA
ATOM     23  H17 <0> d          -6.092  -0.019  -1.442  0.00  0.00     0.209 HD
ENDBRANCH  21  22
ENDBRANCH  18  21
ENDBRANCH  13  14
ENDBRANCH   1  13
TORSDOF 4
