REMARK  4 active torsions:
REMARK  status: ('A' for Active; 'I' for Inactive)
REMARK    1  A    between atoms: C5_6  and  C6_7 
REMARK       I    between atoms: C6_7  and  N1_9 
REMARK    2  A    between atoms: C8_11  and  C15_19 
REMARK       I    between atoms: C15_19  and  N3_21 
REMARK    3  A    between atoms: N3_21  and  C16_22 
REMARK    4  A    between atoms: C16_22  and  C17_23 
ROOT
ATOM      1  C6  <0> d           0.032  -0.278   2.568  0.00  0.00     0.261 C 
ATOM      2  O1  <0> d           0.122   0.910   2.814  0.00  0.00    -0.267 OA
ATOM      3  N1  <0> d          -0.049  -1.170   3.575  0.00  0.00    -0.346 N 
ATOM      4  C7  <0> d          -0.041  -2.649   3.480  0.00  0.00     0.141 C 
ATOM      5  C8  <0> d           0.813  -3.113   4.682  0.00  0.00     0.106 C 
ATOM      6  C9  <0> d           0.726  -1.958   5.694  0.00  0.00    -0.007 C 
ATOM      7  C10 <0> d          -0.159  -0.894   5.027  0.00  0.00     0.136 C 
ATOM      8  C11 <0> d           2.114  -1.386   5.964  0.00  0.00     0.039 C 
ATOM      9  C12 <0> d           2.009  -0.278   7.015  0.00  0.00     0.233 C 
ATOM     10  N2  <0> d           1.434  -0.825   8.250  0.00  0.00    -0.075 N 
ATOM     11  C13 <0> d           0.063  -1.288   8.002  0.00  0.00     0.233 C 
ATOM     12  C14 <0> d           0.086  -2.439   6.992  0.00  0.00     0.039 C 
ATOM     13  H15 <0> d           1.997  -1.600   8.567  0.00  0.00     0.277 HD
ATOM     14  H27 <0> d           1.422  -0.108   8.960  0.00  0.00     0.277 HD
ENDROOT
BRANCH   5  15
ATOM     15  C15 <0> d           2.241  -3.334   4.257  0.00  0.00     0.224 C 
ATOM     16  O2  <0> d           2.739  -2.622   3.410  0.00  0.00    -0.273 OA
ATOM     17  N3  <0> d           2.966  -4.323   4.816  0.00  0.00    -0.354 N 
ATOM     18  H20 <0> d           2.567  -4.892   5.494  0.00  0.00     0.162 HD
BRANCH  17  19
ATOM     19  C16 <0> d           4.354  -4.538   4.403  0.00  0.00     0.189 C 
BRANCH  19  20
ATOM     20  C17 <0> d           4.935  -5.696   5.174  0.00  0.00     0.092 A 
ATOM     21  S2  <0> d           5.746  -5.668   6.649  0.00  0.00    -0.083 SA
ATOM     22  C19 <0> d           6.055  -7.420   6.792  0.00  0.00     0.078 A 
ATOM     23  C18 <0> d           5.488  -7.869   5.643  0.00  0.00     0.038 A 
ATOM     24  N4  <0> d           4.935  -6.966   4.857  0.00  0.00    -0.249 NA
ATOM     25  C20 <0> d           5.490  -9.332   5.282  0.00  0.00     0.071 C 
ENDBRANCH  19  20
ENDBRANCH  17  19
ENDBRANCH   5  15
BRANCH   1  26
ATOM     26  C5  <0> d           0.011  -0.739   1.177  0.00  0.00     0.078 A 
ATOM     27  C2  <0> d          -0.009   0.008   0.009  0.00  0.00    -0.039 A 
ATOM     28  C1  <0> d          -0.011   1.515   0.021  0.00  0.00     0.050 C 
ATOM     29  C3  <0> d          -0.020  -0.713  -1.161  0.00  0.00     0.015 A 
ATOM     30  C4  <0> d          -0.016  -2.068  -1.100  0.00  0.00     0.051 A 
ATOM     31  S1  <0> d           0.003  -2.406   0.545  0.00  0.00    -0.096 SA
ENDBRANCH   1  26
TORSDOF 4
