REMARK  4 active torsions:
REMARK  status: ('A' for Active; 'I' for Inactive)
REMARK    1  A    between atoms: C5_5  and  C7_8 
REMARK    2  A    between atoms: C7_8  and  C8_9 
REMARK       I    between atoms: C8_9  and  N2_11 
REMARK    3  A    between atoms: N2_11  and  N3_12 
REMARK       I    between atoms: N3_12  and  C9_13 
REMARK    4  A    between atoms: C9_13  and  C10_15 
ROOT
ATOM      1  N3  <0> d           3.078  -6.482   0.148  0.00  0.00    -0.263 N 
ATOM      2  C9  <0> d           3.342  -7.803   0.197  0.00  0.00     0.277 C 
ATOM      3  O2  <0> d           2.428  -8.606   0.231  0.00  0.00    -0.265 OA
ATOM      4  H10 <0> d           3.807  -5.843   0.121  0.00  0.00     0.190 HD
ENDROOT
BRANCH   1   5
ATOM      5  N2  <0> d           1.751  -6.033   0.138  0.00  0.00    -0.267 N 
ATOM      6  C8  <0> d           1.487  -4.713   0.089  0.00  0.00     0.240 C 
ATOM      7  O1  <0> d           2.398  -3.913   0.055  0.00  0.00    -0.272 OA
ATOM      8  H9  <0> d           1.022  -6.673   0.165  0.00  0.00     0.190 HD
BRANCH   6   9
ATOM      9  C7  <0> d           0.059  -4.229   0.077  0.00  0.00     0.144 C 
BRANCH   9  10
ATOM     10  C5  <0> d           0.039  -2.724   0.021  0.00  0.00    -0.032 A 
ATOM     11  C4  <0> d           0.024  -2.067  -1.200  0.00  0.00     0.011 A 
ATOM     12  C3  <0> d           0.005  -0.681  -1.203  0.00  0.00     0.027 A 
ATOM     13  C2  <0> d           0.002  -0.004   0.002  0.00  0.00     0.030 A 
ATOM     14  C1  <0> d          -0.018   1.503   0.010  0.00  0.00     0.070 C 
ATOM     15  N1  <0> d           0.022  -0.662   1.145  0.00  0.00    -0.265 NA
ATOM     16  C6  <0> d           0.035  -1.980   1.186  0.00  0.00     0.124 A 
ENDBRANCH   9  10
ENDBRANCH   6   9
ENDBRANCH   1   5
BRANCH   2  17
ATOM     17  C10 <0> d           4.730  -8.273   0.208  0.00  0.00     0.075 A 
ATOM     18  S1  <0> d           6.239  -7.325   0.165  0.00  0.00    -0.089 SA
ATOM     19  C13 <0> d           7.337  -8.587   0.214  0.00  0.00    -0.010 A 
ATOM     20  C12 <0> d           6.595  -9.726   0.251  0.00  0.00    -0.043 A 
ATOM     21  C14 <0> d           8.831  -8.464   0.214  0.00  0.00     0.046 C 
ATOM     22  C11 <0> d           5.212  -9.566   0.249  0.00  0.00     0.033 A 
ATOM     23  C18 <0> d           7.224 -11.115   0.289  0.00  0.00     0.040 C 
ATOM     24  C17 <0> d           8.358 -11.150   1.308  0.00  0.00     0.005 C 
ATOM     25  C16 <0> d           9.678 -10.758   0.651  0.00  0.00     0.001 C 
ATOM     26  C15 <0> d           9.447  -9.709  -0.433  0.00  0.00     0.005 C 
ENDBRANCH   2  17
TORSDOF 4
