REMARK  4 active torsions:
REMARK  status: ('A' for Active; 'I' for Inactive)
REMARK    1  A    between atoms: C4_4  and  N3_8 
REMARK    2  A    between atoms: N3_8  and  C7_10 
REMARK    3  A    between atoms: C7_10  and  C8_11 
REMARK    4  A    between atoms: C8_11  and  C10_13 
ROOT
ATOM      1  N3  <0> d           0.030  -2.832  -2.322  0.00  0.00    -0.369 N 
ATOM      2  C6  <0> d           0.124  -2.153  -3.616  0.00  0.00     0.151 C 
ENDROOT
BRANCH   1   3
ATOM      3  C4  <0> d           0.026  -2.092  -1.150  0.00  0.00     0.128 A 
ATOM      4  C3  <0> d           0.006  -0.696  -1.193  0.00  0.00     0.077 A 
ATOM      5  C2  <0> d           0.002  -0.004   0.002  0.00  0.00     0.035 A 
ATOM      6  C1  <0> d          -0.018   1.503   0.010  0.00  0.00     0.070 C 
ATOM      7  N2  <0> d           0.022  -0.681   1.141  0.00  0.00    -0.247 NA
ATOM      8  C5  <0> d           0.035  -1.999   1.148  0.00  0.00     0.235 A 
ATOM      9  N1  <0> d           0.040  -2.699   0.033  0.00  0.00    -0.225 NA
ENDBRANCH   1   3
BRANCH   1  10
ATOM     10  C7  <0> d          -0.060  -4.293  -2.265  0.00  0.00     0.135 C 
BRANCH  10  11
ATOM     11  C8  <0> d          -1.530  -4.715  -2.305  0.00  0.00     0.060 C 
ATOM     12  C9  <0> d          -2.136  -4.324  -3.655  0.00  0.00     0.019 C 
BRANCH  11  13
ATOM     13  C10 <0> d          -1.629  -6.208  -2.124  0.00  0.00     0.076 C 
ATOM     14  S1  <0> d          -0.302  -7.080  -1.931  0.00  0.00    -0.065 SA
ATOM     15  N4  <0> d          -2.836  -6.809  -2.125  0.00  0.00    -0.393 N 
ATOM     16  H15 <0> d          -3.640  -6.280  -2.243  0.00  0.00     0.156 HD
ATOM     17  H16 <0> d          -2.899  -7.770  -2.008  0.00  0.00     0.156 HD
ENDBRANCH  11  13
ENDBRANCH  10  11
ENDBRANCH   1  10
TORSDOF 4
