REMARK  6 active torsions:
REMARK  status: ('A' for Active; 'I' for Inactive)
REMARK    1  A    between atoms: C4_4  and  N3_25 
REMARK    2  A    between atoms: C7_7  and  N1_8 
REMARK       I    between atoms: N1_8  and  C8_9 
REMARK    3  A    between atoms: C8_9  and  C9_11 
REMARK       I    between atoms: C9_11  and  N2_13 
REMARK    4  A    between atoms: N2_13  and  C10_14 
REMARK    5  A    between atoms: N2_13  and  C13_17 
REMARK    6  A    between atoms: C13_17  and  C14_18 
ROOT
ATOM      1  C10 <0> d           0.205  -2.021   6.157  0.00  0.00     0.220 C 
ATOM      2  C11 <0> d           1.626  -2.303   6.413  0.00  0.00    -0.098 C 
ATOM      3  C12 <0> d           2.760  -2.528   6.618  0.00  0.00     0.014 C 
ENDROOT
BRANCH   1   4
ATOM      4  N2  <0> d          -0.005  -0.572   6.110  0.00  0.00    -0.329 N 
ATOM      5  C9  <0> d           0.253   0.110   4.976  0.00  0.00     0.312 C 
ATOM      6  O2  <0> d           0.109   1.315   4.947  0.00  0.00    -0.262 OA
BRANCH   5   7
ATOM      7  C8  <0> d           0.716  -0.617   3.756  0.00  0.00     0.314 C 
ATOM      8  N1  <0> d           0.892   0.052   2.600  0.00  0.00    -0.318 N 
ATOM      9  H7  <0> d           0.765   1.013   2.571  0.00  0.00     0.169 HD
ATOM     10  O1  <0> d           0.933  -1.810   3.807  0.00  0.00    -0.262 OA
BRANCH   8  11
ATOM     11  C7  <0> d           1.258  -0.640   1.440  0.00  0.00     0.041 A 
ATOM     12  C2  <0> d           0.873  -0.161   0.195  0.00  0.00    -0.033 A 
ATOM     13  C1  <0> d           0.061   1.105   0.092  0.00  0.00     0.050 C 
ATOM     14  C3  <0> d           1.239  -0.841  -0.950  0.00  0.00     0.038 A 
ATOM     15  C4  <0> d           1.988  -2.007  -0.855  0.00  0.00     0.030 A 
ATOM     16  C5  <0> d           2.368  -2.490   0.391  0.00  0.00     0.031 A 
ATOM     17  C6  <0> d           2.002  -1.810   1.535  0.00  0.00     0.032 A 
BRANCH  15  18
ATOM     18  N3  <0> d           2.358  -2.696  -2.014  0.00  0.00    -0.390 N 
ATOM     19  C20 <0> d           1.845  -2.266  -3.317  0.00  0.00     0.149 C 
ATOM     20  C21 <0> d           3.259  -3.848  -1.925  0.00  0.00     0.149 C 
ENDBRANCH  15  18
ENDBRANCH   8  11
ENDBRANCH   5   7
BRANCH   4  21
ATOM     21  C13 <0> d          -0.495   0.136   7.295  0.00  0.00     0.165 C 
BRANCH  21  22
ATOM     22  C14 <0> d          -2.001   0.172   7.272  0.00  0.00    -0.040 A 
ATOM     23  C19 <0> d          -2.725  -0.846   7.865  0.00  0.00     0.012 A 
ATOM     24  C18 <0> d          -4.107  -0.812   7.849  0.00  0.00     0.043 A 
ATOM     25  C17 <0> d          -4.766   0.236   7.229  0.00  0.00     0.116 A 
ATOM     26  C16 <0> d          -4.040   1.252   6.631  0.00  0.00     0.043 A 
ATOM     27  F1  <0> d          -6.116   0.268   7.209  0.00  0.00    -0.206 F 
ATOM     28  C15 <0> d          -2.658   1.219   6.653  0.00  0.00     0.012 A 
ENDBRANCH  21  22
ENDBRANCH   4  21
ENDBRANCH   1   4
TORSDOF 6
