REMARK  6 active torsions:
REMARK  status: ('A' for Active; 'I' for Inactive)
REMARK    1  A    between atoms: N1_2  and  S1_4 
REMARK    2  A    between atoms: S1_4  and  C3_7 
REMARK    3  A    between atoms: N2_12  and  C8_14 
REMARK    4  A    between atoms: C8_14  and  C9_15 
REMARK       I    between atoms: C9_15  and  N3_17 
REMARK    5  A    between atoms: N3_17  and  C10_18 
REMARK    6  A    between atoms: C10_18  and  C11_19 
ROOT
ATOM      1  C3  <0> d           1.682  -1.059  -1.905  0.00  0.00     0.095 A 
ATOM      2  C4  <0> d           2.456   0.036  -2.313  0.00  0.00     0.032 A 
ATOM      3  C5  <0> d           3.757  -0.164  -2.672  0.00  0.00     0.076 A 
ATOM      4  C6  <0> d           4.292  -1.462  -2.625  0.00  0.00     0.247 A 
ATOM      5  O3  <0> d           5.454  -1.655  -2.943  0.00  0.00    -0.268 OA
ATOM      6  N2  <0> d           3.523  -2.494  -2.228  0.00  0.00    -0.314 N 
ATOM      7  C7  <0> d           2.229  -2.297  -1.866  0.00  0.00     0.120 A 
ENDROOT
BRANCH   6   8
ATOM      8  C8  <0> d           4.090  -3.844  -2.182  0.00  0.00     0.234 C 
BRANCH   8   9
ATOM      9  C9  <0> d           4.688  -4.091  -0.821  0.00  0.00     0.236 C 
ATOM     10  O4  <0> d           4.646  -3.225   0.027  0.00  0.00    -0.272 OA
ATOM     11  N3  <0> d           5.271  -5.275  -0.546  0.00  0.00    -0.356 N 
ATOM     12  H12 <0> d           5.305  -5.968  -1.224  0.00  0.00     0.162 HD
BRANCH  11  13
ATOM     13  C10 <0> d           5.853  -5.515   0.777  0.00  0.00     0.149 C 
BRANCH  13  14
ATOM     14  C11 <0> d           6.436  -6.904   0.824  0.00  0.00    -0.018 C 
ATOM     15  C12 <0> d           7.690  -7.077   1.163  0.00  0.00     0.008 C 
ENDBRANCH  13  14
ENDBRANCH  11  13
ENDBRANCH   8   9
ENDBRANCH   6   8
BRANCH   1  16
ATOM     16  S1  <0> d          -0.000  -0.824  -1.437  0.00  0.00     0.261 S 
ATOM     17  O1  <0> d          -0.531  -2.115  -1.167  0.00  0.00    -0.200 OA
ATOM     18  O2  <0> d          -0.572   0.049  -2.401  0.00  0.00    -0.200 OA
BRANCH  16  19
ATOM     19  N1  <0> d           0.002  -0.004   0.002  0.00  0.00    -0.315 N 
ATOM     20  C1  <0> d          -0.018   1.461   0.010  0.00  0.00     0.162 C 
ATOM     21  C2  <0> d           0.024  -0.743   1.267  0.00  0.00     0.162 C 
ENDBRANCH  16  19
ENDBRANCH   1  16
TORSDOF 6
