REMARK  2 active torsions:
REMARK  status: ('A' for Active; 'I' for Inactive)
REMARK       I    between atoms: N1_2  and  C3_4 
REMARK    1  A    between atoms: C3_4  and  C4_6 
REMARK    2  A    between atoms: C7_9  and  C10_12 
ROOT
ATOM      1  C4  <0> d          -0.120  -2.101  -1.179  0.00  0.00     0.032 A 
ATOM      2  C5  <0> d          -0.318  -2.784   0.023  0.00  0.00     0.018 A 
ATOM      3  C6  <0> d          -0.417  -4.157   0.027  0.00  0.00     0.014 A 
ATOM      4  C7  <0> d          -0.319  -4.868  -1.171  0.00  0.00    -0.009 A 
ATOM      5  C8  <0> d          -0.121  -4.186  -2.373  0.00  0.00     0.014 A 
ATOM      6  C9  <0> d          -0.028  -2.812  -2.378  0.00  0.00     0.018 A 
ENDROOT
BRANCH   4   7
ATOM      7  C10 <0> d          -0.425  -6.343  -1.166  0.00  0.00     0.046 A 
ATOM      8  C11 <0> d          -0.329  -7.033  -2.339  0.00  0.00     0.085 A 
ATOM      9  C12 <0> d          -0.432  -8.441  -2.319  0.00  0.00     0.175 A 
ATOM     10  O2  <0> d          -0.350  -9.086  -3.354  0.00  0.00    -0.288 OA
ATOM     11  C13 <0> d          -0.632  -9.092  -1.078  0.00  0.00     0.072 A 
ATOM     12  C14 <0> d          -0.719  -8.357   0.052  0.00  0.00     0.092 A 
ATOM     13  N2  <0> d          -0.612  -7.006   0.012  0.00  0.00    -0.365 N 
ATOM     14  H14 <0> d          -0.674  -6.500   0.837  0.00  0.00     0.165 HD
ENDBRANCH   4   7
BRANCH   1  15
ATOM     15  C3  <0> d          -0.014  -0.627  -1.184  0.00  0.00     0.253 C 
ATOM     16  N1  <0> d           0.584   0.009  -0.157  0.00  0.00    -0.357 N 
ATOM     17  C1  <0> d           0.576   1.473  -0.097  0.00  0.00     0.152 C 
ATOM     18  C2  <0> d           1.241  -0.763   0.900  0.00  0.00     0.152 C 
ATOM     19  O1  <0> d          -0.466   0.012  -2.114  0.00  0.00    -0.267 OA
ENDBRANCH   1  15
TORSDOF 2
