REMARK  5 active torsions:
REMARK  status: ('A' for Active; 'I' for Inactive)
REMARK    1  A    between atoms: C6_7  and  C9_11 
REMARK    2  A    between atoms: C9_11  and  C10_12 
REMARK    3  A    between atoms: C10_12  and  N3_13 
REMARK       I    between atoms: N3_13  and  C11_14 
REMARK    4  A    between atoms: C11_14  and  C12_16 
REMARK    5  A    between atoms: C12_16  and  N4_17 
ROOT
ATOM      1  N3  <0> d          -2.291  -7.292   1.789  0.00  0.00    -0.360 N 
ATOM      2  C11 <0> d          -2.444  -8.571   1.391  0.00  0.00     0.236 C 
ATOM      3  O1  <0> d          -1.598  -9.097   0.699  0.00  0.00    -0.272 OA
ATOM      4  H12 <0> d          -2.967  -6.872   2.343  0.00  0.00     0.162 HD
ENDROOT
BRANCH   1   5
ATOM      5  C10 <0> d          -1.102  -6.537   1.384  0.00  0.00     0.126 C 
BRANCH   5   6
ATOM      6  C9  <0> d          -1.174  -5.123   1.965  0.00  0.00     0.066 C 
BRANCH   6   7
ATOM      7  C6  <0> d           0.067  -4.335   1.542  0.00  0.00     0.183 A 
ATOM      8  N1  <0> d           0.057  -4.120   0.090  0.00  0.00    -0.367 N 
ATOM      9  C5  <0> d           0.040  -2.834  -0.114  0.00  0.00     0.056 A 
ATOM     10  H19 <0> d           0.062  -4.809  -0.593  0.00  0.00     0.161 HD
ATOM     11  C4  <0> d           0.022  -2.017  -1.335  0.00  0.00     0.032 A 
ATOM     12  C7  <0> d           0.037  -2.127   1.195  0.00  0.00     0.057 A 
ATOM     13  C3  <0> d           0.005  -0.672  -1.235  0.00  0.00     0.009 A 
ATOM     14  C2  <0> d           0.002  -0.004   0.002  0.00  0.00    -0.060 A 
ATOM     15  C1  <0> d          -0.018   1.503   0.010  0.00  0.00     0.048 C 
ATOM     16  C8  <0> d           0.022  -0.657   1.181  0.00  0.00     0.038 A 
ATOM     17  N2  <0> d           0.053  -3.002   2.159  0.00  0.00    -0.367 N 
ATOM     18  H20 <0> d           0.055  -2.810   3.109  0.00  0.00     0.161 HD
ENDBRANCH   6   7
ENDBRANCH   5   6
ENDBRANCH   1   5
BRANCH   2  19
ATOM     19  C12 <0> d          -3.667  -9.348   1.808  0.00  0.00     0.237 C 
BRANCH  19  20
ATOM     20  N4  <0> d          -3.598 -10.702   1.252  0.00  0.00    -0.282 N 
ATOM     21  C19 <0> d          -3.040 -11.778   1.841  0.00  0.00     0.373 A 
ATOM     22  O2  <0> d          -3.169 -12.845   1.037  0.00  0.00    -0.259 OA
ATOM     23  O3  <0> d          -2.507 -11.782   2.934  0.00  0.00    -0.237 OA
ATOM     24  C18 <0> d          -3.807 -12.472  -0.099  0.00  0.00     0.107 A 
ATOM     25  C13 <0> d          -4.091 -11.111   0.013  0.00  0.00     0.073 A 
ATOM     26  C17 <0> d          -4.186 -13.161  -1.240  0.00  0.00     0.040 A 
ATOM     27  C14 <0> d          -4.749 -10.453  -1.014  0.00  0.00     0.033 A 
ATOM     28  C15 <0> d          -5.122 -11.148  -2.147  0.00  0.00     0.002 A 
ATOM     29  C16 <0> d          -4.841 -12.498  -2.260  0.00  0.00     0.003 A 
ENDBRANCH  19  20
ENDBRANCH   2  19
TORSDOF 5
