REMARK  6 active torsions:
REMARK  status: ('A' for Active; 'I' for Inactive)
REMARK    1  A    between atoms: N1_2  and  C2_3 
REMARK    2  A    between atoms: N1_2  and  C9_10 
REMARK    3  A    between atoms: C2_3  and  C3_4 
REMARK    4  A    between atoms: C10_11  and  C14_15 
REMARK    5  A    between atoms: C14_15  and  N2_16 
REMARK       I    between atoms: N2_16  and  C15_17 
REMARK       I    between atoms: C15_17  and  N3_19 
REMARK    6  A    between atoms: N3_19  and  C16_20 
ROOT
ATOM      1  C9  <0> d           3.856   5.176  -1.462  0.00  0.00     0.090 A 
ATOM      2  C10 <0> d           4.559   5.311  -2.654  0.00  0.00    -0.002 A 
ATOM      3  C11 <0> d           5.739   6.034  -2.661  0.00  0.00     0.013 A 
ATOM      4  C12 <0> d           6.182   6.590  -1.469  0.00  0.00     0.018 A 
ATOM      5  C13 <0> d           5.436   6.413  -0.321  0.00  0.00     0.089 A 
ATOM      6  N4  <0> d           4.270   5.714  -0.278  0.00  0.00    -0.356 N 
ATOM      7  H25 <0> d           3.736   5.597   0.591  0.00  0.00     0.166 HD
ENDROOT
BRANCH   2   8
ATOM      8  C14 <0> d           4.041   4.683  -3.922  0.00  0.00     0.166 C 
BRANCH   8   9
ATOM      9  N2  <0> d           2.945   5.494  -4.457  0.00  0.00    -0.339 N 
ATOM     10  C15 <0> d           2.323   5.122  -5.593  0.00  0.00     0.316 C 
ATOM     11  O1  <0> d           2.673   4.114  -6.175  0.00  0.00    -0.247 OA
ATOM     12  N3  <0> d           1.315   5.869  -6.085  0.00  0.00    -0.338 N 
ATOM     13  H18 <0> d           1.036   6.673  -5.621  0.00  0.00     0.164 HD
ATOM     14  H17 <0> d           2.666   6.299  -3.992  0.00  0.00     0.164 HD
BRANCH  12  15
ATOM     15  C16 <0> d           0.639   5.465  -7.321  0.00  0.00     0.101 C 
ATOM     16  C19 <0> d          -0.802   6.048  -7.346  0.00  0.00     0.165 C 
ATOM     17  S1  <0> d          -1.176   5.944  -9.148  0.00  0.00     0.146 S 
ATOM     18  C18 <0> d           0.538   5.878  -9.811  0.00  0.00     0.142 C 
ATOM     19  O2  <0> d          -1.823   4.708  -9.415  0.00  0.00    -0.228 OA
ATOM     20  O3  <0> d          -1.787   7.158  -9.564  0.00  0.00    -0.228 OA
ATOM     21  C17 <0> d           1.402   6.020  -8.535  0.00  0.00     0.041 C 
ENDBRANCH  12  15
ENDBRANCH   8   9
ENDBRANCH   2   8
BRANCH   1  22
ATOM     22  N1  <0> d           2.666   4.457  -1.441  0.00  0.00    -0.269 NA
ATOM     23  C1  <0> d           2.818   3.210  -0.679  0.00  0.00     0.118 C 
BRANCH  22  24
ATOM     24  C2  <0> d           1.568   5.271  -0.904  0.00  0.00     0.135 C 
BRANCH  24  25
ATOM     25  C3  <0> d           0.259   4.556  -1.122  0.00  0.00    -0.045 A 
ATOM     26  C8  <0> d          -0.459   4.769  -2.284  0.00  0.00     0.008 A 
ATOM     27  C7  <0> d          -1.659   4.113  -2.484  0.00  0.00     0.001 A 
ATOM     28  C6  <0> d          -2.139   3.241  -1.525  0.00  0.00     0.000 A 
ATOM     29  C5  <0> d          -1.423   3.032  -0.361  0.00  0.00     0.001 A 
ATOM     30  C4  <0> d          -0.223   3.688  -0.161  0.00  0.00     0.008 A 
ENDBRANCH  24  25
ENDBRANCH  22  24
ENDBRANCH   1  22
TORSDOF 6
