REMARK  10 active torsions:
REMARK  status: ('A' for Active; 'I' for Inactive)
REMARK    1  A    between atoms: C2_2  and  C3_3 
REMARK    2  A    between atoms: C2_2  and  N1_27 
REMARK    3  A    between atoms: C3_3  and  C4_4 
REMARK    4  A    between atoms: C3_3  and  O3_19 
REMARK    5  A    between atoms: C4_4  and  O1_5 
REMARK    6  A    between atoms: O1_5  and  C5_6 
REMARK    7  A    between atoms: C10_11  and  C11_12 
REMARK    8  A    between atoms: C11_12  and  N2_29 
REMARK    9  A    between atoms: C12_13  and  N2_29 
REMARK   10  A    between atoms: C17_20  and  N1_27 
ROOT
ATOM      1  C5  <0> d          -3.786  -2.332  -1.663  0.00  0.00     0.076 A 
ATOM      2  C6  <0> d          -5.119  -2.646  -1.441  0.00  0.00     0.037 A 
ATOM      3  C7  <0> d          -5.458  -3.563  -0.466  0.00  0.00     0.003 A 
ATOM      4  C8  <0> d          -4.470  -4.172   0.286  0.00  0.00     0.001 A 
ATOM      5  C9  <0> d          -3.141  -3.864   0.065  0.00  0.00     0.011 A 
ATOM      6  C10 <0> d          -2.796  -2.947  -0.910  0.00  0.00     0.001 A 
ENDROOT
BRANCH   1   7
ATOM      7  O1  <0> d          -3.450  -1.426  -2.619  0.00  0.00    -0.348 OA
BRANCH   7   8
ATOM      8  C4  <0> d          -4.521  -0.832  -3.355  0.00  0.00     0.209 C 
BRANCH   8   9
ATOM      9  C3  <0> d          -3.951   0.154  -4.377  0.00  0.00     0.168 C 
BRANCH   9  10
ATOM     10  C2  <0> d          -5.100   0.881  -5.079  0.00  0.00     0.268 C 
BRANCH  10  11
ATOM     11  N1  <0> d          -4.533   1.844  -6.046  0.00  0.00    -0.068 N 
ATOM     12  C1  <0> d          -5.583   2.301  -6.980  0.00  0.00     0.270 C 
ATOM     13  H36 <0> d          -3.789   1.380  -6.581  0.00  0.00     0.280 HD
BRANCH  11  14
ATOM     14  C17 <0> d          -3.958   3.001  -5.328  0.00  0.00     0.188 C 
ATOM     15  C22 <0> d          -3.291   3.932  -6.342  0.00  0.00     0.033 C 
ATOM     16  C21 <0> d          -2.670   5.123  -5.610  0.00  0.00     0.002 C 
ATOM     17  C20 <0> d          -3.763   5.887  -4.860  0.00  0.00     0.000 C 
ATOM     18  C19 <0> d          -4.430   4.956  -3.845  0.00  0.00     0.002 C 
ATOM     19  C18 <0> d          -5.051   3.764  -4.577  0.00  0.00     0.033 C 
ENDBRANCH  11  14
ENDBRANCH  10  11
ENDBRANCH   9  10
BRANCH   9  20
ATOM     20  O3  <0> d          -3.177  -0.557  -5.345  0.00  0.00    -0.392 OA
ATOM     21  H24 <0> d          -3.677  -1.223  -5.837  0.00  0.00     0.210 HD
ENDBRANCH   9  20
ENDBRANCH   8   9
ENDBRANCH   7   8
ENDBRANCH   1   7
BRANCH   6  22
ATOM     22  C11 <0> d          -1.347  -2.612  -1.152  0.00  0.00     0.274 C 
BRANCH  22  23
ATOM     23  N2  <0> d          -1.027  -1.338  -0.480  0.00  0.00    -0.067 N 
ATOM     24  H37 <0> d          -1.200  -1.433   0.527  0.00  0.00     0.277 HD
ATOM     25  H38 <0> d          -1.625  -0.595  -0.862  0.00  0.00     0.277 HD
BRANCH  23  26
ATOM     26  C12 <0> d           0.388  -0.984  -0.700  0.00  0.00     0.190 C 
ATOM     27  C16 <0> d           1.259  -1.673   0.355  0.00  0.00     0.059 C 
ATOM     28  C15 <0> d           2.713  -1.231   0.173  0.00  0.00     0.169 C 
ATOM     29  O2  <0> d           2.793   0.192   0.273  0.00  0.00    -0.391 OA
ATOM     30  C14 <0> d           2.036   0.890  -0.719  0.00  0.00     0.169 C 
ATOM     31  C13 <0> d           0.554   0.533  -0.572  0.00  0.00     0.059 C 
ENDBRANCH  23  26
ENDBRANCH  22  23
ENDBRANCH   6  22
TORSDOF 10
