REMARK  11 active torsions:
REMARK  status: ('A' for Active; 'I' for Inactive)
REMARK    1  A    between atoms: C2_2  and  C3_3 
REMARK    2  A    between atoms: C3_3  and  O1_4 
REMARK    3  A    between atoms: O1_4  and  C4_5 
REMARK    4  A    between atoms: C7_8  and  C10_12 
REMARK    5  A    between atoms: C9_10  and  N1_11 
REMARK    6  A    between atoms: C10_12  and  C11_13 
REMARK    7  A    between atoms: C10_12  and  O2_24 
REMARK    8  A    between atoms: C11_13  and  C12_14 
REMARK    9  A    between atoms: C12_14  and  N2_15 
REMARK   10  A    between atoms: N2_15  and  C14_17 
REMARK   11  A    between atoms: C14_17  and  C15_18 
ROOT
ATOM      1  C10 <0> d           3.352  -4.482   5.548  0.00  0.00     0.152 C 
ENDROOT
BRANCH   1   2
ATOM      2  C7  <0> d           2.658  -3.806   4.394  0.00  0.00    -0.027 A 
ATOM      3  C6  <0> d           2.596  -2.426   4.339  0.00  0.00     0.012 A 
ATOM      4  C5  <0> d           1.961  -1.800   3.282  0.00  0.00     0.040 A 
ATOM      5  C4  <0> d           1.386  -2.555   2.274  0.00  0.00     0.095 A 
ATOM      6  C9  <0> d           1.443  -3.945   2.331  0.00  0.00     0.060 A 
ATOM      7  C8  <0> d           2.086  -4.567   3.391  0.00  0.00     0.041 A 
BRANCH   5   8
ATOM      8  O1  <0> d           0.761  -1.940   1.234  0.00  0.00    -0.349 OA
BRANCH   8   9
ATOM      9  C3  <0> d           0.742  -0.511   1.242  0.00  0.00     0.175 C 
BRANCH   9  10
ATOM     10  C2  <0> d           0.002  -0.004   0.002  0.00  0.00     0.022 C 
ATOM     11  C1  <0> d          -0.019   1.526   0.010  0.00  0.00     0.007 C 
ENDBRANCH   9  10
ENDBRANCH   8   9
ENDBRANCH   5   8
BRANCH   6  12
ATOM     12  N1  <0> d           0.857  -4.714   1.318  0.00  0.00    -0.397 N 
ATOM     13  H12 <0> d           0.411  -4.278   0.575  0.00  0.00     0.156 HD
ATOM     14  H13 <0> d           0.897  -5.682   1.359  0.00  0.00     0.156 HD
ENDBRANCH   6  12
ENDBRANCH   1   2
BRANCH   1  15
ATOM     15  C11 <0> d           2.375  -4.626   6.716  0.00  0.00     0.064 C 
BRANCH  15  16
ATOM     16  C12 <0> d           3.039  -5.423   7.841  0.00  0.00     0.237 C 
BRANCH  16  17
ATOM     17  N2  <0> d           2.101  -5.560   8.964  0.00  0.00    -0.071 N 
ATOM     18  C13 <0> d           0.949  -6.369   8.543  0.00  0.00     0.270 C 
ATOM     19  H29 <0> d           1.784  -4.647   9.251  0.00  0.00     0.279 HD
BRANCH  17  20
ATOM     20  C14 <0> d           2.777  -6.220  10.089  0.00  0.00     0.273 C 
BRANCH  20  21
ATOM     21  C15 <0> d           1.856  -6.251  11.280  0.00  0.00    -0.033 A 
ATOM     22  C20 <0> d           1.002  -7.322  11.466  0.00  0.00     0.009 A 
ATOM     23  C19 <0> d           0.160  -7.353  12.561  0.00  0.00     0.001 A 
ATOM     24  C18 <0> d           0.164  -6.308  13.466  0.00  0.00     0.000 A 
ATOM     25  C17 <0> d           1.014  -5.234  13.278  0.00  0.00     0.001 A 
ATOM     26  C16 <0> d           1.859  -5.205  12.185  0.00  0.00     0.009 A 
ENDBRANCH  20  21
ENDBRANCH  17  20
ENDBRANCH  16  17
ENDBRANCH  15  16
ENDBRANCH   1  15
BRANCH   1  27
ATOM     27  O2  <0> d           4.472  -3.696   5.957  0.00  0.00    -0.391 OA
ATOM     28  H28 <0> d           4.241  -2.803   6.247  0.00  0.00     0.210 HD
ENDBRANCH   1  27
TORSDOF 11
