REMARK  4 active torsions:
REMARK  status: ('A' for Active; 'I' for Inactive)
REMARK    1  A    between atoms: N1_2  and  C3_4 
REMARK    2  A    between atoms: C6_7  and  N2_10 
REMARK    3  A    between atoms: C11_14  and  C13_17 
REMARK    4  A    between atoms: C12_15  and  N3_16 
ROOT
ATOM      1  N2  <0> d          -0.022  -2.764  -4.835  0.00  0.00    -0.326 N 
ATOM      2  C9  <0> d           0.093  -4.220  -5.006  0.00  0.00     0.214 A 
ATOM      3  C10 <0> d           0.059  -4.433  -6.505  0.00  0.00     0.181 A 
ATOM      4  O1  <0> d           0.127  -5.495  -7.096  0.00  0.00    -0.291 OA
ATOM      5  C11 <0> d          -0.066  -3.168  -7.066  0.00  0.00     0.075 A 
ATOM      6  C12 <0> d          -0.118  -2.210  -6.080  0.00  0.00     0.115 A 
ENDROOT
BRANCH   5   7
ATOM      7  C13 <0> d          -0.140  -2.885  -8.545  0.00  0.00     0.224 A 
ATOM      8  N5  <0> d           1.077  -3.367  -9.211  0.00  0.00    -0.363 N 
ATOM      9  C19 <0> d           0.716  -4.265 -10.082  0.00  0.00     0.056 A 
ATOM     10  H21 <0> d           1.983  -3.070  -9.035  0.00  0.00     0.162 HD
ATOM     11  C14 <0> d          -0.763  -4.427 -10.039  0.00  0.00     0.056 A 
ATOM     12  C18 <0> d           1.469  -5.091 -11.036  0.00  0.00     0.031 A 
ATOM     13  N4  <0> d          -1.259  -3.623  -9.143  0.00  0.00    -0.363 N 
ATOM     14  C15 <0> d          -1.373  -5.402 -10.954  0.00  0.00     0.031 A 
ATOM     15  H20 <0> d          -2.197  -3.529  -8.914  0.00  0.00     0.162 HD
ATOM     16  C16 <0> d          -0.588  -6.109 -11.791  0.00  0.00     0.002 A 
ATOM     17  C17 <0> d           0.809  -5.956 -11.831  0.00  0.00     0.002 A 
ENDBRANCH   5   7
BRANCH   6  18
ATOM     18  N3  <0> d          -0.245  -0.868  -6.317  0.00  0.00    -0.385 N 
ATOM     19  H13 <0> d          -0.188  -0.238  -5.581  0.00  0.00     0.157 HD
ATOM     20  H14 <0> d          -0.392  -0.547  -7.220  0.00  0.00     0.157 HD
ENDBRANCH   6  18
BRANCH   1  21
ATOM     21  C6  <0> d          -0.038  -2.072  -3.618  0.00  0.00     0.036 A 
ATOM     22  C5  <0> d           1.099  -2.043  -2.821  0.00  0.00     0.032 A 
ATOM     23  C4  <0> d           1.084  -1.360  -1.621  0.00  0.00     0.031 A 
ATOM     24  C3  <0> d          -0.069  -0.702  -1.211  0.00  0.00     0.029 A 
ATOM     25  C8  <0> d          -1.207  -0.736  -2.005  0.00  0.00     0.031 A 
ATOM     26  C7  <0> d          -1.190  -1.414  -3.208  0.00  0.00     0.032 A 
BRANCH  24  27
ATOM     27  N1  <0> d          -0.084  -0.011   0.005  0.00  0.00    -0.390 N 
ATOM     28  C1  <0> d          -1.302   0.678   0.441  0.00  0.00     0.149 C 
ATOM     29  C2  <0> d           1.117   0.024   0.844  0.00  0.00     0.149 C 
ENDBRANCH  24  27
ENDBRANCH   1  21
TORSDOF 4
