REMARK  4 active torsions:
REMARK  status: ('A' for Active; 'I' for Inactive)
REMARK    1  A    between atoms: C3_3  and  S1_9 
REMARK    2  A    between atoms: S1_9  and  N3_12 
REMARK    3  A    between atoms: N3_12  and  N4_13 
REMARK       I    between atoms: N4_13  and  C6_14 
REMARK    4  A    between atoms: C6_14  and  C7_16 
ROOT
ATOM      1  S1  <0> d          -0.009  -0.263  -2.808  0.00  0.00     0.281 S 
ATOM      2  O1  <0> d          -0.548  -1.324  -3.583  0.00  0.00    -0.199 OA
ATOM      3  O2  <0> d          -0.579   1.039  -2.798  0.00  0.00    -0.199 OA
ENDROOT
BRANCH   1   4
ATOM      4  C3  <0> d           0.008  -0.818  -1.135  0.00  0.00     0.146 A 
ATOM      5  C2  <0> d           0.002  -0.004   0.002  0.00  0.00     0.077 A 
ATOM      6  C1  <0> d          -0.018   1.503   0.010  0.00  0.00     0.074 C 
ATOM      7  N2  <0> d           0.023  -0.777   1.058  0.00  0.00    -0.175 NA
ATOM      8  N1  <0> d           0.035  -2.109   0.626  0.00  0.00    -0.261 N 
ATOM      9  C4  <0> d           0.028  -2.108  -0.724  0.00  0.00     0.147 A 
ATOM     10  C5  <0> d           0.055  -3.294   1.487  0.00  0.00     0.181 C 
ATOM     11 Cl1  <0> d           0.043  -3.509  -1.749  0.00  0.00    -0.061 Cl
ENDBRANCH   1   4
BRANCH   1  12
ATOM     12  N3  <0> d           1.568  -0.085  -3.281  0.00  0.00    -0.220 N 
ATOM     13  H8  <0> d           1.893   0.782  -3.570  0.00  0.00     0.200 HD
BRANCH  12  14
ATOM     14  N4  <0> d           2.433  -1.187  -3.263  0.00  0.00    -0.258 N 
ATOM     15  C6  <0> d           3.100  -1.538  -4.380  0.00  0.00     0.265 C 
ATOM     16  O3  <0> d           2.952  -0.900  -5.401  0.00  0.00    -0.269 OA
ATOM     17  H9  <0> d           2.552  -1.697  -2.446  0.00  0.00     0.190 HD
BRANCH  15  18
ATOM     18  C7  <0> d           4.030  -2.724  -4.361  0.00  0.00     0.215 C 
ATOM     19  O4  <0> d           4.667  -2.878  -5.639  0.00  0.00    -0.376 OA
ATOM     20  C10 <0> d           4.814  -4.271  -5.946  0.00  0.00     0.168 C 
ATOM     21  C9  <0> d           4.187  -5.074  -4.785  0.00  0.00     0.029 C 
ATOM     22  C8  <0> d           3.230  -4.032  -4.144  0.00  0.00     0.044 C 
ENDBRANCH  15  18
ENDBRANCH  12  14
ENDBRANCH   1  12
TORSDOF 4
