REMARK  9 active torsions:
REMARK  status: ('A' for Active; 'I' for Inactive)
REMARK    1  A    between atoms: S1_2  and  N1_5 
REMARK    2  A    between atoms: N1_5  and  C2_6 
REMARK    3  A    between atoms: C6_10  and  C8_12 
REMARK    4  A    between atoms: C8_12  and  N2_13 
REMARK       I    between atoms: N2_13  and  C9_14 
REMARK       I    between atoms: C9_14  and  N3_16 
REMARK    5  A    between atoms: N3_16  and  C10_17 
REMARK    6  A    between atoms: C10_17  and  C11_18 
REMARK    7  A    between atoms: C11_18  and  N4_19 
REMARK    8  A    between atoms: N4_19  and  C12_20 
REMARK    9  A    between atoms: C17_25  and  N5_26 
ROOT
ATOM      1  N2  <0> d           5.099  -0.938  -4.870  0.00  0.00    -0.339 N 
ATOM      2  C9  <0> d           5.786  -1.676  -5.764  0.00  0.00     0.316 C 
ATOM      3  O3  <0> d           6.545  -2.545  -5.380  0.00  0.00    -0.247 OA
ATOM      4  N3  <0> d           5.632  -1.452  -7.084  0.00  0.00    -0.342 N 
ATOM      5  H11 <0> d           4.494  -0.245  -5.177  0.00  0.00     0.164 HD
ATOM      6  H12 <0> d           5.026  -0.759  -7.391  0.00  0.00     0.164 HD
ENDROOT
BRANCH   1   7
ATOM      7  C8  <0> d           5.267  -1.182  -3.435  0.00  0.00     0.162 C 
BRANCH   7   8
ATOM      8  C6  <0> d           4.394  -0.230  -2.658  0.00  0.00    -0.038 A 
ATOM      9  C5  <0> d           4.889   1.002  -2.272  0.00  0.00     0.009 A 
ATOM     10  C4  <0> d           4.092   1.878  -1.559  0.00  0.00     0.003 A 
ATOM     11  C3  <0> d           2.796   1.528  -1.235  0.00  0.00     0.030 A 
ATOM     12  C2  <0> d           2.297   0.289  -1.617  0.00  0.00     0.042 A 
ATOM     13  C7  <0> d           3.101  -0.589  -2.333  0.00  0.00     0.038 A 
BRANCH  12  14
ATOM     14  N1  <0> d           0.989  -0.071  -1.287  0.00  0.00    -0.285 N 
ATOM     15  H4  <0> d           0.242   0.331  -1.758  0.00  0.00     0.178 HD
BRANCH  14  16
ATOM     16  S1  <0> d           0.712  -1.184  -0.093  0.00  0.00     0.227 S 
ATOM     17  C1  <0> d           1.369  -0.422   1.416  0.00  0.00     0.186 C 
ATOM     18  O1  <0> d           1.501  -2.309  -0.456  0.00  0.00    -0.206 OA
ATOM     19  O2  <0> d          -0.703  -1.287  -0.014  0.00  0.00    -0.206 OA
ENDBRANCH  14  16
ENDBRANCH  12  14
ENDBRANCH   7   8
ENDBRANCH   1   7
BRANCH   4  20
ATOM     20  C10 <0> d           6.378  -2.255  -8.056  0.00  0.00     0.144 C 
BRANCH  20  21
ATOM     21  C11 <0> d           6.023  -1.800  -9.473  0.00  0.00     0.139 C 
BRANCH  21  22
ATOM     22  N4  <0> d           6.770  -2.603 -10.445  0.00  0.00    -0.386 N 
ATOM     23  H17 <0> d           7.375  -3.296 -10.138  0.00  0.00     0.159 HD
BRANCH  22  24
ATOM     24  C12 <0> d           6.610  -2.370 -11.813  0.00  0.00     0.061 A 
ATOM     25  C17 <0> d           7.366  -3.084 -12.733  0.00  0.00     0.129 A 
ATOM     26  C16 <0> d           7.205  -2.852 -14.085  0.00  0.00     0.038 A 
ATOM     27  C15 <0> d           6.293  -1.909 -14.523  0.00  0.00     0.003 A 
ATOM     28  C14 <0> d           5.538  -1.197 -13.608  0.00  0.00     0.002 A 
ATOM     29  C13 <0> d           5.689  -1.428 -12.256  0.00  0.00     0.031 A 
BRANCH  25  30
ATOM     30  N5  <0> d           8.343  -4.093 -12.266  0.00  0.00    -0.113 N 
ATOM     31  O4  <0> d           9.411  -4.218 -12.838  0.00  0.00    -0.532 OA
ATOM     32  O5  <0> d           8.079  -4.799 -11.309  0.00  0.00    -0.532 OA
ENDBRANCH  25  30
ENDBRANCH  22  24
ENDBRANCH  21  22
ENDBRANCH  20  21
ENDBRANCH   4  20
TORSDOF 9
