REMARK  8 active torsions:
REMARK  status: ('A' for Active; 'I' for Inactive)
REMARK    1  A    between atoms: C2_2  and  S1_4 
REMARK    2  A    between atoms: S1_4  and  C4_7 
REMARK    3  A    between atoms: C5_8  and  C11_16 
REMARK    4  A    between atoms: C8_11  and  O3_14 
REMARK    5  A    between atoms: C11_16  and  C12_17 
REMARK    6  A    between atoms: C11_16  and  N1_20 
REMARK    7  A    between atoms: C12_17  and  C13_18 
REMARK    8  A    between atoms: N1_20  and  C14_21 
ROOT
ATOM      1  C4  <0> d          -1.642  -1.903   0.082  0.00  0.00     0.109 A 
ATOM      2  C5  <0> d          -1.717  -2.894  -0.879  0.00  0.00    -0.010 A 
ATOM      3  C6  <0> d          -1.811  -4.221  -0.503  0.00  0.00     0.013 A 
ATOM      4  C7  <0> d          -1.831  -4.561   0.837  0.00  0.00     0.040 A 
ATOM      5  C8  <0> d          -1.756  -3.571   1.804  0.00  0.00     0.108 A 
ATOM      6  C9  <0> d          -1.655  -2.239   1.424  0.00  0.00     0.171 A 
ATOM      7  F1  <0> d          -1.576  -1.271   2.364  0.00  0.00    -0.202 F 
ENDROOT
BRANCH   2   8
ATOM      8  C11 <0> d          -1.696  -2.527  -2.341  0.00  0.00     0.125 C 
BRANCH   8   9
ATOM      9  C12 <0> d          -2.127  -3.735  -3.176  0.00  0.00     0.099 C 
BRANCH   9  10
ATOM     10  C13 <0> d          -2.238  -3.330  -4.624  0.00  0.00     0.233 C 
ATOM     11  O4  <0> d          -1.624  -3.937  -5.469  0.00  0.00    -0.307 OA
ENDBRANCH   9  10
ENDBRANCH   8   9
BRANCH   8  12
ATOM     12  N1  <0> d          -0.340  -2.127  -2.725  0.00  0.00    -0.359 N 
ATOM     13  H17 <0> d           0.426  -2.507  -2.267  0.00  0.00     0.162 HD
BRANCH  12  14
ATOM     14  C14 <0> d          -0.157  -1.230  -3.714  0.00  0.00     0.349 C 
ATOM     15  O5  <0> d          -1.115  -0.754  -4.286  0.00  0.00    -0.284 OA
ENDBRANCH  12  14
ENDBRANCH   8  12
ENDBRANCH   2   8
BRANCH   1  16
ATOM     16  S1  <0> d          -1.522  -0.214  -0.402  0.00  0.00     0.182 S 
ATOM     17  O1  <0> d          -1.901   0.523   0.752  0.00  0.00    -0.222 OA
ATOM     18  O2  <0> d          -2.281  -0.125  -1.600  0.00  0.00    -0.222 OA
BRANCH  16  19
ATOM     19  C2  <0> d           0.238   0.045  -0.758  0.00  0.00     0.105 C 
ATOM     20  C1  <0> d           0.483   1.523  -1.072  0.00  0.00     0.026 C 
ATOM     21  C3  <0> d           1.070  -0.362   0.460  0.00  0.00     0.026 C 
ENDBRANCH  16  19
ENDBRANCH   1  16
BRANCH   5  22
ATOM     22  O3  <0> d          -1.776  -3.904   3.122  0.00  0.00    -0.353 OA
ATOM     23  C10 <0> d          -1.875  -5.294   3.439  0.00  0.00     0.210 C 
ENDBRANCH   5  22
TORSDOF 8
