REMARK  3 active torsions:
REMARK  status: ('A' for Active; 'I' for Inactive)
REMARK    1  A    between atoms: C7_7  and  N1_8 
REMARK    2  A    between atoms: C10_12  and  N3_17 
REMARK    3  A    between atoms: N3_17  and  C13_19 
ROOT
ATOM      1  N1  <0> d           0.034   0.575   2.143  0.00  0.00    -0.230 N 
ATOM      2  C8  <0> d          -0.944   0.204   2.992  0.00  0.00     0.259 A 
ATOM      3  O1  <0> d          -1.829  -0.546   2.617  0.00  0.00    -0.267 OA
ATOM      4  C9  <0> d          -0.939   0.687   4.309  0.00  0.00     0.123 A 
ATOM      5  C10 <0> d           0.065   1.527   4.705  0.00  0.00     0.112 A 
ATOM      6  N2  <0> d           1.043   1.880   3.807  0.00  0.00    -0.294 N 
ATOM      7  H1  <0> d           1.757   2.475   4.081  0.00  0.00     0.172 HD
ATOM      8  C11 <0> d           1.018   1.399   2.550  0.00  0.00     0.335 A 
ATOM      9  O2  <0> d           1.894   1.716   1.770  0.00  0.00    -0.246 OA
ENDROOT
BRANCH   5  10
ATOM     10  N3  <0> d           0.095   2.015   5.987  0.00  0.00    -0.367 N 
ATOM     11  C12 <0> d          -1.158   2.262   6.705  0.00  0.00     0.151 C 
BRANCH  10  12
ATOM     12  C13 <0> d           1.379   2.288   6.637  0.00  0.00     0.088 C 
ATOM     13  C17 <0> d           1.511   3.791   6.897  0.00  0.00     0.053 C 
ATOM     14  C16 <0> d           2.818   4.060   7.647  0.00  0.00     0.236 C 
ATOM     15  N4  <0> d           2.810   3.339   8.926  0.00  0.00    -0.075 N 
ATOM     16  C15 <0> d           2.755   1.892   8.682  0.00  0.00     0.236 C 
ATOM     17  C18 <0> d           4.031   3.661   9.676  0.00  0.00     0.269 C 
ATOM     18  H25 <0> d           2.003   3.619   9.463  0.00  0.00     0.279 HD
ATOM     19  C14 <0> d           1.446   1.540   7.971  0.00  0.00     0.053 C 
ENDBRANCH  10  12
ENDBRANCH   5  10
BRANCH   1  20
ATOM     20  C7  <0> d           0.031   0.095   0.827  0.00  0.00     0.053 A 
ATOM     21  C2  <0> d          -0.622   0.804  -0.171  0.00  0.00    -0.035 A 
ATOM     22  C1  <0> d          -1.329   2.093   0.159  0.00  0.00     0.050 C 
ATOM     23  C3  <0> d          -0.618   0.331  -1.469  0.00  0.00     0.009 A 
ATOM     24  C4  <0> d           0.030  -0.851  -1.773  0.00  0.00     0.001 A 
ATOM     25  C5  <0> d           0.677  -1.564  -0.780  0.00  0.00     0.002 A 
ATOM     26  C6  <0> d           0.677  -1.096   0.519  0.00  0.00     0.031 A 
ENDBRANCH   1  20
TORSDOF 3
