REMARK  5 active torsions:
REMARK  status: ('A' for Active; 'I' for Inactive)
REMARK    1  A    between atoms: N1_7  and  C7_8 
REMARK    2  A    between atoms: C7_8  and  C9_10 
REMARK    3  A    between atoms: C9_10  and  N2_11 
REMARK       I    between atoms: N2_11  and  C10_12 
REMARK    4  A    between atoms: C10_12  and  C11_14 
REMARK    5  A    between atoms: C11_14  and  N3_17 
REMARK       I    between atoms: N3_17  and  C14_18 
REMARK       I    between atoms: C14_18  and  N4_20 
ROOT
ATOM      1  N2  <0> d           2.684  -2.166   2.422  0.00  0.00    -0.357 N 
ATOM      2  C10 <0> d           3.115  -2.984   3.403  0.00  0.00     0.245 C 
ATOM      3  O1  <0> d           3.675  -2.523   4.374  0.00  0.00    -0.271 OA
ATOM      4  H19 <0> d           2.236  -2.535   1.645  0.00  0.00     0.162 HD
ENDROOT
BRANCH   1   5
ATOM      5  C9  <0> d           2.893  -0.720   2.529  0.00  0.00     0.155 C 
BRANCH   5   6
ATOM      6  C7  <0> d           2.162  -0.013   1.386  0.00  0.00     0.202 C 
ATOM      7  C8  <0> d           2.540   1.470   1.379  0.00  0.00     0.042 C 
BRANCH   6   8
ATOM      8  N1  <0> d           0.712  -0.148   1.574  0.00  0.00    -0.062 N 
ATOM      9  C2  <0> d           0.323  -1.550   1.381  0.00  0.00     0.184 C 
ATOM     10  C1  <0> d           0.772  -2.017  -0.006  0.00  0.00     0.040 C 
ATOM     11  C3  <0> d          -1.197  -1.682   1.495  0.00  0.00     0.033 C 
ATOM     12  C4  <0> d          -1.641  -1.214   2.884  0.00  0.00     0.004 C 
ATOM     13  C5  <0> d          -1.165   0.225   3.104  0.00  0.00     0.028 C 
ATOM     14  C6  <0> d           0.354   0.286   2.930  0.00  0.00     0.236 C 
ATOM     15  H31 <0> d           0.232   0.429   0.899  0.00  0.00     0.280 HD
ENDBRANCH   6   8
ENDBRANCH   5   6
ENDBRANCH   1   5
BRANCH   2  16
ATOM     16  C11 <0> d           2.900  -4.472   3.292  0.00  0.00     0.108 C 
ATOM     17  C12 <0> d           4.037  -5.092   2.477  0.00  0.00     0.049 C 
ATOM     18  C13 <0> d           2.880  -5.090   4.691  0.00  0.00     0.049 C 
BRANCH  16  19
ATOM     19  N3  <0> d           1.622  -4.732   2.625  0.00  0.00    -0.326 N 
ATOM     20  C14 <0> d           1.218  -6.001   2.415  0.00  0.00     0.316 C 
ATOM     21  O2  <0> d           1.914  -6.929   2.779  0.00  0.00    -0.247 OA
ATOM     22  N4  <0> d           0.042  -6.241   1.801  0.00  0.00    -0.347 N 
ATOM     23  C15 <0> d          -0.397  -7.619   1.573  0.00  0.00     0.151 C 
ATOM     24  H27 <0> d          -0.513  -5.500   1.511  0.00  0.00     0.163 HD
ATOM     25  H26 <0> d           1.067  -3.992   2.334  0.00  0.00     0.165 HD
ENDBRANCH  16  19
ENDBRANCH   2  16
TORSDOF 5
