REMARK  4 active torsions:
REMARK  status: ('A' for Active; 'I' for Inactive)
REMARK    1  A    between atoms: C3_3  and  C13_18 
REMARK    2  A    between atoms: C4_4  and  C7_11 
REMARK       I    between atoms: C13_18  and  N5_20 
REMARK    3  A    between atoms: N5_20  and  C14_21 
REMARK    4  A    between atoms: C19_26  and  O2_27 
ROOT
ATOM      1  C1  <0> d           0.232   0.591  -0.725  0.00  0.00     0.034 C 
ATOM      2  C2  <0> d          -0.257  -0.752  -0.180  0.00  0.00     0.111 C 
ATOM      3  C3  <0> d          -1.687  -0.602   0.352  0.00  0.00     0.131 C 
ATOM      4  C4  <0> d          -2.200  -1.959   0.849  0.00  0.00     0.177 C 
ATOM      5  N1  <0> d          -1.192  -2.552   1.728  0.00  0.00    -0.088 N 
ATOM      6  C5  <0> d           0.111  -2.179   1.755  0.00  0.00     0.721 A 
ATOM      7  N2  <0> d           0.721  -2.907   2.651  0.00  0.00    -0.055 NA
ATOM      8  C6  <0> d          -0.153  -3.751   3.212  0.00  0.00     0.275 A 
ATOM      9  N3  <0> d          -1.334  -3.566   2.675  0.00  0.00    -0.149 NA
ATOM     10  N4  <0> d           0.618  -1.186   0.926  0.00  0.00    -0.218 N 
ATOM     11  H8  <0> d           1.495  -0.797   1.068  0.00  0.00     0.178 HD
ENDROOT
BRANCH   3  12
ATOM     12  C13 <0> d          -2.583  -0.102  -0.752  0.00  0.00     0.230 C 
ATOM     13  O1  <0> d          -3.055  -0.884  -1.550  0.00  0.00    -0.273 OA
ATOM     14  N5  <0> d          -2.859   1.213  -0.852  0.00  0.00    -0.324 N 
ATOM     15  H13 <0> d          -2.451   1.843  -0.237  0.00  0.00     0.169 HD
BRANCH  14  16
ATOM     16  C14 <0> d          -3.736   1.671  -1.844  0.00  0.00     0.068 A 
ATOM     17  C19 <0> d          -4.416   2.875  -1.674  0.00  0.00     0.095 A 
ATOM     18  C18 <0> d          -5.278   3.325  -2.661  0.00  0.00     0.039 A 
ATOM     19  C17 <0> d          -5.471   2.575  -3.806  0.00  0.00     0.003 A 
ATOM     20  C16 <0> d          -4.801   1.377  -3.973  0.00  0.00     0.002 A 
ATOM     21  C15 <0> d          -3.935   0.923  -2.996  0.00  0.00     0.032 A 
BRANCH  17  22
ATOM     22  O2  <0> d          -4.229   3.609  -0.545  0.00  0.00    -0.354 OA
ATOM     23  C20 <0> d          -4.959   4.833  -0.439  0.00  0.00     0.210 C 
ENDBRANCH  17  22
ENDBRANCH  14  16
ENDBRANCH   3  12
BRANCH   4  24
ATOM     24  C7  <0> d          -3.486  -1.765   1.610  0.00  0.00    -0.032 A 
ATOM     25  C12 <0> d          -4.644  -2.385   1.179  0.00  0.00     0.011 A 
ATOM     26  C11 <0> d          -5.823  -2.211   1.880  0.00  0.00     0.019 A 
ATOM     27  C10 <0> d          -5.846  -1.409   3.007  0.00  0.00     0.011 A 
ATOM     28  C9  <0> d          -4.688  -0.785   3.435  0.00  0.00     0.019 A 
ATOM     29 Br1  <0> d          -7.459  -1.165   3.962  0.00  0.00    -0.051 Br
ATOM     30  C8  <0> d          -3.508  -0.964   2.736  0.00  0.00     0.011 A 
ENDBRANCH   4  24
TORSDOF 4
