REMARK  3 active torsions:
REMARK  status: ('A' for Active; 'I' for Inactive)
REMARK    1  A    between atoms: C7_7  and  C8_8 
REMARK       I    between atoms: C8_8  and  N1_10 
REMARK    2  A    between atoms: N1_10  and  C10_12 
REMARK    3  A    between atoms: C13_16  and  O2_17 
ROOT
ATOM      1  C8  <0> d           0.128   0.182   2.390  0.00  0.00     0.254 C 
ATOM      2  O1  <0> d          -0.013   1.388   2.331  0.00  0.00    -0.267 OA
ATOM      3  N1  <0> d           0.323  -0.417   3.582  0.00  0.00    -0.343 N 
ATOM      4  C9  <0> d           0.593  -1.855   3.644  0.00  0.00     0.153 C 
ENDROOT
BRANCH   3   5
ATOM      5  C10 <0> d           0.265   0.372   4.816  0.00  0.00     0.143 C 
ATOM      6  C13 <0> d          -0.824  -0.184   5.756  0.00  0.00     0.168 C 
ATOM      7  C12 <0> d          -0.066  -0.613   7.034  0.00  0.00     0.266 C 
ATOM      8  N2  <0> d           1.171   0.208   7.029  0.00  0.00    -0.071 N 
ATOM      9  C11 <0> d           1.586   0.234   5.602  0.00  0.00     0.260 C 
ATOM     10  H14 <0> d           1.885  -0.225   7.596  0.00  0.00     0.277 HD
ATOM     11  H18 <0> d           0.977   1.142   7.357  0.00  0.00     0.277 HD
BRANCH   6  12
ATOM     12  O2  <0> d          -1.782   0.832   6.062  0.00  0.00    -0.392 OA
ATOM     13  H17 <0> d          -2.491   0.539   6.651  0.00  0.00     0.210 HD
ENDBRANCH   6  12
ENDBRANCH   3   5
BRANCH   1  14
ATOM     14  C7  <0> d           0.085  -0.629   1.155  0.00  0.00     0.038 A 
ATOM     15  C2  <0> d          -0.968  -0.474   0.252  0.00  0.00    -0.045 A 
ATOM     16  C1  <0> d          -2.065   0.520   0.534  0.00  0.00     0.049 C 
ATOM     17  C3  <0> d          -1.000  -1.229  -0.902  0.00  0.00     0.026 A 
ATOM     18  C4  <0> d           0.006  -2.144  -1.162  0.00  0.00     0.011 A 
ATOM     19  C5  <0> d           1.051  -2.306  -0.267  0.00  0.00     0.020 A 
ATOM     20 Br1  <0> d          -0.045  -3.175  -2.746  0.00  0.00    -0.051 Br
ATOM     21  C6  <0> d           1.093  -1.557   0.890  0.00  0.00     0.019 A 
ENDBRANCH   1  14
TORSDOF 3
