REMARK  6 active torsions:
REMARK  status: ('A' for Active; 'I' for Inactive)
REMARK    1  A    between atoms: C2_2  and  N1_3 
REMARK    2  A    between atoms: N1_3  and  C3_4 
REMARK       I    between atoms: N1_3  and  C8_11 
REMARK    3  A    between atoms: C3_4  and  C4_5 
REMARK    4  A    between atoms: C8_11  and  C9_13 
REMARK    5  A    between atoms: C9_13  and  N2_14 
REMARK    6  A    between atoms: C11_16  and  N3_21 
ROOT
ATOM      1  N1  <0> d           0.711  -0.489   1.189  0.00  0.00    -0.346 N 
ATOM      2  C8  <0> d           2.042  -0.696   1.142  0.00  0.00     0.238 C 
ATOM      3  O1  <0> d           2.628  -1.097   2.124  0.00  0.00    -0.272 OA
ENDROOT
BRANCH   2   4
ATOM      4  C9  <0> d           2.801  -0.427  -0.132  0.00  0.00     0.234 C 
BRANCH   4   5
ATOM      5  N2  <0> d           4.220  -0.727   0.073  0.00  0.00    -0.314 N 
ATOM      6  C14 <0> d           4.682  -1.967  -0.175  0.00  0.00     0.247 A 
ATOM      7  C13 <0> d           6.042  -2.265   0.012  0.00  0.00     0.077 A 
ATOM      8  O2  <0> d           3.917  -2.833  -0.569  0.00  0.00    -0.268 OA
ATOM      9  C12 <0> d           6.885  -1.290   0.459  0.00  0.00     0.036 A 
ATOM     10  C11 <0> d           6.376  -0.005   0.716  0.00  0.00     0.041 A 
ATOM     11  C10 <0> d           5.056   0.251   0.519  0.00  0.00     0.123 A 
BRANCH  10  12
ATOM     12  N3  <0> d           7.228   1.010   1.175  0.00  0.00    -0.398 N 
ATOM     13  H15 <0> d           6.875   1.897   1.352  0.00  0.00     0.156 HD
ATOM     14  H16 <0> d           8.170   0.826   1.315  0.00  0.00     0.156 HD
ENDBRANCH  10  12
ENDBRANCH   4   5
ENDBRANCH   2   4
BRANCH   1  15
ATOM     15  C2  <0> d           0.002  -0.004   0.002  0.00  0.00     0.121 C 
ATOM     16  C1  <0> d          -0.019   1.526   0.010  0.00  0.00     0.026 C 
ENDBRANCH   1  15
BRANCH   1  17
ATOM     17  C3  <0> d          -0.028  -0.750   2.427  0.00  0.00     0.172 C 
BRANCH  17  18
ATOM     18  C4  <0> d          -0.503  -2.180   2.436  0.00  0.00     0.002 A 
ATOM     19  S1  <0> d          -2.037  -2.859   1.823  0.00  0.00    -0.086 SA
ATOM     20  C7  <0> d          -1.740  -4.569   2.240  0.00  0.00     0.051 A 
ATOM     21  C6  <0> d          -0.514  -4.508   2.817  0.00  0.00     0.028 A 
ATOM     22 Br1  <0> d          -2.850  -6.074   1.957  0.00  0.00    -0.043 Br
ATOM     23  C5  <0> d           0.119  -3.284   2.918  0.00  0.00     0.018 A 
ENDBRANCH  17  18
ENDBRANCH   1  17
TORSDOF 6
