REMARK  3 active torsions:
REMARK  status: ('A' for Active; 'I' for Inactive)
REMARK    1  A    between atoms: C2_2  and  C7_8 
REMARK       I    between atoms: C7_8  and  N2_10 
REMARK    2  A    between atoms: N2_10  and  C8_11 
REMARK    3  A    between atoms: C9_13  and  C11_16 
ROOT
ATOM      1  C7  <0> d          -1.411  -0.527   0.011  0.00  0.00     0.233 C 
ATOM      2  O1  <0> d          -1.791  -1.234   0.919  0.00  0.00    -0.272 OA
ATOM      3  N2  <0> d          -2.254  -0.207  -0.992  0.00  0.00    -0.305 N 
ATOM      4  H13 <0> d          -1.950   0.359  -1.719  0.00  0.00     0.171 HD
ENDROOT
BRANCH   1   5
ATOM      5  C2  <0> d           0.002  -0.004   0.002  0.00  0.00     0.061 C 
ATOM      6  C1  <0> d          -0.019   1.526   0.010  0.00  0.00     0.027 C 
ATOM      7  C6  <0> d           0.742  -0.512   1.241  0.00  0.00     0.251 C 
ATOM      8  N1  <0> d           0.765  -1.980   1.235  0.00  0.00    -0.074 N 
ATOM      9  C5  <0> d           1.518  -2.460   0.070  0.00  0.00     0.232 C 
ATOM     10  H10 <0> d          -0.180  -2.330   1.191  0.00  0.00     0.277 HD
ATOM     11  H20 <0> d           1.207  -2.312   2.079  0.00  0.00     0.277 HD
ATOM     12  C4  <0> d           0.808  -2.027  -1.215  0.00  0.00     0.029 C 
ATOM     13  C3  <0> d           0.724  -0.499  -1.255  0.00  0.00     0.022 C 
ENDBRANCH   1   5
BRANCH   3  14
ATOM     14  C8  <0> d          -3.558  -0.689  -0.984  0.00  0.00     0.173 A 
ATOM     15  S1  <0> d          -4.301  -1.677   0.158  0.00  0.00    -0.062 SA
ATOM     16  C10 <0> d          -5.908  -1.779  -0.612  0.00  0.00     0.081 A 
ATOM     17  C9  <0> d          -5.707  -1.022  -1.718  0.00  0.00     0.048 A 
ATOM     18  N3  <0> d          -4.509  -0.489  -1.871  0.00  0.00    -0.228 NA
BRANCH  17  19
ATOM     19  C11 <0> d          -6.802  -0.797  -2.728  0.00  0.00     0.038 A 
ATOM     20  C13 <0> d          -6.988  -1.856  -3.817  0.00  0.00     0.011 A 
ATOM     21  C12 <0> d          -8.009  -1.737  -2.683  0.00  0.00     0.011 A 
ENDBRANCH  17  19
ENDBRANCH   3  14
TORSDOF 3
