REMARK  2 active torsions:
REMARK  status: ('A' for Active; 'I' for Inactive)
REMARK    1  A    between atoms: C8_10  and  N2_14 
REMARK       I    between atoms: N2_14  and  C11_15 
REMARK    2  A    between atoms: C11_15  and  C12_17 
ROOT
ATOM      1  N2  <0> d           2.274   1.217   0.943  0.00  0.00    -0.324 N 
ATOM      2  C11 <0> d           1.595   1.083  -0.214  0.00  0.00     0.254 C 
ATOM      3  O3  <0> d           2.124   1.381  -1.264  0.00  0.00    -0.270 OA
ATOM      4  H10 <0> d           1.830   1.043   1.788  0.00  0.00     0.169 HD
ENDROOT
BRANCH   1   5
ATOM      5  C8  <0> d           3.611   1.604   0.925  0.00  0.00     0.051 A 
ATOM      6  C7  <0> d           4.069   2.507  -0.032  0.00  0.00     0.030 A 
ATOM      7  C6  <0> d           5.393   2.897  -0.057  0.00  0.00     0.003 A 
ATOM      8  C5  <0> d           6.292   2.400   0.874  0.00  0.00     0.016 A 
ATOM      9  C4  <0> d           5.856   1.504   1.837  0.00  0.00     0.029 A 
ATOM     10  C3  <0> d           6.758   0.951   2.866  0.00  0.00     0.178 C 
ATOM     11  C9  <0> d           4.503   1.097   1.870  0.00  0.00     0.072 A 
ATOM     12  C2  <0> d           6.136   0.550   4.191  0.00  0.00     0.209 C 
ATOM     13  O1  <0> d           7.948   0.834   2.663  0.00  0.00    -0.290 OA
ATOM     14  N1  <0> d           4.871  -0.143   3.952  0.00  0.00    -0.345 N 
ATOM     15  C1  <0> d           4.448  -1.179   4.897  0.00  0.00     0.153 C 
ATOM     16  C10 <0> d           4.080   0.133   2.901  0.00  0.00     0.257 C 
ATOM     17  O2  <0> d           3.003  -0.421   2.799  0.00  0.00    -0.267 OA
ENDBRANCH   1   5
BRANCH   2  18
ATOM     18  C12 <0> d           0.181   0.564  -0.203  0.00  0.00     0.245 C 
ATOM     19  O5  <0> d          -0.289   0.414  -1.547  0.00  0.00    -0.331 OA
ATOM     20  C19 <0> d          -1.629   0.242  -1.710  0.00  0.00     0.103 A 
ATOM     21  C14 <0> d          -2.518   0.560  -0.690  0.00  0.00     0.102 A 
ATOM     22  C18 <0> d          -2.110  -0.257  -2.912  0.00  0.00     0.040 A 
ATOM     23  O4  <0> d          -2.068   1.047   0.498  0.00  0.00    -0.345 OA
ATOM     24  C15 <0> d          -3.880   0.381  -0.880  0.00  0.00     0.039 A 
ATOM     25  C13 <0> d          -0.732   1.565   0.518  0.00  0.00     0.218 C 
ATOM     26  C16 <0> d          -4.352  -0.115  -2.081  0.00  0.00     0.003 A 
ATOM     27  C17 <0> d          -3.468  -0.434  -3.095  0.00  0.00     0.003 A 
ENDBRANCH   2  18
TORSDOF 2
