REMARK  5 active torsions:
REMARK  status: ('A' for Active; 'I' for Inactive)
REMARK    1  A    between atoms: C3_3  and  C10_13 
REMARK    2  A    between atoms: C4_4  and  N2_7 
REMARK    3  A    between atoms: C10_13  and  N3_14 
REMARK    4  A    between atoms: N3_14  and  C11_15 
REMARK    5  A    between atoms: C11_15  and  C12_16 
ROOT
ATOM      1  N3  <0> d           4.389   2.163  -0.828  0.00  0.00    -0.071 N 
ATOM      2  H15 <0> d           4.559   1.244  -1.210  0.00  0.00     0.277 HD
ATOM      3  H25 <0> d           3.834   2.700  -1.477  0.00  0.00     0.277 HD
ENDROOT
BRANCH   1   4
ATOM      4  C10 <0> d           3.668   2.038   0.446  0.00  0.00     0.274 C 
BRANCH   4   5
ATOM      5  C3  <0> d           2.353   1.340   0.212  0.00  0.00     0.013 A 
ATOM      6  C2  <0> d           1.178   2.066   0.136  0.00  0.00     0.014 A 
ATOM      7  C1  <0> d          -0.011   1.382  -0.081  0.00  0.00     0.020 A 
ATOM      8  C5  <0> d           0.014   0.008  -0.214  0.00  0.00     0.119 A 
ATOM      9  N1  <0> d           1.150  -0.659  -0.137  0.00  0.00    -0.243 NA
ATOM     10  C4  <0> d           2.304  -0.043   0.069  0.00  0.00     0.133 A 
BRANCH  10  11
ATOM     11  N2  <0> d           3.477  -0.785   0.142  0.00  0.00    -0.361 N 
ATOM     12  C9  <0> d           4.205  -1.175  -1.076  0.00  0.00     0.150 C 
ATOM     13  C8  <0> d           4.485  -2.677  -1.017  0.00  0.00     0.187 C 
ATOM     14  O1  <0> d           5.114  -2.992   0.227  0.00  0.00    -0.388 OA
ATOM     15  C7  <0> d           4.311  -2.714   1.376  0.00  0.00     0.187 C 
ATOM     16  C6  <0> d           4.025  -1.210   1.440  0.00  0.00     0.150 C 
ENDBRANCH  10  11
ENDBRANCH   4   5
ENDBRANCH   1   4
BRANCH   1  17
ATOM     17  C11 <0> d           5.671   2.843  -0.600  0.00  0.00     0.240 C 
BRANCH  17  18
ATOM     18  C12 <0> d           6.423   2.973  -1.927  0.00  0.00     0.049 C 
ATOM     19  C17 <0> d           7.813   3.565  -1.669  0.00  0.00     0.161 C 
ATOM     20  N6  <0> d           8.429   3.907  -2.953  0.00  0.00    -0.254 N 
ATOM     21  C14 <0> d           7.729   4.079  -4.104  0.00  0.00     0.121 A 
ATOM     22  N5  <0> d           9.777   4.114  -3.241  0.00  0.00    -0.183 NA
ATOM     23  N4  <0> d           6.340   3.945  -4.166  0.00  0.00    -0.375 N 
ATOM     24  C15 <0> d           8.607   4.381  -5.085  0.00  0.00     0.070 A 
ATOM     25  C13 <0> d           5.635   3.889  -2.870  0.00  0.00     0.129 C 
ATOM     26  H20 <0> d           5.866   3.892  -5.011  0.00  0.00     0.161 HD
ATOM     27  C16 <0> d           9.888   4.397  -4.516  0.00  0.00     0.142 A 
ENDBRANCH  17  18
ENDBRANCH   1  17
TORSDOF 5
