REMARK  3 active torsions:
REMARK  status: ('A' for Active; 'I' for Inactive)
REMARK    1  A    between atoms: C2_2  and  N1_3 
REMARK    2  A    between atoms: C6_7  and  C12_15 
REMARK       I    between atoms: C12_15  and  N3_17 
REMARK    3  A    between atoms: N3_17  and  C13_18 
ROOT
ATOM      1  C12 <0> d           6.278  -1.335   1.020  0.00  0.00     0.256 C 
ATOM      2  O2  <0> d           6.873  -1.729   2.004  0.00  0.00    -0.267 OA
ATOM      3  N3  <0> d           6.952  -1.089  -0.121  0.00  0.00    -0.323 N 
ATOM      4  H13 <0> d           6.470  -0.840  -0.925  0.00  0.00     0.169 HD
ENDROOT
BRANCH   1   5
ATOM      5  C6  <0> d           4.818  -1.124   1.075  0.00  0.00     0.034 A 
ATOM      6  C5  <0> d           4.133  -0.669  -0.061  0.00  0.00     0.019 A 
ATOM      7  C4  <0> d           2.785  -0.470  -0.024  0.00  0.00     0.033 A 
ATOM      8  C3  <0> d           2.069  -0.719   1.146  0.00  0.00     0.066 A 
ATOM      9  N1  <0> d           0.706  -0.517   1.179  0.00  0.00    -0.311 N 
ATOM     10  C8  <0> d           2.740  -1.176   2.298  0.00  0.00     0.085 A 
ATOM     11  C10 <0> d           0.035  -0.759   2.326  0.00  0.00     0.272 A 
ATOM     12  C9  <0> d           0.773  -1.240   3.500  0.00  0.00     0.099 A 
ATOM     13  O1  <0> d          -1.168  -0.584   2.385  0.00  0.00    -0.266 OA
ATOM     14  N2  <0> d           2.060  -1.421   3.436  0.00  0.00    -0.246 NA
ATOM     15  C11 <0> d           0.038  -1.522   4.786  0.00  0.00     0.076 C 
ATOM     16  C7  <0> d           4.125  -1.377   2.253  0.00  0.00     0.051 A 
BRANCH   9  17
ATOM     17  C2  <0> d          -0.004  -0.042  -0.011  0.00  0.00     0.128 C 
ATOM     18  C1  <0> d          -0.033   1.488  -0.010  0.00  0.00     0.027 C 
ENDBRANCH   9  17
ENDBRANCH   1   5
BRANCH   3  19
ATOM     19  C13 <0> d           8.348  -1.196  -0.147  0.00  0.00     0.035 A 
ATOM     20  C18 <0> d           9.090  -0.335  -0.934  0.00  0.00     0.043 A 
ATOM     21  C17 <0> d          10.482  -0.443  -0.951  0.00  0.00    -0.005 A 
ATOM     22  C16 <0> d          11.120  -1.430  -0.179  0.00  0.00     0.042 A 
ATOM     23  C19 <0> d          11.549   0.283  -1.644  0.00  0.00     0.038 A 
ATOM     24  C15 <0> d          10.356  -2.291   0.602  0.00  0.00     0.033 A 
ATOM     25  N4  <0> d          12.476  -1.302  -0.397  0.00  0.00    -0.359 N 
ATOM     26  C14 <0> d           8.985  -2.173   0.616  0.00  0.00     0.032 A 
ATOM     27  C20 <0> d          12.711  -0.277  -1.272  0.00  0.00     0.006 A 
ATOM     28  H1  <0> d          13.161  -1.855   0.010  0.00  0.00     0.166 HD
ATOM     29  C21 <0> d          14.073   0.160  -1.747  0.00  0.00     0.068 C 
ENDBRANCH   3  19
TORSDOF 3
