REMARK  5 active torsions:
REMARK  status: ('A' for Active; 'I' for Inactive)
REMARK    1  A    between atoms: N1_2  and  C2_3 
REMARK       I    between atoms: N1_2  and  C9_10 
REMARK    2  A    between atoms: C2_3  and  C3_4 
REMARK    3  A    between atoms: C9_10  and  C10_12 
REMARK    4  A    between atoms: C16_19  and  C22_25 
REMARK    5  A    between atoms: C25_28  and  O2_31 
ROOT
ATOM      1  C10 <0> d          -1.193   1.694   0.057  0.00  0.00     0.059 A 
ATOM      2  C11 <0> d          -0.011   1.005  -0.217  0.00  0.00     0.019 A 
ATOM      3  C12 <0> d           1.190   1.679  -0.200  0.00  0.00     0.002 A 
ATOM      4  C13 <0> d           1.227   3.030   0.091  0.00  0.00     0.010 A 
ATOM      5  C14 <0> d           0.064   3.732   0.374  0.00  0.00    -0.022 A 
ATOM      6  C15 <0> d          -1.151   3.069   0.359  0.00  0.00     0.051 A 
ATOM      7  N2  <0> d          -2.350   3.713   0.623  0.00  0.00    -0.380 N 
ATOM      8  C16 <0> d          -2.171   4.888   1.477  0.00  0.00     0.120 C 
ATOM      9  C17 <0> d          -1.202   5.864   0.805  0.00  0.00     0.028 C 
ATOM     10  C18 <0> d           0.184   5.193   0.692  0.00  0.00     0.050 C 
ATOM     11  C19 <0> d           0.803   5.391   2.056  0.00  0.00    -0.021 C 
ATOM     12  C20 <0> d           0.218   6.379   2.686  0.00  0.00    -0.029 C 
ATOM     13  C21 <0> d          -0.872   6.988   1.826  0.00  0.00     0.035 C 
ATOM     14  H17 <0> d          -3.354   3.437   0.271  0.00  0.00     0.160 HD
ENDROOT
BRANCH   1  15
ATOM     15  C9  <0> d          -2.484   0.982   0.035  0.00  0.00     0.256 C 
ATOM     16  N1  <0> d          -2.832   0.249  -1.041  0.00  0.00    -0.348 N 
ATOM     17  C1  <0> d          -1.887   0.079  -2.147  0.00  0.00     0.153 C 
ATOM     18  O1  <0> d          -3.235   1.055   0.989  0.00  0.00    -0.267 OA
BRANCH  16  19
ATOM     19  C2  <0> d          -4.155  -0.376  -1.105  0.00  0.00     0.164 C 
BRANCH  19  20
ATOM     20  C3  <0> d          -5.129   0.575  -1.751  0.00  0.00    -0.040 A 
ATOM     21  C8  <0> d          -5.309   0.554  -3.122  0.00  0.00     0.009 A 
ATOM     22  C7  <0> d          -6.203   1.426  -3.715  0.00  0.00     0.001 A 
ATOM     23  C6  <0> d          -6.917   2.318  -2.937  0.00  0.00     0.000 A 
ATOM     24  C5  <0> d          -6.738   2.338  -1.567  0.00  0.00     0.001 A 
ATOM     25  C4  <0> d          -5.848   1.463  -0.973  0.00  0.00     0.009 A 
ENDBRANCH  19  20
ENDBRANCH  16  19
ENDBRANCH   1  15
BRANCH   8  26
ATOM     26  C22 <0> d          -3.501   5.564   1.687  0.00  0.00    -0.035 A 
ATOM     27  C27 <0> d          -3.827   6.075   2.929  0.00  0.00     0.012 A 
ATOM     28  C26 <0> d          -5.046   6.696   3.124  0.00  0.00     0.037 A 
ATOM     29  C25 <0> d          -5.942   6.807   2.071  0.00  0.00     0.065 A 
ATOM     30  C24 <0> d          -5.613   6.293   0.825  0.00  0.00     0.037 A 
ATOM     31  C23 <0> d          -4.390   5.678   0.634  0.00  0.00     0.012 A 
BRANCH  29  32
ATOM     32  O2  <0> d          -7.142   7.418   2.259  0.00  0.00    -0.361 OA
ATOM     33  H26 <0> d          -7.402   7.825   3.248  0.00  0.00     0.217 HD
ENDBRANCH  29  32
ENDBRANCH   8  26
TORSDOF 5
