REMARK  3 active torsions:
REMARK  status: ('A' for Active; 'I' for Inactive)
REMARK    1  A    between atoms: C4_6  and  N3_11 
REMARK    2  A    between atoms: N4_14  and  C10_17 
REMARK    3  A    between atoms: C10_17  and  C11_18 
ROOT
ATOM      1  N3  <0> d           1.139   3.424   0.009  0.00  0.00    -0.266 NA
ATOM      2  C6  <0> d           0.016   3.938  -0.788  0.00  0.00     0.124 C 
ATOM      3  C7  <0> d          -0.018   5.465  -0.690  0.00  0.00     0.250 C 
ATOM      4  N4  <0> d           1.258   6.013  -1.169  0.00  0.00    -0.065 N 
ATOM      5  C8  <0> d           2.381   5.499  -0.371  0.00  0.00     0.250 C 
ATOM      6  C9  <0> d           2.416   3.972  -0.469  0.00  0.00     0.124 C 
ATOM      7  H19 <0> d           1.401   5.684  -2.208  0.00  0.00     0.280 HD
ENDROOT
BRANCH   1   8
ATOM      8  C4  <0> d           1.159   2.052   0.002  0.00  0.00     0.091 A 
ATOM      9  C3  <0> d           1.987   1.371   0.850  0.00  0.00     0.117 A 
ATOM     10  C2  <0> d           1.987  -0.033   0.821  0.00  0.00     0.254 A 
ATOM     11  N1  <0> d           1.176  -0.681  -0.038  0.00  0.00    -0.271 N 
ATOM     12  O1  <0> d           2.717  -0.662   1.568  0.00  0.00    -0.268 OA
ATOM     13  C1  <0> d           1.174  -2.145  -0.070  0.00  0.00     0.164 C 
ATOM     14  C5  <0> d           0.368   0.006  -0.866  0.00  0.00     0.330 A 
ATOM     15  N2  <0> d           0.349   1.351  -0.858  0.00  0.00    -0.299 N 
ATOM     16  O2  <0> d          -0.356  -0.598  -1.633  0.00  0.00    -0.246 OA
ATOM     17  H1  <0> d          -0.321   1.890  -1.544  0.00  0.00     0.171 HD
ENDBRANCH   1   8
BRANCH   4  18
ATOM     18  C10 <0> d           1.236   7.482  -1.161  0.00  0.00     0.273 C 
BRANCH  18  19
ATOM     19  C11 <0> d           0.236   7.974  -2.175  0.00  0.00    -0.027 A 
ATOM     20  C16 <0> d          -1.079   8.183  -1.802  0.00  0.00     0.051 A 
ATOM     21  C15 <0> d          -1.999   8.635  -2.733  0.00  0.00     0.119 A 
ATOM     22  C14 <0> d          -1.601   8.879  -4.037  0.00  0.00     0.084 A 
ATOM     23  F1  <0> d          -3.284   8.839  -2.369  0.00  0.00    -0.206 F 
ATOM     24  C13 <0> d          -0.285   8.670  -4.408  0.00  0.00     0.119 A 
ATOM     25  C12 <0> d           0.635   8.223  -3.474  0.00  0.00     0.051 A 
ATOM     26  F2  <0> d           0.105   8.908  -5.680  0.00  0.00    -0.206 F 
ENDBRANCH  18  19
ENDBRANCH   4  18
TORSDOF 3
