REMARK  6 active torsions:
REMARK  status: ('A' for Active; 'I' for Inactive)
REMARK    1  A    between atoms: C5_5  and  N1_9 
REMARK       I    between atoms: N1_9  and  C8_10 
REMARK    2  A    between atoms: C8_10  and  C9_12 
REMARK    3  A    between atoms: C9_12  and  C10_13 
REMARK    4  A    between atoms: C10_13  and  N2_14 
REMARK       I    between atoms: N2_14  and  C11_15 
REMARK    5  A    between atoms: C11_15  and  C12_17 
REMARK    6  A    between atoms: C12_17  and  N3_18 
ROOT
ATOM      1  C9  <0> d          -0.136  -6.343  -1.191  0.00  0.00     0.123 C 
ENDROOT
BRANCH   1   2
ATOM      2  C8  <0> d          -0.042  -4.839  -1.190  0.00  0.00     0.223 C 
ATOM      3  N1  <0> d           0.057  -4.171  -0.023  0.00  0.00    -0.326 N 
ATOM      4  H7  <0> d           0.149  -4.660   0.809  0.00  0.00     0.169 HD
ATOM      5  O1  <0> d          -0.055  -4.230  -2.238  0.00  0.00    -0.273 OA
BRANCH   3   6
ATOM      6  C5  <0> d           0.028  -2.772  -0.014  0.00  0.00     0.056 A 
ATOM      7  C4  <0> d          -0.594  -2.082  -1.045  0.00  0.00     0.032 A 
ATOM      8  C3  <0> d          -0.622  -0.701  -1.033  0.00  0.00     0.009 A 
ATOM      9  C2  <0> d          -0.031  -0.005   0.006  0.00  0.00    -0.060 A 
ATOM     10  C1  <0> d          -0.064   1.502   0.016  0.00  0.00     0.048 C 
ATOM     11  C7  <0> d           0.595  -0.688   1.032  0.00  0.00     0.033 A 
ATOM     12  C6  <0> d           0.621  -2.070   1.029  0.00  0.00     0.061 A 
ATOM     13 Cl1  <0> d           1.401  -2.928   2.321  0.00  0.00    -0.082 Cl
ENDBRANCH   3   6
ENDBRANCH   1   2
BRANCH   1  14
ATOM     14  C10 <0> d          -0.238  -6.847  -2.632  0.00  0.00     0.132 C 
BRANCH  14  15
ATOM     15  N2  <0> d          -0.330  -8.309  -2.633  0.00  0.00    -0.359 N 
ATOM     16  C11 <0> d          -0.429  -8.977  -3.799  0.00  0.00     0.235 C 
ATOM     17  O2  <0> d          -0.442  -8.368  -4.848  0.00  0.00    -0.272 OA
ATOM     18  H12 <0> d          -0.319  -8.796  -1.794  0.00  0.00     0.162 HD
BRANCH  16  19
ATOM     19  C12 <0> d          -0.523 -10.481  -3.800  0.00  0.00     0.234 C 
BRANCH  19  20
ATOM     20  N3  <0> d          -0.621 -10.963  -5.180  0.00  0.00    -0.316 N 
ATOM     21  C17 <0> d           0.502 -11.255  -5.865  0.00  0.00     0.247 A 
ATOM     22  C16 <0> d           0.417 -11.723  -7.187  0.00  0.00     0.074 A 
ATOM     23  O3  <0> d           1.593 -11.117  -5.335  0.00  0.00    -0.268 OA
ATOM     24  C15 <0> d          -0.809 -11.867  -7.768  0.00  0.00     0.007 A 
ATOM     25  C14 <0> d          -1.958 -11.549  -7.030  0.00  0.00     0.017 A 
ATOM     26  C13 <0> d          -1.842 -11.105  -5.757  0.00  0.00     0.095 A 
ENDBRANCH  19  20
ENDBRANCH  16  19
ENDBRANCH  14  15
ENDBRANCH   1  14
TORSDOF 6
