REMARK  4 active torsions:
REMARK  status: ('A' for Active; 'I' for Inactive)
REMARK    1  A    between atoms: C4_5  and  C6_7 
REMARK    2  A    between atoms: C6_7  and  N2_8 
REMARK    3  A    between atoms: N2_8  and  C7_9 
REMARK    4  A    between atoms: C7_9  and  C8_10 
ROOT
ATOM      1  N2  <0> d           1.740  -4.182   1.145  0.00  0.00    -0.069 N 
ATOM      2  H13 <0> d           1.634  -4.343   0.154  0.00  0.00     0.277 HD
ATOM      3  H18 <0> d           2.714  -4.033   1.359  0.00  0.00     0.277 HD
ENDROOT
BRANCH   1   4
ATOM      4  C6  <0> d           0.965  -2.996   1.534  0.00  0.00     0.239 C 
BRANCH   4   5
ATOM      5  C4  <0> d           1.476  -1.778   0.762  0.00  0.00     0.039 C 
ATOM      6  C3  <0> d           1.175  -1.934  -0.746  0.00  0.00     0.035 C 
ATOM      7  C2  <0> d           0.770  -0.499  -1.169  0.00  0.00     0.234 C 
ATOM      8  N1  <0> d           0.002  -0.004   0.002  0.00  0.00    -0.074 N 
ATOM      9  C1  <0> d          -0.018   1.465   0.010  0.00  0.00     0.269 C 
ATOM     10  C5  <0> d           0.715  -0.511   1.195  0.00  0.00     0.240 C 
ATOM     11  H17 <0> d          -0.940  -0.365  -0.020  0.00  0.00     0.279 HD
ENDBRANCH   4   5
ENDBRANCH   1   4
BRANCH   1  12
ATOM     12  C7  <0> d           1.250  -5.352   1.886  0.00  0.00     0.296 C 
BRANCH  12  13
ATOM     13  C8  <0> d           2.044  -6.569   1.487  0.00  0.00     0.081 A 
ATOM     14  O1  <0> d           1.743  -7.408   0.482  0.00  0.00    -0.304 OA
ATOM     15  C11 <0> d           2.672  -8.377   0.414  0.00  0.00     0.139 A 
ATOM     16  C10 <0> d           3.577  -8.167   1.389  0.00  0.00     0.054 A 
ATOM     17 Br1  <0> d           2.699  -9.798  -0.834  0.00  0.00    -0.021 Br
ATOM     18  C9  <0> d           3.172  -7.001   2.079  0.00  0.00     0.057 A 
ATOM     19 Br2  <0> d           5.098  -9.226   1.762  0.00  0.00    -0.048 Br
ENDBRANCH  12  13
ENDBRANCH   1  12
TORSDOF 4
