REMARK  3 active torsions:
REMARK  status: ('A' for Active; 'I' for Inactive)
REMARK    1  A    between atoms: C2_2  and  C3_3 
REMARK    2  A    between atoms: C4_5  and  C6_9 
REMARK    3  A    between atoms: C5_6  and  N2_8 
ROOT
ATOM      1  C3  <0> d           0.707  -0.490  -1.238  0.00  0.00     0.077 A 
ATOM      2  N1  <0> d           1.981  -0.753  -1.418  0.00  0.00    -0.242 NA
ATOM      3  C4  <0> d           2.443  -1.177  -2.584  0.00  0.00     0.101 A 
ATOM      4  C5  <0> d           1.565  -1.345  -3.631  0.00  0.00     0.099 A 
ATOM      5  S1  <0> d           0.029  -0.867  -2.848  0.00  0.00    -0.055 SA
ENDROOT
BRANCH   3   6
ATOM      6  C6  <0> d           3.886  -1.467  -2.760  0.00  0.00    -0.002 A 
ATOM      7  C11 <0> d           4.839  -0.695  -2.098  0.00  0.00     0.053 A 
ATOM      8  C10 <0> d           6.187  -0.971  -2.260  0.00  0.00     0.103 A 
ATOM      9  C9  <0> d           6.587  -2.013  -3.091  0.00  0.00     0.102 A 
ATOM     10  O1  <0> d           7.106  -0.208  -1.608  0.00  0.00    -0.346 OA
ATOM     11  C8  <0> d           5.637  -2.776  -3.755  0.00  0.00     0.040 A 
ATOM     12  O2  <0> d           7.908  -2.298  -3.262  0.00  0.00    -0.346 OA
ATOM     13  C7  <0> d           4.294  -2.508  -3.594  0.00  0.00     0.017 A 
ATOM     14  C13 <0> d           8.841  -1.280  -2.882  0.00  0.00     0.202 C 
ATOM     15  C12 <0> d           8.430  -0.742  -1.504  0.00  0.00     0.202 C 
ENDBRANCH   3   6
BRANCH   4  16
ATOM     16  N2  <0> d           1.804  -1.773  -4.934  0.00  0.00    -0.392 N 
ATOM     17  H6  <0> d           2.704  -2.003  -5.211  0.00  0.00     0.156 HD
ATOM     18  H7  <0> d           1.070  -1.840  -5.565  0.00  0.00     0.156 HD
ENDBRANCH   4  16
BRANCH   1  19
ATOM     19  C2  <0> d           0.002  -0.004   0.002  0.00  0.00     0.062 C 
ATOM     20  C1  <0> d          -0.019   1.526   0.010  0.00  0.00     0.012 C 
ENDBRANCH   1  19
TORSDOF 3
