REMARK  11 active torsions:
REMARK  status: ('A' for Active; 'I' for Inactive)
REMARK    1  A    between atoms: C3_3  and  C8_11 
REMARK    2  A    between atoms: N1_5  and  C5_7 
REMARK    3  A    between atoms: C5_7  and  C6_8 
REMARK    4  A    between atoms: C6_8  and  O1_9 
REMARK    5  A    between atoms: N3_12  and  N4_13 
REMARK    6  A    between atoms: N4_13  and  C9_14 
REMARK    7  A    between atoms: C10_16  and  S1_19 
REMARK    8  A    between atoms: S1_19  and  C11_20 
REMARK    9  A    between atoms: C11_20  and  C12_21 
REMARK       I    between atoms: C12_21  and  N8_23 
REMARK   10  A    between atoms: N8_23  and  C13_24 
REMARK   11  A    between atoms: C13_24  and  C14_25 
ROOT
ATOM      1  C9  <0> d          -0.053   2.685  -4.438  0.00  0.00     0.739 A 
ATOM      2  N5  <0> d          -0.057   3.663  -3.556  0.00  0.00    -0.034 NA
ATOM      3  C10 <0> d          -0.076   4.840  -4.191  0.00  0.00     0.226 A 
ATOM      4  N6  <0> d          -0.086   4.626  -5.485  0.00  0.00    -0.132 NA
ATOM      5  N7  <0> d          -0.067   3.235  -5.671  0.00  0.00    -0.103 N 
ATOM      6  H23 <0> d          -0.065   2.761  -6.517  0.00  0.00     0.208 HD
ENDROOT
BRANCH   1   7
ATOM      7  N4  <0> d          -0.034   1.333  -4.151  0.00  0.00    -0.106 N 
ATOM      8  H13 <0> d          -0.029   0.684  -4.872  0.00  0.00     0.208 HD
BRANCH   7   9
ATOM      9  N3  <0> d          -0.022   0.899  -2.818  0.00  0.00    -0.171 NA
ATOM     10  C8  <0> d          -0.004  -0.369  -2.549  0.00  0.00     0.154 C 
BRANCH  10  11
ATOM     11  C3  <0> d           0.008  -0.826  -1.145  0.00  0.00     0.033 A 
ATOM     12  C2  <0> d           0.002  -0.004   0.002  0.00  0.00     0.064 A 
ATOM     13  C1  <0> d          -0.018   1.503   0.010  0.00  0.00     0.073 C 
ATOM     14  N2  <0> d           0.023  -0.776   1.055  0.00  0.00    -0.176 NA
ATOM     15  N1  <0> d           0.034  -2.111   0.636  0.00  0.00    -0.271 N 
ATOM     16  C4  <0> d           0.028  -2.134  -0.712  0.00  0.00     0.040 A 
ATOM     17  C7  <0> d           0.041  -3.363  -1.584  0.00  0.00     0.071 C 
BRANCH  15  18
ATOM     18  C5  <0> d           0.053  -3.285   1.513  0.00  0.00     0.177 C 
BRANCH  18  19
ATOM     19  C6  <0> d           1.503  -3.674   1.812  0.00  0.00     0.185 C 
BRANCH  19  20
ATOM     20  O1  <0> d           1.522  -4.818   2.667  0.00  0.00    -0.399 OA
ATOM     21  H8  <0> d           2.411  -5.121   2.899  0.00  0.00     0.209 HD
ENDBRANCH  19  20
ENDBRANCH  18  19
ENDBRANCH  15  18
ENDBRANCH  10  11
ENDBRANCH   7   9
ENDBRANCH   1   7
BRANCH   3  22
ATOM     22  S1  <0> d          -0.088   6.422  -3.415  0.00  0.00    -0.079 SA
BRANCH  22  23
ATOM     23  C11 <0> d          -0.115   7.591  -4.801  0.00  0.00     0.185 C 
BRANCH  23  24
ATOM     24  C12 <0> d          -0.127   9.001  -4.270  0.00  0.00     0.227 C 
ATOM     25  O2  <0> d          -0.118   9.198  -3.073  0.00  0.00    -0.273 OA
ATOM     26  N8  <0> d          -0.147  10.043  -5.124  0.00  0.00    -0.356 N 
ATOM     27  H16 <0> d          -0.153   9.886  -6.081  0.00  0.00     0.162 HD
BRANCH  26  28
ATOM     28  C13 <0> d          -0.158  11.414  -4.607  0.00  0.00     0.161 C 
BRANCH  28  29
ATOM     29  C14 <0> d          -0.180  12.385  -5.759  0.00  0.00    -0.040 A 
ATOM     30  C19 <0> d          -1.388  12.816  -6.276  0.00  0.00     0.012 A 
ATOM     31  C18 <0> d          -1.409  13.711  -7.329  0.00  0.00     0.043 A 
ATOM     32  C17 <0> d          -0.220  14.167  -7.873  0.00  0.00     0.116 A 
ATOM     33  C16 <0> d           0.989  13.731  -7.358  0.00  0.00     0.043 A 
ATOM     34  F1  <0> d          -0.240  15.038  -8.906  0.00  0.00    -0.206 F 
ATOM     35  C15 <0> d           1.007  12.840  -6.301  0.00  0.00     0.012 A 
ENDBRANCH  28  29
ENDBRANCH  26  28
ENDBRANCH  23  24
ENDBRANCH  22  23
ENDBRANCH   3  22
TORSDOF 11
