REMARK  8 active torsions:
REMARK  status: ('A' for Active; 'I' for Inactive)
REMARK    1  A    between atoms: C3_3  and  C5_6 
REMARK       I    between atoms: C5_6  and  N1_8 
REMARK    2  A    between atoms: N1_8  and  C6_9 
REMARK    3  A    between atoms: C6_9  and  C7_10 
REMARK    4  A    between atoms: C8_13  and  S2_22 
REMARK    5  A    between atoms: N4_14  and  C9_15 
REMARK    6  A    between atoms: S2_22  and  C15_23 
REMARK    7  A    between atoms: C15_23  and  C16_24 
REMARK       I    between atoms: C16_24  and  N5_26 
REMARK    8  A    between atoms: N5_26  and  C17_27 
ROOT
ATOM      1  C7  <0> d          -4.809  -0.649   0.045  0.00  0.00     0.153 A 
ATOM      2  N2  <0> d          -5.466  -0.265   1.103  0.00  0.00    -0.132 NA
ATOM      3  N3  <0> d          -6.529   0.370   0.758  0.00  0.00    -0.122 NA
ATOM      4  C8  <0> d          -6.614   0.420  -0.552  0.00  0.00     0.196 A 
ATOM      5  N4  <0> d          -5.518  -0.230  -1.049  0.00  0.00    -0.274 N 
ENDROOT
BRANCH   4   6
ATOM      6  S2  <0> d          -7.898   1.179  -1.490  0.00  0.00    -0.080 SA
BRANCH   6   7
ATOM      7  C15 <0> d          -8.943   1.799  -0.148  0.00  0.00     0.185 C 
BRANCH   7   8
ATOM      8  C16 <0> d         -10.139   2.507  -0.730  0.00  0.00     0.233 C 
ATOM      9  O2  <0> d         -10.272   2.585  -1.933  0.00  0.00    -0.272 OA
ATOM     10  N5  <0> d         -11.061   3.054   0.086  0.00  0.00    -0.305 N 
ATOM     11  H13 <0> d         -10.955   2.992   1.049  0.00  0.00     0.171 HD
BRANCH  10  12
ATOM     12  C17 <0> d         -12.165   3.707  -0.450  0.00  0.00     0.172 A 
ATOM     13  S3  <0> d         -13.479   4.486   0.375  0.00  0.00    -0.062 SA
ATOM     14  C19 <0> d         -14.380   5.019  -1.073  0.00  0.00     0.072 A 
ATOM     15  C18 <0> d         -13.579   4.543  -2.057  0.00  0.00     0.126 A 
ATOM     16  N6  <0> d         -12.479   3.899  -1.716  0.00  0.00    -0.236 NA
ENDBRANCH  10  12
ENDBRANCH   7   8
ENDBRANCH   6   7
ENDBRANCH   4   6
BRANCH   5  17
ATOM     17  C9  <0> d          -5.188  -0.425  -2.399  0.00  0.00     0.043 A 
ATOM     18  C14 <0> d          -6.000  -1.210  -3.206  0.00  0.00     0.033 A 
ATOM     19  C13 <0> d          -5.674  -1.401  -4.535  0.00  0.00     0.044 A 
ATOM     20  C12 <0> d          -4.538  -0.810  -5.061  0.00  0.00     0.116 A 
ATOM     21  C11 <0> d          -3.727  -0.026  -4.258  0.00  0.00     0.044 A 
ATOM     22  F1  <0> d          -4.220  -0.998  -6.361  0.00  0.00    -0.206 F 
ATOM     23  C10 <0> d          -4.053   0.171  -2.930  0.00  0.00     0.033 A 
ENDBRANCH   5  17
BRANCH   1  24
ATOM     24  C6  <0> d          -3.513  -1.418   0.029  0.00  0.00     0.204 C 
BRANCH  24  25
ATOM     25  N1  <0> d          -2.388  -0.479   0.023  0.00  0.00    -0.349 N 
ATOM     26  C5  <0> d          -1.123  -0.943   0.008  0.00  0.00     0.258 C 
ATOM     27  O1  <0> d          -0.915  -2.143   0.000  0.00  0.00    -0.267 OA
ATOM     28  H4  <0> d          -2.554   0.476   0.029  0.00  0.00     0.163 HD
BRANCH  26  29
ATOM     29  C3  <0> d           0.002  -0.004   0.002  0.00  0.00     0.072 A 
ATOM     30  C2  <0> d           1.362  -0.270  -0.012  0.00  0.00     0.025 A 
ATOM     31  C1  <0> d           2.211   0.809  -0.015  0.00  0.00     0.009 A 
ATOM     32  C4  <0> d           1.688   2.063  -0.003  0.00  0.00     0.050 A 
ATOM     33  S1  <0> d          -0.022   1.780   0.012  0.00  0.00    -0.097 SA
ENDBRANCH  26  29
ENDBRANCH  24  25
ENDBRANCH   1  24
TORSDOF 8
