REMARK  4 active torsions:
REMARK  status: ('A' for Active; 'I' for Inactive)
REMARK    1  A    between atoms: C15_15  and  C16_16 
REMARK    2  A    between atoms: C15_15  and  N3_34 
REMARK       I    between atoms: C16_16  and  N1_18 
REMARK       I    between atoms: N1_18  and  C17_19 
REMARK       I    between atoms: C17_19  and  N2_21 
REMARK    3  A    between atoms: N2_21  and  C18_22 
REMARK    4  A    between atoms: C18_22  and  C19_23 
ROOT
ATOM      1  C1  <0> d          -2.894   1.263   0.314  0.00  0.00     0.045 C 
ATOM      2  C2  <0> d          -1.941   0.925   1.462  0.00  0.00     0.218 C 
ATOM      3  C3  <0> d          -2.554   1.372   2.763  0.00  0.00    -0.018 A 
ATOM      4  C4  <0> d          -3.908   1.155   2.965  0.00  0.00     0.049 A 
ATOM      5  C5  <0> d          -4.514   1.544   4.148  0.00  0.00     0.102 A 
ATOM      6  C6  <0> d          -3.756   2.152   5.142  0.00  0.00     0.102 A 
ATOM      7  C7  <0> d          -2.404   2.372   4.933  0.00  0.00     0.048 A 
ATOM      8  C8  <0> d          -1.803   1.986   3.745  0.00  0.00    -0.037 A 
ATOM      9  C9  <0> d          -0.335   2.256   3.557  0.00  0.00     0.012 C 
ATOM     10  C10 <0> d           0.424   1.921   4.855  0.00  0.00     0.016 C 
ATOM     11  C11 <0> d           1.516   3.017   4.948  0.00  0.00     0.001 C 
ATOM     12  C12 <0> d           0.781   4.278   4.427  0.00  0.00     0.001 C 
ATOM     13  C13 <0> d          -0.110   3.750   3.282  0.00  0.00     0.016 C 
ATOM     14  C14 <0> d           0.222   1.424   2.405  0.00  0.00     0.250 C 
ATOM     15  O4  <0> d          -4.324   2.524   6.316  0.00  0.00    -0.346 OA
ATOM     16  C23 <0> d          -5.738   2.573   6.417  0.00  0.00     0.202 C 
ATOM     17  C24 <0> d          -6.399   1.457   5.623  0.00  0.00     0.202 C 
ATOM     18  O5  <0> d          -5.843   1.336   4.323  0.00  0.00    -0.346 OA
ATOM     19  N3  <0> d          -0.662   1.621   1.238  0.00  0.00    -0.054 N 
ATOM     20  H30 <0> d          -0.843   2.624   1.120  0.00  0.00     0.281 HD
ENDROOT
BRANCH  19  21
ATOM     21  C15 <0> d          -0.011   1.101   0.014  0.00  0.00     0.338 C 
BRANCH  21  22
ATOM     22  C16 <0> d           1.079   2.055  -0.400  0.00  0.00     0.251 C 
ATOM     23  O1  <0> d           1.237   3.095   0.204  0.00  0.00    -0.271 OA
ATOM     24  N1  <0> d           1.880   1.752  -1.440  0.00  0.00    -0.278 N 
ATOM     25  C17 <0> d           2.856   2.606  -1.811  0.00  0.00     0.323 C 
ATOM     26  H19 <0> d           1.755   0.921  -1.923  0.00  0.00     0.173 HD
ATOM     27  O2  <0> d           3.013   3.648  -1.206  0.00  0.00    -0.247 OA
ATOM     28  N2  <0> d           3.657   2.303  -2.852  0.00  0.00    -0.337 N 
ATOM     29  H20 <0> d           3.531   1.471  -3.334  0.00  0.00     0.164 HD
BRANCH  28  30
ATOM     30  C18 <0> d           4.717   3.231  -3.254  0.00  0.00     0.189 C 
BRANCH  30  31
ATOM     31  C19 <0> d           5.462   2.661  -4.434  0.00  0.00     0.070 A 
ATOM     32  O3  <0> d           6.546   1.871  -4.371  0.00  0.00    -0.325 OA
ATOM     33  C22 <0> d           6.939   1.551  -5.615  0.00  0.00     0.142 A 
ATOM     34  C21 <0> d           6.109   2.147  -6.490  0.00  0.00     0.027 A 
ATOM     35  C20 <0> d           5.157   2.862  -5.728  0.00  0.00     0.036 A 
ENDBRANCH  30  31
ENDBRANCH  28  30
ENDBRANCH  21  22
ENDBRANCH  19  21
TORSDOF 4
