REMARK  5 active torsions:
REMARK  status: ('A' for Active; 'I' for Inactive)
REMARK    1  A    between atoms: C3_3  and  N2_12 
REMARK    2  A    between atoms: C7_7  and  S1_8 
REMARK    3  A    between atoms: S1_8  and  N1_11 
REMARK    4  A    between atoms: N2_12  and  C8_13 
REMARK    5  A    between atoms: C8_13  and  C9_14 
ROOT
ATOM      1  C1  <0> d          -0.018   1.503   0.010  0.00  0.00     0.052 C 
ATOM      2  C2  <0> d           0.002  -0.004   0.002  0.00  0.00    -0.012 A 
ATOM      3  C3  <0> d           0.006  -0.693  -1.204  0.00  0.00     0.035 A 
ATOM      4  C4  <0> d           0.025  -2.082  -1.208  0.00  0.00     0.030 A 
ATOM      5  C5  <0> d           0.041  -2.773  -0.012  0.00  0.00     0.004 A 
ATOM      6  C6  <0> d           0.037  -2.085   1.187  0.00  0.00     0.026 A 
ATOM      7  C7  <0> d           0.023  -0.702   1.194  0.00  0.00     0.087 A 
ENDROOT
BRANCH   3   8
ATOM      8  N2  <0> d          -0.010   0.010  -2.412  0.00  0.00    -0.383 N 
ATOM      9  H9  <0> d          -0.024   0.980  -2.408  0.00  0.00     0.160 HD
BRANCH   8  10
ATOM     10  C8  <0> d          -0.006  -0.718  -3.683  0.00  0.00     0.184 C 
BRANCH  10  11
ATOM     11  C9  <0> d          -0.026   0.265  -4.825  0.00  0.00     0.071 A 
ATOM     12  O3  <0> d          -1.126   0.761  -5.415  0.00  0.00    -0.307 OA
ATOM     13  C12 <0> d          -0.766   1.611  -6.391  0.00  0.00     0.117 A 
ATOM     14  C11 <0> d           0.578   1.657  -6.439  0.00  0.00     0.046 A 
ATOM     15  I1  <0> d          -2.074   2.676  -7.633  0.00  0.00    -0.016 I 
ATOM     16  C10 <0> d           1.055   0.789  -5.430  0.00  0.00     0.038 A 
ENDBRANCH  10  11
ENDBRANCH   8  10
ENDBRANCH   3   8
BRANCH   7  17
ATOM     17  S1  <0> d           0.025   0.171   2.724  0.00  0.00     0.257 S 
ATOM     18  O1  <0> d          -1.015   1.136   2.643  0.00  0.00    -0.201 OA
ATOM     19  O2  <0> d           0.075  -0.810   3.751  0.00  0.00    -0.201 OA
BRANCH  17  20
ATOM     20  N1  <0> d           1.448   1.014   2.805  0.00  0.00    -0.324 N 
ATOM     21  H7  <0> d           2.087   0.958   2.078  0.00  0.00     0.169 HD
ATOM     22  H8  <0> d           1.642   1.565   3.580  0.00  0.00     0.169 HD
ENDBRANCH  17  20
ENDBRANCH   7  17
TORSDOF 5
