REMARK  4 active torsions:
REMARK  status: ('A' for Active; 'I' for Inactive)
REMARK    1  A    between atoms: C6_6  and  C7_7 
REMARK    2  A    between atoms: N1_12  and  C11_14 
REMARK    3  A    between atoms: C11_14  and  C12_15 
REMARK    4  A    between atoms: C12_15  and  N3_16 
ROOT
ATOM      1  C7  <0> d           1.192   1.818   0.000  0.00  0.00     0.087 A 
ATOM      2  C8  <0> d          -0.013   1.076   0.008  0.00  0.00     0.040 A 
ATOM      3  C9  <0> d          -1.192   1.760   0.017  0.00  0.00     0.078 A 
ATOM      4  C10 <0> d          -1.138   3.171   0.029  0.00  0.00     0.263 A 
ATOM      5  O1  <0> d          -2.168   3.826   0.042  0.00  0.00    -0.267 OA
ATOM      6  N1  <0> d           0.058   3.789   0.021  0.00  0.00    -0.233 N 
ATOM      7  N2  <0> d           1.159   3.130   0.008  0.00  0.00    -0.169 NA
ENDROOT
BRANCH   1   8
ATOM      8  C6  <0> d           2.495   1.111  -0.015  0.00  0.00    -0.005 A 
ATOM      9  C1  <0> d           2.535  -0.282  -0.017  0.00  0.00     0.017 A 
ATOM     10  C2  <0> d           3.750  -0.935  -0.036  0.00  0.00     0.043 A 
ATOM     11  C3  <0> d           4.930  -0.209  -0.044  0.00  0.00     0.116 A 
ATOM     12  C4  <0> d           4.895   1.176  -0.037  0.00  0.00     0.043 A 
ATOM     13  F1  <0> d           6.117  -0.853  -0.057  0.00  0.00    -0.206 F 
ATOM     14  C5  <0> d           3.685   1.838  -0.023  0.00  0.00     0.017 A 
ENDBRANCH   1   8
BRANCH   6  15
ATOM     15  C11 <0> d           0.103   5.253   0.029  0.00  0.00     0.182 C 
BRANCH  15  16
ATOM     16  C12 <0> d           0.132   5.755   1.474  0.00  0.00     0.251 C 
BRANCH  16  17
ATOM     17  N3  <0> d           0.178   7.224   1.481  0.00  0.00    -0.078 N 
ATOM     18  H11 <0> d           0.199   7.585   2.520  0.00  0.00     0.274 HD
ATOM     19  H12 <0> d          -0.713   7.621   0.973  0.00  0.00     0.274 HD
ATOM     20  H13 <0> d           1.082   7.565   0.956  0.00  0.00     0.274 HD
ENDBRANCH  16  17
ENDBRANCH  15  16
ENDBRANCH   6  15
TORSDOF 4
