REMARK  5 active torsions:
REMARK  status: ('A' for Active; 'I' for Inactive)
REMARK    1  A    between atoms: C2_2  and  C5_5 
REMARK    2  A    between atoms: C6_8  and  N3_10 
REMARK       I    between atoms: N3_10  and  C7_11 
REMARK    3  A    between atoms: C7_11  and  C8_13 
REMARK       I    between atoms: C8_13  and  N4_15 
REMARK    4  A    between atoms: N4_15  and  C9_16 
REMARK    5  A    between atoms: N5_23  and  C17_25 
ROOT
ATOM      1  C8  <0> d           3.499  -2.659  -6.549  0.00  0.00     0.310 C 
ATOM      2  O2  <0> d           2.656  -3.315  -7.127  0.00  0.00    -0.262 OA
ATOM      3  N4  <0> d           4.731  -2.527  -7.079  0.00  0.00    -0.347 N 
ATOM      4  H13 <0> d           5.404  -2.003  -6.617  0.00  0.00     0.163 HD
ENDROOT
BRANCH   1   5
ATOM      5  C7  <0> d           3.170  -2.000  -5.251  0.00  0.00     0.315 C 
ATOM      6  N3  <0> d           1.938  -2.132  -4.721  0.00  0.00    -0.296 N 
ATOM      7  H12 <0> d           1.265  -2.656  -5.183  0.00  0.00     0.171 HD
ATOM      8  O1  <0> d           4.012  -1.344  -4.673  0.00  0.00    -0.262 OA
BRANCH   6   9
ATOM      9  C6  <0> d           1.632  -1.519  -3.513  0.00  0.00     0.196 A 
ATOM     10  N2  <0> d           2.386  -0.767  -2.723  0.00  0.00    -0.123 NA
ATOM     11  N1  <0> d           1.944  -0.282  -1.646  0.00  0.00    -0.144 NA
ATOM     12  C5  <0> d           0.707  -0.490  -1.238  0.00  0.00     0.108 A 
ATOM     13  S1  <0> d           0.108  -1.521  -2.573  0.00  0.00    -0.032 SA
BRANCH  12  14
ATOM     14  C2  <0> d           0.002  -0.004   0.002  0.00  0.00     0.002 C 
ATOM     15  C1  <0> d          -0.019   1.526   0.010  0.00  0.00     0.021 C 
ATOM     16  C3  <0> d           0.742  -0.511   1.242  0.00  0.00     0.021 C 
ATOM     17  C4  <0> d          -1.433  -0.534   0.013  0.00  0.00     0.021 C 
ENDBRANCH  12  14
ENDBRANCH   6   9
ENDBRANCH   1   5
BRANCH   3  18
ATOM     18  C9  <0> d           5.053  -3.173  -8.351  0.00  0.00     0.096 C 
ATOM     19  C14 <0> d           6.559  -3.425  -8.453  0.00  0.00     0.034 C 
ATOM     20  C13 <0> d           6.855  -4.199  -9.732  0.00  0.00     0.008 C 
ATOM     21  C15 <0> d           7.318  -2.108  -8.405  0.00  0.00     0.242 C 
ATOM     22  C12 <0> d           6.330  -3.502 -10.977  0.00  0.00     0.001 C 
ATOM     23  C11 <0> d           4.900  -3.008 -10.833  0.00  0.00     0.008 C 
ATOM     24  C10 <0> d           4.661  -2.268  -9.521  0.00  0.00     0.034 C 
ATOM     25  C16 <0> d           5.440  -0.963  -9.463  0.00  0.00     0.242 C 
ATOM     26  N5  <0> d           6.886  -1.154  -9.420  0.00  0.00    -0.066 N 
ATOM     27  H30 <0> d           7.230  -1.427 -10.327  0.00  0.00     0.280 HD
BRANCH  26  28
ATOM     28  C17 <0> d           7.506   0.143  -9.119  0.00  0.00     0.188 A 
ATOM     29  C19 <0> d           9.035   0.207  -9.097  0.00  0.00     0.035 A 
ATOM     30  C18 <0> d           8.258   0.846 -10.250  0.00  0.00     0.035 A 
ENDBRANCH  26  28
ENDBRANCH   3  18
TORSDOF 5
