REMARK  5 active torsions:
REMARK  status: ('A' for Active; 'I' for Inactive)
REMARK    1  A    between atoms: C2_2  and  N1_3 
REMARK    2  A    between atoms: N1_3  and  C3_4 
REMARK    3  A    between atoms: N1_3  and  C9_11 
REMARK    4  A    between atoms: C3_4  and  C4_5 
REMARK    5  A    between atoms: C12_14  and  N4_19 
ROOT
ATOM      1  C9  <0> d          -2.014  -0.759   1.224  0.00  0.00     0.051 A 
ATOM      2  C10 <0> d          -2.756   0.243   1.836  0.00  0.00     0.033 A 
ATOM      3  C11 <0> d          -3.392  -0.001   3.036  0.00  0.00     0.031 A 
ATOM      4  C12 <0> d          -3.296  -1.250   3.641  0.00  0.00     0.027 A 
ATOM      5  C13 <0> d          -2.562  -2.259   3.043  0.00  0.00     0.054 A 
ATOM      6  C14 <0> d          -1.918  -2.022   1.825  0.00  0.00     0.073 A 
ATOM      7  C15 <0> d          -1.161  -3.063   1.198  0.00  0.00     0.102 C 
ATOM      8  N3  <0> d          -0.560  -3.888   0.700  0.00  0.00    -0.191 NA
ENDROOT
BRANCH   1   9
ATOM      9  N1  <0> d          -1.372  -0.511   0.012  0.00  0.00    -0.376 N 
BRANCH   9  10
ATOM     10  C2  <0> d           0.002  -0.004   0.002  0.00  0.00     0.119 C 
ATOM     11  C1  <0> d          -0.019   1.526   0.010  0.00  0.00     0.026 C 
ENDBRANCH   9  10
BRANCH   9  12
ATOM     12  C3  <0> d          -2.072  -0.758  -1.251  0.00  0.00     0.161 C 
BRANCH  12  13
ATOM     13  C4  <0> d          -1.820  -2.175  -1.696  0.00  0.00    -0.038 A 
ATOM     14  C8  <0> d          -2.663  -3.203  -1.303  0.00  0.00     0.028 A 
ATOM     15  C7  <0> d          -2.404  -4.490  -1.736  0.00  0.00     0.116 A 
ATOM     16  N2  <0> d          -1.363  -4.746  -2.504  0.00  0.00    -0.273 NA
ATOM     17  C6  <0> d          -0.537  -3.795  -2.892  0.00  0.00     0.116 A 
ATOM     18  C5  <0> d          -0.736  -2.484  -2.504  0.00  0.00     0.028 A 
ENDBRANCH  12  13
ENDBRANCH   9  12
ENDBRANCH   1   9
BRANCH   4  19
ATOM     19  N4  <0> d          -3.945  -1.487   4.859  0.00  0.00    -0.399 N 
ATOM     20  H15 <0> d          -4.460  -0.781   5.280  0.00  0.00     0.156 HD
ATOM     21  H16 <0> d          -3.880  -2.358   5.282  0.00  0.00     0.156 HD
ENDBRANCH   4  19
TORSDOF 5
