REMARK  5 active torsions:
REMARK  status: ('A' for Active; 'I' for Inactive)
REMARK    1  A    between atoms: C10_13  and  C19_24 
REMARK    2  A    between atoms: N3_15  and  C12_16 
REMARK    3  A    between atoms: C12_16  and  C13_17 
REMARK    4  A    between atoms: C13_17  and  C14_18 
REMARK    5  A    between atoms: C14_18  and  N6_32 
REMARK       I    between atoms: C19_24  and  N4_26 
ROOT
ATOM      1  C1  <0> d           5.303   6.617  -0.163  0.00  0.00     0.005 A 
ATOM      2  C2  <0> d           4.269   7.563  -0.158  0.00  0.00     0.018 A 
ATOM      3  C3  <0> d           2.979   7.157  -0.139  0.00  0.00     0.102 A 
ATOM      4  N1  <0> d           2.664   5.831  -0.124  0.00  0.00    -0.273 N 
ATOM      5  C4  <0> d           3.650   4.884  -0.128  0.00  0.00     0.139 A 
ATOM      6  C5  <0> d           4.998   5.288  -0.147  0.00  0.00     0.051 A 
ATOM      7  N2  <0> d           3.366   3.582  -0.113  0.00  0.00    -0.212 NA
ATOM      8  C6  <0> d           2.115   3.142  -0.094  0.00  0.00     0.149 A 
ATOM      9  C7  <0> d           1.054   4.076  -0.089  0.00  0.00     0.080 A 
ATOM     10  C8  <0> d           1.365   5.461  -0.105  0.00  0.00     0.267 A 
ATOM     11  O1  <0> d           0.480   6.297  -0.102  0.00  0.00    -0.267 OA
ATOM     12  C9  <0> d          -0.280   3.644  -0.068  0.00  0.00     0.042 A 
ATOM     13  C10 <0> d          -0.557   2.284  -0.060  0.00  0.00     0.076 A 
ATOM     14  C11 <0> d           0.561   1.327  -0.059  0.00  0.00     0.118 A 
ATOM     15  N3  <0> d           1.858   1.793  -0.078  0.00  0.00    -0.316 N 
ATOM     16  H6  <0> d          -0.550  -0.383   0.046  0.00  0.00     0.157 HD
ATOM     17  N5  <0> d           0.388   0.008  -0.051  0.00  0.00    -0.384 N 
ATOM     18  H23 <0> d           1.197  -0.617  -0.143  0.00  0.00     0.157 HD
ENDROOT
BRANCH  15  19
ATOM     19  C12 <0> d           2.971   0.842  -0.083  0.00  0.00     0.134 C 
BRANCH  19  20
ATOM     20  C13 <0> d           3.342   0.497  -1.527  0.00  0.00     0.048 C 
BRANCH  20  21
ATOM     21  C14 <0> d           4.505  -0.497  -1.531  0.00  0.00     0.236 C 
BRANCH  21  22
ATOM     22  N6  <0> d           4.865  -0.806  -2.932  0.00  0.00    -0.067 N 
ATOM     23  C15 <0> d           3.775  -1.567  -3.578  0.00  0.00     0.261 C 
ATOM     24  C16 <0> d           4.162  -1.839  -5.034  0.00  0.00     0.195 C 
ATOM     25  O2  <0> d           5.401  -2.552  -5.068  0.00  0.00    -0.388 OA
ATOM     26  C17 <0> d           6.481  -1.861  -4.434  0.00  0.00     0.195 C 
ATOM     27  C18 <0> d           6.117  -1.589  -2.972  0.00  0.00     0.261 C 
ATOM     28  H24 <0> d           5.005   0.074  -3.442  0.00  0.00     0.280 HD
ENDBRANCH  21  22
ENDBRANCH  20  21
ENDBRANCH  19  20
ENDBRANCH  15  19
BRANCH  13  29
ATOM     29  C19 <0> d          -1.944   1.807  -0.045  0.00  0.00     0.253 C 
ATOM     30  O3  <0> d          -2.178   0.618   0.067  0.00  0.00    -0.268 OA
ATOM     31  N4  <0> d          -2.961   2.685  -0.157  0.00  0.00    -0.366 N 
ATOM     32  H21 <0> d          -2.774   3.633  -0.246  0.00  0.00     0.159 HD
ATOM     33  H22 <0> d          -3.878   2.370  -0.147  0.00  0.00     0.159 HD
ENDBRANCH  13  29
TORSDOF 5
