REMARK  3 active torsions:
REMARK  status: ('A' for Active; 'I' for Inactive)
REMARK    1  A    between atoms: C5_5  and  C9_9 
REMARK    2  A    between atoms: C5_5  and  N2_11 
REMARK    3  A    between atoms: C9_9  and  N1_10 
ROOT
ATOM      1  C1  <0> d          -0.125   1.102   0.028  0.00  0.00     0.000 C 
ATOM      2  C2  <0> d           1.306   1.649   0.145  0.00  0.00     0.000 C 
ATOM      3  C3  <0> d           2.173   0.962  -0.924  0.00  0.00     0.003 C 
ATOM      4  C4  <0> d           2.030   1.521  -2.354  0.00  0.00     0.043 C 
ATOM      5  C5  <0> d           0.730   0.974  -2.978  0.00  0.00     0.183 C 
ATOM      6  C6  <0> d           0.563  -0.503  -2.613  0.00  0.00     0.043 C 
ATOM      7  C7  <0> d          -0.570  -0.739  -1.617  0.00  0.00     0.003 C 
ATOM      8  C8  <0> d          -0.103  -0.407  -0.193  0.00  0.00     0.000 C 
ENDROOT
BRANCH   5   9
ATOM      9  C9  <0> d          -0.459   1.878  -2.850  0.00  0.00     0.271 C 
BRANCH   9  10
ATOM     10  N1  <0> d          -0.250   3.080  -3.668  0.00  0.00    -0.077 N 
ATOM     11  H17 <0> d           0.619   3.519  -3.404  0.00  0.00     0.274 HD
ATOM     12  H18 <0> d          -0.214   2.821  -4.643  0.00  0.00     0.274 HD
ATOM     13  H27 <0> d          -1.012   3.724  -3.519  0.00  0.00     0.274 HD
ENDBRANCH   9  10
ENDBRANCH   5   9
BRANCH   5  14
ATOM     14  N2  <0> d           1.031   0.945  -4.416  0.00  0.00     0.101 N 
ATOM     15  C13 <0> d           2.093  -0.019  -4.710  0.00  0.00     0.288 C 
ATOM     16  C12 <0> d           2.690   0.268  -6.092  0.00  0.00     0.170 C 
ATOM     17  S1  <0> d           1.383   0.062  -7.340  0.00  0.00     0.147 S 
ATOM     18  C11 <0> d           0.056   1.104  -6.662  0.00  0.00     0.170 C 
ATOM     19  O1  <0> d           1.829   0.634  -8.562  0.00  0.00    -0.228 OA
ATOM     20  O2  <0> d           0.948  -1.291  -7.326  0.00  0.00    -0.228 OA
ATOM     21  C10 <0> d          -0.181   0.703  -5.202  0.00  0.00     0.288 C 
ENDBRANCH   5  14
TORSDOF 3
