REMARK  3 active torsions:
REMARK  status: ('A' for Active; 'I' for Inactive)
REMARK    1  A    between atoms: C2_2  and  C8_14 
REMARK    2  A    between atoms: N2_4  and  C4_7 
REMARK    3  A    between atoms: C3_5  and  N3_6 
ROOT
ATOM      1  C1  <0> d          -0.016   1.357   0.009  0.00  0.00     0.076 A 
ATOM      2  C2  <0> d           1.308   1.803  -0.001  0.00  0.00     0.036 A 
ATOM      3  N1  <0> d           2.094   0.757  -0.014  0.00  0.00    -0.300 N 
ATOM      4  N2  <0> d           1.297  -0.395  -0.012  0.00  0.00    -0.271 N 
ATOM      5  C3  <0> d           0.002  -0.004   0.002  0.00  0.00     0.117 A 
ATOM      6  H20 <0> d           3.064   0.776  -0.023  0.00  0.00     0.187 HD
ENDROOT
BRANCH   4   7
ATOM      7  C4  <0> d           1.780  -1.777  -0.025  0.00  0.00     0.124 C 
ATOM      8  C7  <0> d           2.631  -2.025  -1.303  0.00  0.00     0.167 C 
ATOM      9  S1  <0> d           3.578  -3.521  -0.793  0.00  0.00     0.146 S 
ATOM     10  C6  <0> d           3.440  -3.361   1.034  0.00  0.00     0.142 C 
ATOM     11  O1  <0> d           2.870  -4.681  -1.210  0.00  0.00    -0.228 OA
ATOM     12  O2  <0> d           4.938  -3.359  -1.171  0.00  0.00    -0.228 OA
ATOM     13  C5  <0> d           2.675  -2.026   1.201  0.00  0.00     0.043 C 
ENDBRANCH   4   7
BRANCH   5  14
ATOM     14  N3  <0> d          -1.110  -0.842   0.009  0.00  0.00    -0.384 N 
ATOM     15  H4  <0> d          -2.002  -0.463   0.019  0.00  0.00     0.157 HD
ATOM     16  H5  <0> d          -0.992  -1.805   0.003  0.00  0.00     0.157 HD
ENDBRANCH   5  14
BRANCH   2  17
ATOM     17  C8  <0> d           1.755   3.242   0.002  0.00  0.00     0.061 C 
ATOM     18  C12 <0> d           1.770   3.777  -1.432  0.00  0.00     0.178 C 
ATOM     19  O3  <0> d           2.136   5.158  -1.421  0.00  0.00    -0.390 OA
ATOM     20  C11 <0> d           1.238   5.995  -0.691  0.00  0.00     0.167 C 
ATOM     21  C10 <0> d           1.203   5.550   0.774  0.00  0.00     0.027 C 
ATOM     22  C9  <0> d           0.784   4.078   0.842  0.00  0.00     0.015 C 
ENDBRANCH   2  17
TORSDOF 3
