REMARK  3 active torsions:
REMARK  status: ('A' for Active; 'I' for Inactive)
REMARK    1  A    between atoms: C5_5  and  O1_19 
REMARK    2  A    between atoms: C6_6  and  N1_8 
REMARK    3  A    between atoms: C10_12  and  C11_13 
ROOT
ATOM      1  N1  <0> d          -0.612  -2.548   1.244  0.00  0.00    -0.334 N 
ATOM      2  C8  <0> d          -1.602  -2.233   0.353  0.00  0.00     0.110 A 
ATOM      3  C9  <0> d          -2.702  -2.917   0.728  0.00  0.00     0.107 A 
ATOM      4  N2  <0> d          -2.403  -3.634   1.817  0.00  0.00    -0.350 N 
ATOM      5  C10 <0> d          -1.145  -3.428   2.139  0.00  0.00     0.118 A 
ATOM      6  H21 <0> d          -3.015  -4.217   2.292  0.00  0.00     0.166 HD
ENDROOT
BRANCH   1   7
ATOM      7  C6  <0> d           0.763  -2.041   1.233  0.00  0.00     0.120 C 
ATOM      8  C5  <0> d           1.441  -2.432  -0.081  0.00  0.00     0.141 C 
ATOM      9  C4  <0> d           0.666  -1.829  -1.254  0.00  0.00     0.034 C 
ATOM     10  C3  <0> d           0.648  -0.305  -1.124  0.00  0.00     0.007 C 
ATOM     11  C2  <0> d          -0.030   0.087   0.191  0.00  0.00    -0.016 C 
ATOM     12  C1  <0> d          -0.048   1.611   0.321  0.00  0.00     0.010 C 
ATOM     13  C7  <0> d           0.745  -0.516   1.364  0.00  0.00     0.032 C 
BRANCH   8  14
ATOM     14  O1  <0> d           1.458  -3.856  -0.203  0.00  0.00    -0.393 OA
ATOM     15  H20 <0> d           1.874  -4.176  -1.015  0.00  0.00     0.210 HD
ENDBRANCH   8  14
ENDBRANCH   1   7
BRANCH   5  16
ATOM     16  C11 <0> d          -0.431  -4.043   3.279  0.00  0.00     0.008 A 
ATOM     17  C16 <0> d          -1.106  -4.296   4.474  0.00  0.00     0.015 A 
ATOM     18  C15 <0> d          -0.435  -4.875   5.532  0.00  0.00     0.001 A 
ATOM     19  C14 <0> d           0.906  -5.193   5.414  0.00  0.00     0.000 A 
ATOM     20  C13 <0> d           1.582  -4.939   4.234  0.00  0.00     0.001 A 
ATOM     21  C12 <0> d           0.922  -4.366   3.167  0.00  0.00     0.015 A 
ENDBRANCH   5  16
TORSDOF 3
