REMARK  3 active torsions:
REMARK  status: ('A' for Active; 'I' for Inactive)
REMARK    1  A    between atoms: C2_2  and  C3_3 
REMARK    2  A    between atoms: C2_2  and  N4_16 
REMARK       I    between atoms: C3_3  and  N1_5 
REMARK    3  A    between atoms: N1_5  and  C4_6 
ROOT
ATOM      1  C3  <0> d           0.707  -0.490  -1.238  0.00  0.00     0.242 C 
ATOM      2  O1  <0> d           1.704  -1.174  -1.140  0.00  0.00    -0.271 OA
ATOM      3  N1  <0> d           0.231  -0.164  -2.456  0.00  0.00    -0.350 N 
ATOM      4  H6  <0> d          -0.566   0.383  -2.534  0.00  0.00     0.163 HD
ENDROOT
BRANCH   3   5
ATOM      5  C4  <0> d           0.917  -0.637  -3.661  0.00  0.00     0.121 C 
ATOM      6  C9  <0> d           0.428  -2.019  -4.015  0.00  0.00     0.008 A 
ATOM      7  C8  <0> d           0.119  -2.418  -5.276  0.00  0.00     0.040 A 
ATOM      8  C10 <0> d           0.211  -3.095  -3.157  0.00  0.00     0.150 A 
ATOM      9  C7  <0> d           0.227  -1.534  -6.493  0.00  0.00     0.059 C 
ATOM     10  N3  <0> d          -0.281  -3.699  -5.216  0.00  0.00    -0.278 N 
ATOM     11  C6  <0> d           1.104  -0.327  -6.138  0.00  0.00     0.008 C 
ATOM     12  C5  <0> d           0.606   0.302  -4.834  0.00  0.00     0.030 C 
ATOM     13  N2  <0> d          -0.214  -4.107  -3.874  0.00  0.00    -0.184 NA
ATOM     14  C11 <0> d          -0.709  -4.523  -6.349  0.00  0.00     0.179 C 
ENDBRANCH   3   5
BRANCH   1  15
ATOM     15  C2  <0> d           0.002  -0.004   0.002  0.00  0.00     0.197 C 
ATOM     16  C1  <0> d          -0.019   1.526   0.010  0.00  0.00     0.044 C 
BRANCH  15  17
ATOM     17  N4  <0> d           0.711  -0.489   1.189  0.00  0.00    -0.268 N 
ATOM     18  N5  <0> d           0.404  -1.647   1.916  0.00  0.00    -0.184 NA
ATOM     19  C14 <0> d           1.258  -1.749   2.902  0.00  0.00     0.140 A 
ATOM     20  C13 <0> d           2.129  -0.656   2.840  0.00  0.00     0.040 A 
ATOM     21  C12 <0> d           1.770   0.103   1.778  0.00  0.00     0.114 A 
ENDBRANCH  15  17
ENDBRANCH   1  15
TORSDOF 3
