REMARK  4 active torsions:
REMARK  status: ('A' for Active; 'I' for Inactive)
REMARK    1  A    between atoms: C9_9  and  O2_18 
REMARK    2  A    between atoms: C10_10  and  C11_11 
REMARK    3  A    between atoms: N1_12  and  N2_13 
REMARK       I    between atoms: N2_13  and  C12_14 
REMARK    4  A    between atoms: C12_14  and  C13_16 
ROOT
ATOM      1  C1  <0> d          -0.013   1.076   0.008  0.00  0.00     0.001 A 
ATOM      2  C2  <0> d          -1.234   1.745   0.017  0.00  0.00     0.001 A 
ATOM      3  C3  <0> d          -1.286   3.107   0.031  0.00  0.00     0.013 A 
ATOM      4  C4  <0> d          -0.096   3.845   0.023  0.00  0.00    -0.011 A 
ATOM      5  C5  <0> d           1.148   3.168   0.008  0.00  0.00    -0.025 A 
ATOM      6  C6  <0> d           1.163   1.762   0.000  0.00  0.00     0.012 A 
ATOM      7  C7  <0> d           2.341   3.910  -0.000  0.00  0.00     0.015 A 
ATOM      8  C8  <0> d           2.315   5.269   0.006  0.00  0.00     0.038 A 
ATOM      9  C9  <0> d           1.117   5.981   0.021  0.00  0.00     0.078 A 
ATOM     10  C10 <0> d          -0.105   5.306   0.030  0.00  0.00     0.027 A 
ENDROOT
BRANCH  10  11
ATOM     11  C11 <0> d          -1.372   6.050   0.045  0.00  0.00     0.153 C 
ATOM     12  N1  <0> d          -1.364   7.349   0.052  0.00  0.00    -0.184 NA
BRANCH  12  13
ATOM     13  N2  <0> d          -2.572   8.058   0.067  0.00  0.00    -0.247 N 
ATOM     14  C12 <0> d          -2.563   9.406   0.073  0.00  0.00     0.247 C 
ATOM     15  O1  <0> d          -1.508  10.005   0.066  0.00  0.00    -0.271 OA
ATOM     16  H8  <0> d          -3.415   7.579   0.072  0.00  0.00     0.192 HD
BRANCH  14  17
ATOM     17  C13 <0> d          -3.863  10.168   0.089  0.00  0.00     0.189 C 
ATOM     18 Br1  <0> d          -3.491  12.098   0.095  0.00  0.00    -0.087 Br
ENDBRANCH  14  17
ENDBRANCH  12  13
ENDBRANCH  10  11
BRANCH   9  19
ATOM     19  O2  <0> d           1.138   7.338   0.027  0.00  0.00    -0.360 OA
ATOM     20  H11 <0> d           1.135   7.735  -0.855  0.00  0.00     0.217 HD
ENDBRANCH   9  19
TORSDOF 4
