REMARK  3 active torsions:
REMARK  status: ('A' for Active; 'I' for Inactive)
REMARK    1  A    between atoms: N1_7  and  C7_8 
REMARK    2  A    between atoms: C7_8  and  C8_9 
REMARK    3  A    between atoms: C9_11  and  N4_18 
ROOT
ATOM      1  C8  <0> d           2.754  -0.315   2.498  0.00  0.00     0.155 A 
ATOM      2  N2  <0> d           2.634   0.457   3.564  0.00  0.00    -0.214 NA
ATOM      3  C9  <0> d           3.213   0.162   4.716  0.00  0.00     0.136 A 
ATOM      4  C10 <0> d           3.992  -1.023   4.818  0.00  0.00     0.046 A 
ATOM      5  C11 <0> d           4.719  -1.563   5.953  0.00  0.00     0.025 A 
ATOM      6  C12 <0> d           5.394  -2.714   5.812  0.00  0.00     0.053 A 
ATOM      7  S1  <0> d           5.096  -3.165   4.113  0.00  0.00    -0.081 SA
ATOM      8  C13 <0> d           4.075  -1.796   3.639  0.00  0.00     0.113 A 
ATOM      9  N3  <0> d           3.459  -1.429   2.532  0.00  0.00    -0.224 NA
ENDROOT
BRANCH   1  10
ATOM     10  C7  <0> d           2.066   0.083   1.218  0.00  0.00     0.315 C 
BRANCH  10  11
ATOM     11  N1  <0> d           0.713  -0.490   1.191  0.00  0.00    -0.060 N 
ATOM     12  C2  <0> d           0.002  -0.004   0.002  0.00  0.00     0.184 C 
ATOM     13  C1  <0> d          -0.019   1.526   0.010  0.00  0.00     0.040 C 
ATOM     14  C3  <0> d          -1.434  -0.533   0.011  0.00  0.00     0.033 C 
ATOM     15  C4  <0> d          -1.408  -2.064   0.003  0.00  0.00     0.004 C 
ATOM     16  C5  <0> d          -0.600  -2.558   1.206  0.00  0.00     0.028 C 
ATOM     17  C6  <0> d           0.805  -1.954   1.152  0.00  0.00     0.236 C 
ATOM     18  H19 <0> d           0.213  -0.206   2.020  0.00  0.00     0.280 HD
ENDBRANCH  10  11
ENDBRANCH   1  10
BRANCH   3  19
ATOM     19  N4  <0> d           3.063   0.997   5.809  0.00  0.00    -0.383 N 
ATOM     20  H17 <0> d           2.530   1.804   5.733  0.00  0.00     0.157 HD
ATOM     21  H18 <0> d           3.490   0.775   6.651  0.00  0.00     0.157 HD
ENDBRANCH   3  19
TORSDOF 3
