REMARK  7 active torsions:
REMARK  status: ('A' for Active; 'I' for Inactive)
REMARK    1  A    between atoms: C5_5  and  C9_9 
REMARK       I    between atoms: C9_9  and  N1_11 
REMARK    2  A    between atoms: C11_13  and  C18_21 
REMARK       I    between atoms: C18_21  and  N3_23 
REMARK    3  A    between atoms: N3_23  and  C19_24 
REMARK    4  A    between atoms: C19_24  and  C20_25 
REMARK    5  A    between atoms: C20_25  and  N4_26 
REMARK       I    between atoms: N4_26  and  C21_27 
REMARK    6  A    between atoms: C21_27  and  O4_29 
REMARK    7  A    between atoms: O4_29  and  C22_30 
ROOT
ATOM      1  C9  <0> d           0.063  -4.258  -0.019  0.00  0.00     0.253 C 
ATOM      2  O1  <0> d           0.186  -4.872   1.023  0.00  0.00    -0.267 OA
ATOM      3  N1  <0> d          -0.036  -4.925  -1.186  0.00  0.00    -0.346 N 
ATOM      4  C10 <0> d          -0.063  -4.359  -2.555  0.00  0.00     0.141 C 
ATOM      5  C11 <0> d           0.782  -5.339  -3.399  0.00  0.00     0.106 C 
ATOM      6  C12 <0> d           0.724  -6.670  -2.630  0.00  0.00    -0.007 C 
ATOM      7  C13 <0> d          -0.137  -6.389  -1.390  0.00  0.00     0.136 C 
ATOM      8  C14 <0> d           2.126  -7.097  -2.206  0.00  0.00     0.039 C 
ATOM      9  C15 <0> d           2.048  -8.450  -1.493  0.00  0.00     0.233 C 
ATOM     10  N2  <0> d           1.463  -9.448  -2.397  0.00  0.00    -0.075 N 
ATOM     11  C16 <0> d           0.082  -9.077  -2.726  0.00  0.00     0.233 C 
ATOM     12  C17 <0> d           0.076  -7.750  -3.491  0.00  0.00     0.039 C 
ATOM     13  H19 <0> d           2.009  -9.494  -3.244  0.00  0.00     0.277 HD
ATOM     14  H39 <0> d           1.469 -10.351  -1.947  0.00  0.00     0.277 HD
ENDROOT
BRANCH   5  15
ATOM     15  C18 <0> d           2.204  -4.852  -3.502  0.00  0.00     0.224 C 
ATOM     16  O2  <0> d           2.717  -4.275  -2.566  0.00  0.00    -0.273 OA
ATOM     17  N3  <0> d           2.907  -5.057  -4.634  0.00  0.00    -0.359 N 
ATOM     18  H24 <0> d           2.497  -5.518  -5.382  0.00  0.00     0.162 HD
BRANCH  17  19
ATOM     19  C19 <0> d           4.290  -4.583  -4.734  0.00  0.00     0.142 C 
BRANCH  19  20
ATOM     20  C20 <0> d           4.853  -4.941  -6.111  0.00  0.00     0.144 C 
BRANCH  20  21
ATOM     21  N4  <0> d           6.236  -4.467  -6.210  0.00  0.00    -0.335 N 
ATOM     22  C21 <0> d           6.938  -4.672  -7.342  0.00  0.00     0.361 C 
ATOM     23  O3  <0> d           6.425  -5.249  -8.280  0.00  0.00    -0.238 OA
ATOM     24  H29 <0> d           6.646  -4.006  -5.462  0.00  0.00     0.164 HD
BRANCH  22  25
ATOM     25  O4  <0> d           8.209  -4.236  -7.434  0.00  0.00    -0.294 OA
BRANCH  25  26
ATOM     26  C22 <0> d           8.893  -4.488  -8.663  0.00  0.00     0.061 C 
ATOM     27  C23 <0> d           8.143  -3.812  -9.812  0.00  0.00     0.046 C 
ATOM     28  C24 <0> d          10.314  -3.925  -8.580  0.00  0.00     0.046 C 
ATOM     29  C25 <0> d           8.957  -5.996  -8.912  0.00  0.00     0.046 C 
ENDBRANCH  25  26
ENDBRANCH  22  25
ENDBRANCH  20  21
ENDBRANCH  19  20
ENDBRANCH  17  19
ENDBRANCH   5  15
BRANCH   1  30
ATOM     30  C5  <0> d           0.022  -2.780  -0.005  0.00  0.00     0.032 A 
ATOM     31  C4  <0> d          -0.607  -2.087  -1.041  0.00  0.00     0.017 A 
ATOM     32  C3  <0> d          -0.642  -0.708  -1.022  0.00  0.00     0.008 A 
ATOM     33  C2  <0> d          -0.055  -0.012   0.020  0.00  0.00    -0.056 A 
ATOM     34  C1  <0> d          -0.097   1.494   0.033  0.00  0.00     0.049 C 
ATOM     35  C7  <0> d           0.575  -0.693   1.046  0.00  0.00    -0.055 A 
ATOM     36  C6  <0> d           0.612  -2.072   1.042  0.00  0.00     0.024 A 
ATOM     37  C8  <0> d           1.216   0.074   2.174  0.00  0.00     0.049 C 
ENDBRANCH   1  30
TORSDOF 7
