REMARK  5 active torsions:
REMARK  status: ('A' for Active; 'I' for Inactive)
REMARK    1  A    between atoms: C3_4  and  C7_11 
REMARK    2  A    between atoms: C7_11  and  C8_13 
REMARK    3  A    between atoms: C8_13  and  O4_14 
REMARK    4  A    between atoms: O4_14  and  C9_15 
REMARK    5  A    between atoms: C9_15  and  C10_17 
ROOT
ATOM      1  C1  <0> d          -4.908   1.204  -0.155  0.00  0.00     0.163 C 
ATOM      2  N1  <0> d          -3.632   1.917  -0.060  0.00  0.00    -0.289 N 
ATOM      3  C2  <0> d          -2.465   1.208  -0.090  0.00  0.00     0.124 A 
ATOM      4  C3  <0> d          -1.246   1.900   0.007  0.00  0.00     0.124 A 
ATOM      5  C4  <0> d          -1.295   3.363   0.126  0.00  0.00     0.269 A 
ATOM      6  O1  <0> d          -0.270   4.015   0.209  0.00  0.00    -0.267 OA
ATOM      7  N2  <0> d          -2.499   3.970   0.141  0.00  0.00    -0.270 N 
ATOM      8  C5  <0> d          -3.632   3.255   0.050  0.00  0.00     0.332 A 
ATOM      9  O2  <0> d          -4.697   3.840   0.067  0.00  0.00    -0.246 OA
ATOM     10  C6  <0> d          -2.573   5.429   0.258  0.00  0.00     0.164 C 
ATOM     11  N3  <0> d          -2.483  -0.148  -0.208  0.00  0.00    -0.384 N 
ATOM     12  H10 <0> d          -1.656  -0.651  -0.144  0.00  0.00     0.157 HD
ATOM     13  H11 <0> d          -3.322  -0.611  -0.355  0.00  0.00     0.157 HD
ENDROOT
BRANCH   4  14
ATOM     14  C7  <0> d          -0.014   1.212  -0.013  0.00  0.00     0.192 C 
ATOM     15  O3  <0> d           0.004  -0.002  -0.009  0.00  0.00    -0.290 OA
BRANCH  14  16
ATOM     16  C8  <0> d           1.280   1.984  -0.047  0.00  0.00     0.263 C 
BRANCH  16  17
ATOM     17  O4  <0> d           2.379   1.072  -0.070  0.00  0.00    -0.309 OA
BRANCH  17  18
ATOM     18  C9  <0> d           3.618   1.605  -0.101  0.00  0.00     0.300 C 
ATOM     19  O5  <0> d           3.760   2.813  -0.109  0.00  0.00    -0.259 OA
BRANCH  18  20
ATOM     20  C10 <0> d           4.791   0.731  -0.126  0.00  0.00     0.082 A 
ATOM     21  S1  <0> d           4.864  -1.052  -0.113  0.00  0.00    -0.075 SA
ATOM     22  C13 <0> d           6.587  -1.242  -0.160  0.00  0.00     0.069 A 
ATOM     23  C12 <0> d           7.041   0.042  -0.176  0.00  0.00     0.036 A 
ATOM     24 Br1  <0> d           7.592  -2.844  -0.176  0.00  0.00    -0.042 Br
ATOM     25  C11 <0> d           6.135   1.072  -0.159  0.00  0.00     0.046 A 
ATOM     26 Br2  <0> d           8.897   0.399  -0.220  0.00  0.00    -0.049 Br
ENDBRANCH  18  20
ENDBRANCH  17  18
ENDBRANCH  16  17
ENDBRANCH  14  16
ENDBRANCH   4  14
TORSDOF 5
