REMARK  2 active torsions:
REMARK  status: ('A' for Active; 'I' for Inactive)
REMARK    1  A    between atoms: C5_5  and  C7_7 
REMARK    2  A    between atoms: C12_17  and  N4_21 
ROOT
ATOM      1  C7  <0> d           1.229  -2.186  -0.022  0.00  0.00     0.089 C 
ATOM      2  C8  <0> d           0.499  -2.700  -1.269  0.00  0.00     0.169 A 
ATOM      3  C9  <0> d           0.906  -1.891  -2.466  0.00  0.00     0.238 A 
ATOM      4  O1  <0> d           2.075  -1.852  -2.785  0.00  0.00    -0.272 OA
ATOM      5  N1  <0> d           0.005  -1.209  -3.191  0.00  0.00    -0.277 N 
ATOM      6  C10 <0> d          -1.299  -1.214  -2.871  0.00  0.00     0.350 A 
ATOM      7  O2  <0> d          -2.084  -0.603  -3.570  0.00  0.00    -0.244 OA
ATOM      8  N2  <0> d          -1.756  -1.878  -1.798  0.00  0.00    -0.172 NA
ATOM      9  C11 <0> d          -0.984  -2.574  -1.017  0.00  0.00     0.167 A 
ATOM     10  O3  <0> d          -1.480  -3.207   0.069  0.00  0.00    -0.277 OA
ATOM     11  C12 <0> d          -0.734  -3.160   1.195  0.00  0.00     0.161 C 
ATOM     12  C13 <0> d           0.537  -2.705   1.210  0.00  0.00     0.083 C 
ATOM     13  C14 <0> d           1.257  -2.716   2.447  0.00  0.00     0.100 C 
ATOM     14  N3  <0> d           1.828  -2.725   3.429  0.00  0.00    -0.191 NA
ATOM     15  H7  <0> d           0.302  -0.702  -3.963  0.00  0.00     0.173 HD
ENDROOT
BRANCH   1  16
ATOM     16  C5  <0> d           1.208  -0.679  -0.013  0.00  0.00    -0.031 A 
ATOM     17  C4  <0> d           2.396   0.029  -0.021  0.00  0.00     0.013 A 
ATOM     18  C3  <0> d           2.377   1.411  -0.013  0.00  0.00     0.019 A 
ATOM     19  I1  <0> d           4.225  -0.994  -0.044  0.00  0.00    -0.044 I 
ATOM     20  C2  <0> d           1.171   2.086   0.002  0.00  0.00     0.001 A 
ATOM     21  C1  <0> d          -0.017   1.378   0.010  0.00  0.00     0.001 A 
ATOM     22  C6  <0> d           0.002  -0.004   0.002  0.00  0.00     0.009 A 
ENDBRANCH   1  16
BRANCH  11  23
ATOM     23  N4  <0> d          -1.292  -3.593   2.372  0.00  0.00    -0.379 N 
ATOM     24  H8  <0> d          -2.204  -3.924   2.384  0.00  0.00     0.158 HD
ATOM     25  H9  <0> d          -0.774  -3.568   3.192  0.00  0.00     0.158 HD
ENDBRANCH  11  23
TORSDOF 2
