REMARK  6 active torsions:
REMARK  status: ('A' for Active; 'I' for Inactive)
REMARK    1  A    between atoms: C2_2  and  C3_3 
REMARK    2  A    between atoms: C2_2  and  N2_21 
REMARK    3  A    between atoms: C8_8  and  O1_9 
REMARK    4  A    between atoms: O1_9  and  C9_10 
REMARK    5  A    between atoms: C9_10  and  C10_11 
REMARK    6  A    between atoms: C13_14  and  N1_18 
ROOT
ATOM      1  C3  <0> d           0.707  -0.490  -1.238  0.00  0.00     0.005 A 
ATOM      2  C4  <0> d           2.024  -0.904  -1.167  0.00  0.00     0.012 A 
ATOM      3  C5  <0> d           2.671  -1.350  -2.304  0.00  0.00     0.001 A 
ATOM      4  C6  <0> d           2.004  -1.382  -3.515  0.00  0.00     0.003 A 
ATOM      5  C7  <0> d           0.688  -0.970  -3.591  0.00  0.00     0.037 A 
ATOM      6  C8  <0> d           0.034  -0.527  -2.450  0.00  0.00     0.077 A 
ENDROOT
BRANCH   6   7
ATOM      7  O1  <0> d          -1.262  -0.126  -2.521  0.00  0.00    -0.346 OA
BRANCH   7   8
ATOM      8  C9  <0> d          -1.893  -0.192  -3.802  0.00  0.00     0.215 C 
BRANCH   8   9
ATOM      9  C10 <0> d          -3.316   0.289  -3.687  0.00  0.00    -0.017 A 
ATOM     10  C15 <0> d          -4.130   0.317  -4.805  0.00  0.00     0.021 A 
ATOM     11  C14 <0> d          -5.438   0.754  -4.697  0.00  0.00     0.055 A 
ATOM     12 Br1  <0> d          -3.456  -0.250  -6.479  0.00  0.00    -0.050 Br
ATOM     13  C13 <0> d          -5.928   1.173  -3.475  0.00  0.00     0.104 A 
ATOM     14  C12 <0> d          -5.113   1.150  -2.359  0.00  0.00     0.037 A 
ATOM     15  C11 <0> d          -3.807   0.709  -2.464  0.00  0.00     0.013 A 
BRANCH  13  16
ATOM     16  N1  <0> d          -7.326   1.645  -3.361  0.00  0.00    -0.116 N 
ATOM     17  O2  <0> d          -7.755   2.011  -2.292  0.00  0.00    -0.532 OA
ATOM     18  O3  <0> d          -8.039   1.665  -4.337  0.00  0.00    -0.532 OA
ENDBRANCH  13  16
ENDBRANCH   8   9
ENDBRANCH   7   8
ENDBRANCH   6   7
BRANCH   1  19
ATOM     19  C2  <0> d           0.002  -0.004   0.002  0.00  0.00     0.215 C 
ATOM     20  C1  <0> d          -0.019   1.526   0.010  0.00  0.00     0.045 C 
BRANCH  19  21
ATOM     21  N2  <0> d           0.713  -0.491   1.192  0.00  0.00    -0.071 N 
ATOM     22  H14 <0> d           0.240  -0.165   2.022  0.00  0.00     0.275 HD
ATOM     23  H15 <0> d           0.726  -1.500   1.187  0.00  0.00     0.275 HD
ATOM     24  H16 <0> d           1.659  -0.141   1.185  0.00  0.00     0.275 HD
ENDBRANCH  19  21
ENDBRANCH   1  19
TORSDOF 6
