REMARK  2 active torsions:
REMARK  status: ('A' for Active; 'I' for Inactive)
REMARK    1  A    between atoms: C7_9  and  C11_16 
REMARK    2  A    between atoms: C11_16  and  O6_17 
ROOT
ATOM      1  C1  <0> d          -0.019   1.526   0.010  0.00  0.00     0.078 C 
ATOM      2  C2  <0> d           0.002  -0.004   0.002  0.00  0.00     0.157 C 
ATOM      3  O1  <0> d          -1.335  -0.467   0.080  0.00  0.00    -0.353 OA
ATOM      4  C3  <0> d          -1.962  -0.637  -1.193  0.00  0.00     0.206 C 
ATOM      5  C4  <0> d          -1.213  -1.733  -1.945  0.00  0.00     0.181 C 
ATOM      6  C5  <0> d           0.286  -1.351  -2.076  0.00  0.00     0.191 C 
ATOM      7  O2  <0> d           0.717  -0.425  -1.119  0.00  0.00    -0.345 OA
ATOM      8  C6  <0> d           0.278  -0.758  -3.462  0.00  0.00     0.221 C 
ATOM      9  C7  <0> d          -0.649  -1.817  -4.183  0.00  0.00     0.218 C 
ATOM     10  O3  <0> d          -1.756  -1.826  -3.288  0.00  0.00    -0.341 OA
ATOM     11  O4  <0> d          -0.754  -1.156  -5.444  0.00  0.00    -0.315 OA
ATOM     12  C8  <0> d           0.544  -0.536  -5.645  0.00  0.00     0.161 C 
ATOM     13  O5  <0> d           1.289  -0.665  -4.405  0.00  0.00    -0.342 OA
ATOM     14  C9  <0> d           1.294  -1.258  -6.766  0.00  0.00     0.078 C 
ATOM     15  C10 <0> d           0.362   0.938  -6.011  0.00  0.00     0.078 C 
ATOM     16  C12 <0> d           0.747  -0.478   1.252  0.00  0.00     0.078 C 
ENDROOT
BRANCH   9  17
ATOM     17  C11 <0> d           0.010  -3.192  -4.309  0.00  0.00     0.235 C 
BRANCH  17  18
ATOM     18  O6  <0> d          -0.885  -4.091  -4.968  0.00  0.00    -0.395 OA
ATOM     19  H17 <0> d          -0.532  -4.984  -5.082  0.00  0.00     0.209 HD
ENDBRANCH  17  18
ENDBRANCH   9  17
TORSDOF 2
