REMARK  5 active torsions:
REMARK  status: ('A' for Active; 'I' for Inactive)
REMARK    1  A    between atoms: C5_5  and  C7_8 
REMARK    2  A    between atoms: C7_8  and  C12_14 
REMARK    3  A    between atoms: C12_14  and  N3_15 
REMARK    4  A    between atoms: C15_18  and  C18_21 
REMARK    5  A    between atoms: C18_21  and  O2_23 
ROOT
ATOM      1  C7  <0> d           0.026  -4.171   0.159  0.00  0.00     0.031 C 
ATOM      2  C8  <0> d          -1.116  -5.074  -0.316  0.00  0.00     0.045 C 
ATOM      3  C9  <0> d          -0.577  -6.485  -0.558  0.00  0.00     0.233 C 
ATOM      4  N2  <0> d           0.473  -6.442  -1.583  0.00  0.00    -0.075 N 
ATOM      5  C10 <0> d           1.603  -5.636  -1.105  0.00  0.00     0.233 C 
ATOM      6  C11 <0> d           1.147  -4.193  -0.883  0.00  0.00     0.045 C 
ATOM      7  H11 <0> d           0.789  -7.380  -1.778  0.00  0.00     0.277 HD
ATOM      8  H30 <0> d           0.102  -6.032  -2.426  0.00  0.00     0.277 HD
ENDROOT
BRANCH   1   9
ATOM      9  C5  <0> d          -0.481  -2.762   0.325  0.00  0.00     0.044 A 
ATOM     10  C4  <0> d          -0.695  -1.977  -0.793  0.00  0.00     0.028 A 
ATOM     11  C3  <0> d          -1.161  -0.682  -0.630  0.00  0.00     0.010 A 
ATOM     12  C2  <0> d          -1.397  -0.222   0.657  0.00  0.00    -0.044 A 
ATOM     13  C1  <0> d          -1.904   1.178   0.887  0.00  0.00     0.049 C 
ATOM     14  C6  <0> d          -1.155  -1.063   1.727  0.00  0.00     0.123 A 
ATOM     15  N1  <0> d          -0.716  -2.292   1.534  0.00  0.00    -0.264 NA
ENDBRANCH   1   9
BRANCH   1  16
ATOM     16  C12 <0> d           0.562  -4.683   1.498  0.00  0.00     0.250 C 
BRANCH  16  17
ATOM     17  N3  <0> d           1.869  -4.069   1.768  0.00  0.00    -0.070 N 
ATOM     18  C17 <0> d           2.458  -4.684   2.964  0.00  0.00     0.235 C 
ATOM     19  C16 <0> d           3.854  -4.106   3.204  0.00  0.00     0.042 C 
ATOM     20  C15 <0> d           3.746  -2.592   3.407  0.00  0.00     0.088 C 
ATOM     21  C14 <0> d           3.063  -1.970   2.185  0.00  0.00     0.042 C 
ATOM     22  C13 <0> d           1.696  -2.627   1.983  0.00  0.00     0.235 C 
ATOM     23  H31 <0> d           2.479  -4.219   0.979  0.00  0.00     0.279 HD
BRANCH  20  24
ATOM     24  C18 <0> d           5.125  -2.005   3.566  0.00  0.00     0.262 C 
ATOM     25  O1  <0> d           5.522  -1.175   2.783  0.00  0.00    -0.265 OA
BRANCH  24  26
ATOM     26  O2  <0> d           5.912  -2.405   4.577  0.00  0.00    -0.326 OA
ATOM     27  C19 <0> d           7.207  -1.807   4.667  0.00  0.00     0.213 C 
ENDBRANCH  24  26
ENDBRANCH  20  24
ENDBRANCH  16  17
ENDBRANCH   1  16
TORSDOF 5
