REMARK  8 active torsions:
REMARK  status: ('A' for Active; 'I' for Inactive)
REMARK    1  A    between atoms: C3_3  and  C7_10 
REMARK    2  A    between atoms: C7_10  and  N3_11 
REMARK    3  A    between atoms: C12_16  and  C15_22 
REMARK    4  A    between atoms: N5_18  and  C13_19 
REMARK    5  A    between atoms: C13_19  and  C14_20 
REMARK    6  A    between atoms: C14_20  and  O1_21 
REMARK       I    between atoms: C15_22  and  N6_24 
REMARK    7  A    between atoms: N6_24  and  C16_25 
REMARK    8  A    between atoms: C16_25  and  C17_26 
ROOT
ATOM      1  N3  <0> d           3.382  -1.619  -0.435  0.00  0.00     0.098 N 
ATOM      2  C8  <0> d           4.073  -0.601   0.369  0.00  0.00     0.279 C 
ATOM      3  C9  <0> d           3.574   0.797  -0.021  0.00  0.00     0.089 C 
ATOM      4  C10 <0> d           2.067   0.767  -0.012  0.00  0.00     0.043 A 
ATOM      5  C11 <0> d           1.351  -0.388  -0.013  0.00  0.00     0.030 A 
ATOM      6  C12 <0> d           0.002  -0.004   0.002  0.00  0.00     0.154 A 
ATOM      7  N4  <0> d          -0.016   1.319   0.009  0.00  0.00    -0.166 NA
ATOM      8  N5  <0> d           1.188   1.780   0.000  0.00  0.00    -0.271 N 
ATOM      9  C23 <0> d           1.971  -1.757  -0.032  0.00  0.00     0.316 C 
ENDROOT
BRANCH   6  10
ATOM     10  C15 <0> d          -1.170  -0.902   0.008  0.00  0.00     0.272 C 
ATOM     11  O2  <0> d          -1.013  -2.108  -0.000  0.00  0.00    -0.266 OA
ATOM     12  N6  <0> d          -2.415  -0.386   0.023  0.00  0.00    -0.351 N 
ATOM     13  H17 <0> d          -2.558   0.705   0.030  0.00  0.00     0.163 HD
BRANCH  12  14
ATOM     14  C16 <0> d          -3.578  -1.277   0.029  0.00  0.00     0.161 C 
BRANCH  14  15
ATOM     15  C17 <0> d          -4.841  -0.455   0.045  0.00  0.00    -0.041 A 
ATOM     16  C22 <0> d          -5.431  -0.071  -1.144  0.00  0.00     0.009 A 
ATOM     17  C21 <0> d          -6.590   0.683  -1.129  0.00  0.00     0.001 A 
ATOM     18  C20 <0> d          -7.158   1.054   0.076  0.00  0.00     0.000 A 
ATOM     19  C19 <0> d          -6.567   0.670   1.265  0.00  0.00     0.001 A 
ATOM     20  C18 <0> d          -5.412  -0.089   1.250  0.00  0.00     0.009 A 
ENDBRANCH  14  15
ENDBRANCH  12  14
ENDBRANCH   6  10
BRANCH   8  21
ATOM     21  C13 <0> d           1.544   3.201   0.003  0.00  0.00     0.177 C 
BRANCH  21  22
ATOM     22  C14 <0> d           1.681   3.689   1.446  0.00  0.00     0.185 C 
BRANCH  22  23
ATOM     23  O1  <0> d           2.029   5.076   1.448  0.00  0.00    -0.399 OA
ATOM     24  H16 <0> d           2.171   5.605   2.402  0.00  0.00     0.209 HD
ENDBRANCH  22  23
ENDBRANCH  21  22
ENDBRANCH   8  21
BRANCH   1  25
ATOM     25  C7  <0> d           4.079  -2.910  -0.363  0.00  0.00     0.332 C 
BRANCH  25  26
ATOM     26  C3  <0> d           3.998  -3.447   1.042  0.00  0.00     0.071 A 
ATOM     27  C2  <0> d           4.881  -3.222   2.029  0.00  0.00     0.058 A 
ATOM     28  C1  <0> d           6.130  -2.385   1.919  0.00  0.00     0.072 C 
ATOM     29  N2  <0> d           4.462  -3.866   3.128  0.00  0.00    -0.227 NA
ATOM     30  C6  <0> d           3.353  -4.491   2.854  0.00  0.00     0.177 A 
ATOM     31  N1  <0> d           2.997  -4.271   1.550  0.00  0.00    -0.301 N 
ATOM     32  S1  <0> d           2.046  -5.541   3.445  0.00  0.00    -0.062 SA
ATOM     33  C4  <0> d           1.837  -4.871   1.110  0.00  0.00     0.106 A 
ATOM     34  C5  <0> d           1.107  -5.626   1.929  0.00  0.00     0.071 A 
ENDBRANCH  25  26
ENDBRANCH   1  25
TORSDOF 8
