REMARK  2 active torsions:
REMARK  status: ('A' for Active; 'I' for Inactive)
REMARK    1  A    between atoms: N1_5  and  C8_9 
REMARK    2  A    between atoms: C8_9  and  C13_15 
ROOT
ATOM      1  C1  <0> d           0.118   1.716  -0.009  0.00  0.00     0.000 C 
ATOM      2  C2  <0> d           1.572   2.151  -0.215  0.00  0.00     0.002 C 
ATOM      3  C3  <0> d           2.024   1.760  -1.623  0.00  0.00     0.028 C 
ATOM      4  C4  <0> d           3.087   0.666  -1.541  0.00  0.00     0.236 C 
ATOM      5  N1  <0> d           2.677  -0.350  -0.563  0.00  0.00    -0.052 N 
ATOM      6  C5  <0> d           1.650  -1.218  -1.154  0.00  0.00     0.236 C 
ATOM      7  C6  <0> d           0.305  -0.493  -1.160  0.00  0.00     0.028 C 
ATOM      8  C7  <0> d           0.082   0.197   0.185  0.00  0.00     0.002 C 
ATOM      9  H23 <0> d           2.302   0.104   0.256  0.00  0.00     0.281 HD
ENDROOT
BRANCH   5  10
ATOM     10  C8  <0> d           3.842  -1.160  -0.182  0.00  0.00     0.218 C 
ATOM     11  C12 <0> d           3.397  -2.291   0.750  0.00  0.00     0.077 C 
ATOM     12  C11 <0> d           4.602  -3.175   1.079  0.00  0.00     0.170 C 
ATOM     13  O1  <0> d           5.163  -3.683  -0.134  0.00  0.00    -0.391 OA
ATOM     14  C10 <0> d           5.640  -2.672  -1.024  0.00  0.00     0.170 C 
ATOM     15  C9  <0> d           4.476  -1.768  -1.437  0.00  0.00     0.077 C 
BRANCH  10  16
ATOM     16  C13 <0> d           4.850  -0.291   0.524  0.00  0.00     0.211 C 
ATOM     17  O2  <0> d           4.621   0.894   0.695  0.00  0.00    -0.646 OA
ATOM     18  O3  <0> d           5.896  -0.774   0.925  0.00  0.00    -0.646 OA
ENDBRANCH  10  16
ENDBRANCH   5  10
TORSDOF 2
