REMARK  4 active torsions:
REMARK  status: ('A' for Active; 'I' for Inactive)
REMARK       I    between atoms: N2_12  and  C10_13 
REMARK    1  A    between atoms: C10_13  and  C11_15 
REMARK    2  A    between atoms: C11_15  and  S1_16 
REMARK    3  A    between atoms: S1_16  and  C12_17 
REMARK    4  A    between atoms: N4_21  and  C17_26 
ROOT
ATOM      1  C11 <0> d           1.493  -0.415   1.576  0.00  0.00     0.184 C 
ENDROOT
BRANCH   1   2
ATOM      2  C10 <0> d           2.621   0.110   0.726  0.00  0.00     0.235 C 
ATOM      3  N2  <0> d           2.612   1.392   0.311  0.00  0.00    -0.297 N 
ATOM      4  C2  <0> d           3.762   1.966  -0.404  0.00  0.00     0.114 C 
ATOM      5  C9  <0> d           1.506   2.223   0.549  0.00  0.00     0.065 A 
ATOM      6  C1  <0> d           4.997   1.094  -0.171  0.00  0.00     0.049 C 
ATOM      7  C3  <0> d           4.020   3.357   0.118  0.00  0.00     0.250 C 
ATOM      8  C23 <0> d           3.454   2.029  -1.901  0.00  0.00     0.049 C 
ATOM      9  O1  <0> d           5.147   3.805   0.095  0.00  0.00    -0.270 OA
ATOM     10  N1  <0> d           3.016   4.107   0.610  0.00  0.00    -0.323 N 
ATOM     11  C4  <0> d           1.716   3.595   0.693  0.00  0.00     0.062 A 
ATOM     12  H4  <0> d           3.195   5.012   0.908  0.00  0.00     0.169 HD
ATOM     13  C5  <0> d           0.637   4.434   0.921  0.00  0.00     0.032 A 
ATOM     14  C6  <0> d          -0.638   3.908   1.007  0.00  0.00     0.002 A 
ATOM     15  C7  <0> d          -0.844   2.548   0.862  0.00  0.00     0.002 A 
ATOM     16  C8  <0> d           0.227   1.702   0.638  0.00  0.00     0.032 A 
ATOM     17  O2  <0> d           3.536  -0.622   0.413  0.00  0.00    -0.272 OA
ENDBRANCH   1   2
BRANCH   1  18
ATOM     18  S1  <0> d           2.040  -1.899   2.455  0.00  0.00    -0.100 SA
BRANCH  18  19
ATOM     19  C12 <0> d           0.570  -2.288   3.345  0.00  0.00     0.110 A 
ATOM     20  N6  <0> d          -0.516  -1.529   3.231  0.00  0.00    -0.234 NA
ATOM     21  C16 <0> d          -1.624  -1.817   3.890  0.00  0.00     0.236 A 
ATOM     22  N5  <0> d          -1.721  -2.851   4.698  0.00  0.00    -0.221 NA
ATOM     23  C15 <0> d          -0.686  -3.669   4.883  0.00  0.00     0.167 A 
ATOM     24  C13 <0> d           0.517  -3.408   4.198  0.00  0.00     0.067 A 
ATOM     25  N4  <0> d          -0.472  -4.792   5.630  0.00  0.00    -0.215 N 
ATOM     26  C14 <0> d           1.433  -4.415   4.572  0.00  0.00     0.157 A 
ATOM     27  N3  <0> d           0.843  -5.220   5.411  0.00  0.00    -0.177 NA
BRANCH  25  28
ATOM     28  C17 <0> d          -1.408  -5.410   6.470  0.00  0.00     0.060 A 
ATOM     29  C22 <0> d          -1.421  -6.793   6.598  0.00  0.00     0.031 A 
ATOM     30  C21 <0> d          -2.345  -7.399   7.427  0.00  0.00     0.002 A 
ATOM     31  C20 <0> d          -3.255  -6.630   8.130  0.00  0.00     0.000 A 
ATOM     32  C19 <0> d          -3.244  -5.253   8.004  0.00  0.00     0.002 A 
ATOM     33  C18 <0> d          -2.320  -4.641   7.180  0.00  0.00     0.031 A 
ENDBRANCH  25  28
ENDBRANCH  18  19
ENDBRANCH   1  18
TORSDOF 4
