REMARK  3 active torsions:
REMARK  status: ('A' for Active; 'I' for Inactive)
REMARK    1  A    between atoms: C4_4  and  O1_7 
REMARK    2  A    between atoms: O1_7  and  S1_8 
REMARK    3  A    between atoms: S1_8  and  C7_11 
ROOT
ATOM      1  C7  <0> d           3.192  -2.273   2.002  0.00  0.00     0.100 C 
ATOM      2  C8  <0> d           3.740  -3.477   2.150  0.00  0.00     0.006 C 
ATOM      3  C9  <0> d           2.911  -4.606   2.701  0.00  0.00     0.021 C 
ATOM      4  C10 <0> d           3.487  -5.951   2.276  0.00  0.00     0.047 C 
ATOM      5  C11 <0> d           3.402  -6.122   0.755  0.00  0.00     0.238 C 
ATOM      6  C12 <0> d           3.975  -7.506   0.425  0.00  0.00     0.216 C 
ATOM      7  O4  <0> d           3.965  -7.705  -1.000  0.00  0.00    -0.292 OA
ATOM      8  P1  <0> d           2.573  -7.413  -1.793  0.00  0.00     0.384 P 
ATOM      9  O5  <0> d           1.614  -8.616  -1.651  0.00  0.00    -0.629 OA
ATOM     10  N1  <0> d           1.932  -6.080  -1.062  0.00  0.00    -0.150 N 
ATOM     11  N2  <0> d           2.010  -6.002   0.312  0.00  0.00     0.020 N 
ATOM     12  C13 <0> d           1.471  -4.681   0.672  0.00  0.00     0.272 C 
ATOM     13  C14 <0> d           1.478  -4.491   2.173  0.00  0.00     0.045 C 
ATOM     14  C15 <0> d           0.961  -3.104   2.471  0.00  0.00     0.001 C 
ATOM     15  C16 <0> d           1.788  -2.062   2.397  0.00  0.00     0.031 C 
ATOM     16 Br1  <0> d           1.165  -0.320   2.787  0.00  0.00    -0.050 Br
ATOM     17  O6  <0> d           2.856  -7.128  -3.284  0.00  0.00    -0.629 OA
ATOM     18  H14 <0> d           1.513  -5.376  -1.583  0.00  0.00     0.200 HD
ATOM     19  H18 <0> d           1.456  -6.734   0.730  0.00  0.00     0.309 HD
ENDROOT
BRANCH   1  20
ATOM     20  S1  <0> d           4.140  -0.941   1.346  0.00  0.00     0.304 S 
ATOM     21  O2  <0> d           5.458  -1.436   1.154  0.00  0.00    -0.193 OA
ATOM     22  O3  <0> d           3.863   0.192   2.158  0.00  0.00    -0.193 OA
BRANCH  20  23
ATOM     23  O1  <0> d           3.586  -0.632  -0.037  0.00  0.00    -0.229 OA
BRANCH  23  24
ATOM     24  C4  <0> d           2.399   0.030  -0.021  0.00  0.00     0.089 A 
ATOM     25  C3  <0> d           2.377   1.417  -0.013  0.00  0.00     0.038 A 
ATOM     26  C2  <0> d           1.170   2.088   0.002  0.00  0.00     0.003 A 
ATOM     27  C1  <0> d          -0.017   1.378   0.010  0.00  0.00     0.000 A 
ATOM     28  C6  <0> d           0.002  -0.004   0.002  0.00  0.00     0.003 A 
ATOM     29  C5  <0> d           1.207  -0.680  -0.013  0.00  0.00     0.038 A 
ENDBRANCH  23  24
ENDBRANCH  20  23
ENDBRANCH   1  20
TORSDOF 3
