REMARK  3 active torsions:
REMARK  status: ('A' for Active; 'I' for Inactive)
REMARK    1  A    between atoms: C6_6  and  N1_9 
REMARK       I    between atoms: N1_9  and  C9_10 
REMARK    2  A    between atoms: C9_10  and  C10_12 
REMARK    3  A    between atoms: N3_14  and  C14_19 
ROOT
ATOM      1  C10 <0> d           1.917  -4.240   4.096  0.00  0.00     0.122 C 
ATOM      2  N2  <0> d           2.793  -3.479   4.674  0.00  0.00    -0.168 NA
ATOM      3  N3  <0> d           3.490  -3.909   5.808  0.00  0.00    -0.232 N 
ATOM      4  C11 <0> d           3.567  -5.221   6.103  0.00  0.00     0.240 C 
ATOM      5  O2  <0> d           4.176  -5.589   7.085  0.00  0.00    -0.272 OA
ATOM      6  C12 <0> d           2.893  -6.231   5.209  0.00  0.00     0.111 C 
ATOM      7  C13 <0> d           1.613  -5.614   4.632  0.00  0.00     0.076 C 
ENDROOT
BRANCH   1   8
ATOM      8  C9  <0> d           1.207  -3.754   2.907  0.00  0.00     0.268 C 
ATOM      9  N1  <0> d           1.471  -2.526   2.420  0.00  0.00    -0.351 N 
ATOM     10  H17 <0> d           2.131  -1.963   2.855  0.00  0.00     0.163 HD
ATOM     11  O1  <0> d           0.380  -4.460   2.362  0.00  0.00    -0.266 OA
BRANCH   9  12
ATOM     12  C6  <0> d           0.763  -2.041   1.233  0.00  0.00     0.088 C 
ATOM     13  C5  <0> d           1.479  -2.534  -0.026  0.00  0.00     0.025 C 
ATOM     14  C4  <0> d           0.739  -2.027  -1.265  0.00  0.00     0.002 C 
ATOM     15  C3  <0> d           0.718  -0.497  -1.257  0.00  0.00     0.005 C 
ATOM     16  C2  <0> d           0.002  -0.004   0.002  0.00  0.00    -0.013 C 
ATOM     17  C1  <0> d          -0.019   1.526   0.010  0.00  0.00     0.010 C 
ATOM     18  C7  <0> d           0.742  -0.511   1.242  0.00  0.00     0.008 C 
ATOM     19  C8  <0> d           0.026  -0.018   2.500  0.00  0.00     0.012 C 
ENDBRANCH   9  12
ENDBRANCH   1   8
BRANCH   3  20
ATOM     20  C14 <0> d           4.140  -2.927   6.679  0.00  0.00     0.128 C 
ATOM     21  C17 <0> d           5.201  -2.128   5.869  0.00  0.00     0.167 C 
ATOM     22  S1  <0> d           5.396  -0.643   6.943  0.00  0.00     0.146 S 
ATOM     23  C16 <0> d           3.804  -0.719   7.860  0.00  0.00     0.142 C 
ATOM     24  O3  <0> d           5.405   0.520   6.126  0.00  0.00    -0.228 OA
ATOM     25  O4  <0> d           6.465  -0.866   7.852  0.00  0.00    -0.228 OA
ATOM     26  C15 <0> d           3.095  -1.932   7.211  0.00  0.00     0.043 C 
ENDBRANCH   3  20
TORSDOF 3
