REMARK  3 active torsions:
REMARK  status: ('A' for Active; 'I' for Inactive)
REMARK    1  A    between atoms: C4_4  and  N3_18 
REMARK    2  A    between atoms: C7_7  and  O3_17 
REMARK    3  A    between atoms: N1_9  and  O1_10 
ROOT
ATOM      1  C1  <0> d          -0.842   0.964  -0.481  0.00  0.00     0.001 C 
ATOM      2  C2  <0> d           0.491   1.691  -0.651  0.00  0.00     0.004 C 
ATOM      3  C3  <0> d           1.344   1.526   0.591  0.00  0.00     0.068 C 
ATOM      4  C4  <0> d           1.401   0.154   1.163  0.00  0.00     0.266 C 
ATOM      5  C5  <0> d           0.187  -0.753   1.021  0.00  0.00     0.094 C 
ATOM      6  C6  <0> d          -0.555  -0.525  -0.296  0.00  0.00     0.013 C 
ATOM      7  C7  <0> d           0.846  -2.141   0.952  0.00  0.00     0.148 C 
ATOM      8  C8  <0> d           0.748  -2.920   2.244  0.00  0.00     0.080 C 
ATOM      9  N1  <0> d          -0.044  -2.579   3.190  0.00  0.00    -0.142 NA
ATOM     10  C9  <0> d           1.655  -4.136   2.342  0.00  0.00     0.061 C 
ATOM     11  C10 <0> d           3.115  -3.747   2.131  0.00  0.00     0.012 C 
ATOM     12  C11 <0> d           3.317  -3.019   0.792  0.00  0.00     0.059 C 
ATOM     13  C12 <0> d           2.335  -1.863   0.787  0.00  0.00     0.059 C 
ATOM     14  N2  <0> d           2.583  -0.624   0.815  0.00  0.00    -0.189 N 
ATOM     15  O2  <0> d           3.853  -0.061   0.541  0.00  0.00    -0.083 OA
ENDROOT
BRANCH   4  16
ATOM     16  N3  <0> d           1.521   0.357   2.613  0.00  0.00     0.124 N 
ATOM     17  C16 <0> d           2.744   1.104   2.941  0.00  0.00     0.302 C 
ATOM     18  C15 <0> d           2.860   1.240   4.462  0.00  0.00     0.198 C 
ATOM     19  O4  <0> d           1.684   1.877   4.969  0.00  0.00    -0.388 OA
ATOM     20  C14 <0> d           0.474   1.176   4.668  0.00  0.00     0.198 C 
ATOM     21  C13 <0> d           0.334   1.039   3.149  0.00  0.00     0.302 C 
ENDBRANCH   4  16
BRANCH   7  22
ATOM     22  O3  <0> d           0.338  -2.893  -0.152  0.00  0.00    -0.377 OA
ATOM     23  H17 <0> d           0.723  -3.776  -0.237  0.00  0.00     0.211 HD
ENDBRANCH   7  22
BRANCH   9  24
ATOM     24  O1  <0> d          -1.177  -1.778   2.910  0.00  0.00    -0.266 OA
ATOM     25  H10 <0> d          -1.715  -1.572   3.687  0.00  0.00     0.247 HD
ENDBRANCH   9  24
TORSDOF 3
