REMARK  4 active torsions:
REMARK  status: ('A' for Active; 'I' for Inactive)
REMARK       I    between atoms: N2_13  and  C11_14 
REMARK    1  A    between atoms: C11_14  and  C12_16 
REMARK    2  A    between atoms: C12_16  and  N3_17 
REMARK    3  A    between atoms: N4_20  and  S1_23 
REMARK    4  A    between atoms: S1_23  and  C17_26 
ROOT
ATOM      1  C1  <0> d          -0.019   1.526   0.010  0.00  0.00     0.033 C 
ATOM      2  C2  <0> d           0.002  -0.004   0.002  0.00  0.00     0.098 C 
ATOM      3  C3  <0> d           0.715  -0.496  -1.259  0.00  0.00     0.128 C 
ATOM      4  C4  <0> d           1.097  -1.944  -1.106  0.00  0.00     0.224 C 
ATOM      5  O1  <0> d           0.459  -2.800  -1.683  0.00  0.00    -0.273 OA
ATOM      6  N1  <0> d           2.146  -2.297  -0.332  0.00  0.00    -0.325 N 
ATOM      7  C5  <0> d           2.832  -1.333   0.416  0.00  0.00     0.061 A 
ATOM      8  C6  <0> d           4.214  -1.255   0.377  0.00  0.00     0.032 A 
ATOM      9  C7  <0> d           4.871  -0.309   1.143  0.00  0.00     0.002 A 
ATOM     10  C8  <0> d           4.154   0.557   1.947  0.00  0.00     0.002 A 
ATOM     11  C9  <0> d           2.773   0.492   1.984  0.00  0.00     0.032 A 
ATOM     12  C10 <0> d           2.107  -0.445   1.211  0.00  0.00     0.064 A 
ATOM     13  N2  <0> d           0.707  -0.488   1.190  0.00  0.00    -0.309 N 
ATOM     14  C11 <0> d           0.022  -0.966   2.248  0.00  0.00     0.253 C 
ATOM     15  O2  <0> d          -1.190  -0.998   2.221  0.00  0.00    -0.271 OA
ATOM     16  H7  <0> d           2.425  -3.225  -0.293  0.00  0.00     0.169 HD
ENDROOT
BRANCH  14  17
ATOM     17  C12 <0> d           0.762  -1.460   3.464  0.00  0.00     0.375 C 
BRANCH  17  18
ATOM     18  N3  <0> d          -0.203  -1.925   4.469  0.00  0.00     0.100 N 
ATOM     19  C16 <0> d           0.460  -2.192   5.753  0.00  0.00     0.293 C 
ATOM     20  C15 <0> d          -0.599  -2.498   6.817  0.00  0.00     0.165 C 
ATOM     21  N4  <0> d          -1.458  -3.585   6.323  0.00  0.00    -0.303 N 
ATOM     22  C14 <0> d          -2.049  -3.451   4.983  0.00  0.00     0.165 C 
ATOM     23  C13 <0> d          -0.933  -3.107   3.991  0.00  0.00     0.293 C 
BRANCH  21  24
ATOM     24  S1  <0> d          -1.751  -4.925   7.251  0.00  0.00     0.267 S 
ATOM     25  O3  <0> d          -1.548  -4.536   8.602  0.00  0.00    -0.200 OA
ATOM     26  O4  <0> d          -2.978  -5.476   6.793  0.00  0.00    -0.200 OA
BRANCH  24  27
ATOM     27  C17 <0> d          -0.498  -6.105   6.873  0.00  0.00     0.120 A 
ATOM     28  S2  <0> d          -0.495  -7.381   5.625  0.00  0.00    -0.088 SA
ATOM     29  C20 <0> d           1.122  -8.060   5.962  0.00  0.00     0.051 A 
ATOM     30  C19 <0> d           1.542  -7.285   6.992  0.00  0.00     0.009 A 
ATOM     31  C18 <0> d           0.712  -6.283   7.459  0.00  0.00     0.033 A 
ENDBRANCH  24  27
ENDBRANCH  21  24
ENDBRANCH  17  18
ENDBRANCH  14  17
TORSDOF 4
