REMARK  3 active torsions:
REMARK  status: ('A' for Active; 'I' for Inactive)
REMARK    1  A    between atoms: N1_2  and  C2_3 
REMARK    2  A    between atoms: N1_2  and  C4_7 
REMARK    3  A    between atoms: C2_3  and  C3_4 
ROOT
ATOM      1  C1  <0> d          -0.203   1.604   0.559  0.00  0.00     0.310 C 
ATOM      2  N1  <0> d          -0.035   0.201   0.155  0.00  0.00     0.096 N 
ENDROOT
BRANCH   2   3
ATOM      3  C2  <0> d           0.806  -0.526   1.115  0.00  0.00     0.341 C 
BRANCH   3   4
ATOM      4  C3  <0> d           2.247  -0.125   0.925  0.00  0.00     0.099 C 
ATOM      5  S1  <0> d           2.655   0.839  -0.283  0.00  0.00    -0.064 SA
ATOM      6  N2  <0> d           3.190  -0.578   1.774  0.00  0.00    -0.392 N 
ATOM      7  H7  <0> d           2.942  -1.163   2.507  0.00  0.00     0.156 HD
ATOM      8  H8  <0> d           4.117  -0.320   1.652  0.00  0.00     0.156 HD
ENDBRANCH   3   4
ENDBRANCH   2   3
BRANCH   2   9
ATOM      9  C4  <0> d          -1.337  -0.459  -0.009  0.00  0.00     0.237 C 
ATOM     10  C7  <0> d          -2.203   0.335  -1.029  0.00  0.00     0.176 C 
ATOM     11  S2  <0> d          -3.430  -0.955  -1.504  0.00  0.00     0.146 S 
ATOM     12  C6  <0> d          -2.486  -2.462  -1.034  0.00  0.00     0.142 C 
ATOM     13  O1  <0> d          -3.598  -0.936  -2.915  0.00  0.00    -0.228 OA
ATOM     14  O2  <0> d          -4.570  -0.842  -0.663  0.00  0.00    -0.228 OA
ATOM     15  C5  <0> d          -1.133  -1.880  -0.558  0.00  0.00     0.051 C 
ENDBRANCH   2   9
TORSDOF 3
