REMARK  7 active torsions:
REMARK  status: ('A' for Active; 'I' for Inactive)
REMARK    1  A    between atoms: C2_2  and  C3_3 
REMARK    2  A    between atoms: C2_2  and  N2_20 
REMARK    3  A    between atoms: C3_3  and  C4_4 
REMARK    4  A    between atoms: C3_3  and  C13_17 
REMARK    5  A    between atoms: C9_9  and  S1_10 
REMARK    6  A    between atoms: S1_10  and  N1_13 
REMARK    7  A    between atoms: N1_13  and  C10_14 
ROOT
ATOM      1  C4  <0> d           3.331  -1.605   0.070  0.00  0.00    -0.028 A 
ATOM      2  C5  <0> d           3.851  -0.338   0.260  0.00  0.00     0.009 A 
ATOM      3  C6  <0> d           5.197  -0.105   0.049  0.00  0.00     0.001 A 
ATOM      4  C7  <0> d           6.024  -1.139  -0.350  0.00  0.00     0.002 A 
ATOM      5  C8  <0> d           5.504  -2.406  -0.538  0.00  0.00     0.026 A 
ATOM      6  C9  <0> d           4.159  -2.640  -0.324  0.00  0.00     0.086 A 
ENDROOT
BRANCH   1   7
ATOM      7  C3  <0> d           1.863  -1.860   0.300  0.00  0.00     0.053 C 
BRANCH   7   8
ATOM      8  C2  <0> d           1.045  -1.112  -0.755  0.00  0.00     0.188 C 
ATOM      9  C1  <0> d           1.363   0.383  -0.681  0.00  0.00     0.040 C 
BRANCH   8  10
ATOM     10  N2  <0> d          -0.387  -1.321  -0.503  0.00  0.00    -0.075 N 
ATOM     11  H25 <0> d          -0.911  -1.093  -1.334  0.00  0.00     0.274 HD
ATOM     12  H26 <0> d          -0.547  -2.286  -0.258  0.00  0.00     0.274 HD
ATOM     13  H27 <0> d          -0.685  -0.727   0.257  0.00  0.00     0.274 HD
ENDBRANCH   8  10
ENDBRANCH   7   8
BRANCH   7  14
ATOM     14  C13 <0> d           1.472  -1.365   1.694  0.00  0.00    -0.012 C 
ATOM     15  C14 <0> d           0.208  -2.093   2.156  0.00  0.00     0.010 C 
ATOM     16  C15 <0> d           2.611  -1.650   2.674  0.00  0.00     0.010 C 
ENDBRANCH   7  14
ENDBRANCH   1   7
BRANCH   6  17
ATOM     17  S1  <0> d           3.497  -4.256  -0.557  0.00  0.00     0.259 S 
ATOM     18  O1  <0> d           4.574  -5.077  -0.990  0.00  0.00    -0.201 OA
ATOM     19  O2  <0> d           2.731  -4.553   0.602  0.00  0.00    -0.201 OA
BRANCH  17  20
ATOM     20  N1  <0> d           2.431  -4.171  -1.821  0.00  0.00    -0.311 N 
ATOM     21  H10 <0> d           1.484  -4.313  -1.667  0.00  0.00     0.172 HD
BRANCH  20  22
ATOM     22  C10 <0> d           2.917  -3.880  -3.172  0.00  0.00     0.085 C 
ATOM     23  C11 <0> d           3.137  -5.192  -3.928  0.00  0.00     0.032 C 
ATOM     24  C12 <0> d           1.883  -3.031  -3.915  0.00  0.00     0.032 C 
ENDBRANCH  20  22
ENDBRANCH  17  20
ENDBRANCH   6  17
TORSDOF 7
