REMARK  6 active torsions:
REMARK  status: ('A' for Active; 'I' for Inactive)
REMARK    1  A    between atoms: C2_2  and  N1_3 
REMARK    2  A    between atoms: C7_8  and  C15_19 
REMARK    3  A    between atoms: C7_8  and  C16_21 
REMARK    4  A    between atoms: C8_10  and  C9_11 
REMARK    5  A    between atoms: C13_16  and  O1_17 
REMARK    6  A    between atoms: C15_19  and  O2_20 
ROOT
ATOM      1  N1  <0> d           0.840  -0.496  -0.783  0.00  0.00    -0.070 N 
ATOM      2  C3  <0> d           2.298  -0.216  -0.780  0.00  0.00     0.242 C 
ATOM      3  C4  <0> d           2.843  -1.129  -1.903  0.00  0.00     0.058 C 
ATOM      4  C5  <0> d           1.968  -2.409  -1.768  0.00  0.00     0.065 C 
ATOM      5  C6  <0> d           0.710  -1.951  -1.009  0.00  0.00     0.243 C 
ATOM      6  C7  <0> d           2.786  -3.361  -0.879  0.00  0.00     0.211 C 
ATOM      7  N2  <0> d           3.997  -2.627  -0.452  0.00  0.00     0.110 N 
ATOM      8  C8  <0> d           4.262  -1.602  -1.511  0.00  0.00     0.265 C 
ATOM      9  H13 <0> d           3.853  -2.180   0.441  0.00  0.00     0.318 HD
ATOM     10  H28 <0> d           0.389   0.014  -1.528  0.00  0.00     0.279 HD
ENDROOT
BRANCH   6  11
ATOM     11  C15 <0> d           1.964  -3.765   0.347  0.00  0.00     0.211 C 
BRANCH  11  12
ATOM     12  O2  <0> d           0.754  -4.395  -0.079  0.00  0.00    -0.398 OA
ATOM     13  H22 <0> d           0.181  -4.678   0.647  0.00  0.00     0.209 HD
ENDBRANCH  11  12
ENDBRANCH   6  11
BRANCH   6  14
ATOM     14  C16 <0> d           3.179  -4.586  -1.664  0.00  0.00    -0.017 A 
ATOM     15  C21 <0> d           4.352  -5.253  -1.363  0.00  0.00     0.010 A 
ATOM     16  C20 <0> d           4.710  -6.379  -2.081  0.00  0.00     0.001 A 
ATOM     17  C19 <0> d           3.900  -6.833  -3.104  0.00  0.00     0.000 A 
ATOM     18  C18 <0> d           2.729  -6.163  -3.408  0.00  0.00     0.001 A 
ATOM     19  C17 <0> d           2.369  -5.039  -2.688  0.00  0.00     0.010 A 
ENDBRANCH   6  14
BRANCH   8  20
ATOM     20  C9  <0> d           5.079  -0.450  -0.988  0.00  0.00     0.028 A 
ATOM     21  C13 <0> d           5.686   0.439  -1.866  0.00  0.00     0.172 A 
ATOM     22  N3  <0> d           6.399   1.456  -1.411  0.00  0.00    -0.237 NA
ATOM     23  C12 <0> d           6.571   1.657  -0.118  0.00  0.00     0.119 A 
ATOM     24  C11 <0> d           6.001   0.810   0.812  0.00  0.00     0.020 A 
ATOM     25  C10 <0> d           5.240  -0.265   0.374  0.00  0.00     0.015 A 
BRANCH  21  26
ATOM     26  O1  <0> d           5.541   0.266  -3.204  0.00  0.00    -0.339 OA
ATOM     27  C14 <0> d           6.189   1.214  -4.055  0.00  0.00     0.211 C 
ENDBRANCH  21  26
ENDBRANCH   8  20
BRANCH   1  28
ATOM     28  C2  <0> d           0.251  -0.129   0.511  0.00  0.00     0.230 C 
ATOM     29  C1  <0> d           0.282   1.392   0.674  0.00  0.00     0.034 C 
ENDBRANCH   1  28
TORSDOF 6
