REMARK  5 active torsions:
REMARK  status: ('A' for Active; 'I' for Inactive)
REMARK    1  A    between atoms: C2_2  and  O1_3 
REMARK    2  A    between atoms: O1_3  and  C3_4 
REMARK    3  A    between atoms: C3_4  and  C4_6 
REMARK    4  A    between atoms: C7_10  and  N1_11 
REMARK       I    between atoms: N1_11  and  C8_12 
REMARK    5  A    between atoms: C8_12  and  C9_14 
ROOT
ATOM      1  C4  <0> d           1.497  -2.371   2.467  0.00  0.00     0.080 A 
ATOM      2  C5  <0> d           0.805  -2.676   3.699  0.00  0.00    -0.021 A 
ATOM      3  C6  <0> d           1.595  -3.178   4.679  0.00  0.00     0.027 A 
ATOM      4  S1  <0> d           3.205  -3.248   3.953  0.00  0.00    -0.073 SA
ATOM      5  C7  <0> d           2.862  -2.627   2.431  0.00  0.00     0.094 A 
ATOM      6  C18 <0> d           1.162  -3.559   6.055  0.00  0.00     0.153 C 
ATOM      7  N2  <0> d          -0.292  -3.537   6.206  0.00  0.00    -0.054 N 
ATOM      8  C19 <0> d          -1.077  -3.598   4.981  0.00  0.00     0.124 C 
ATOM      9  C20 <0> d          -0.678  -2.501   3.986  0.00  0.00     0.079 C 
ATOM     10  C21 <0> d          -0.944  -4.967   4.309  0.00  0.00     0.046 C 
ATOM     11  C22 <0> d          -2.559  -3.391   5.342  0.00  0.00     0.046 C 
ATOM     12  C23 <0> d           1.711  -4.951   6.397  0.00  0.00     0.052 C 
ATOM     13  C24 <0> d           1.775  -2.553   7.049  0.00  0.00     0.052 C 
ATOM     14  H12 <0> d          -0.568  -4.315   6.808  0.00  0.00     0.279 HD
ATOM     15  H27 <0> d          -0.552  -2.691   6.716  0.00  0.00     0.279 HD
ENDROOT
BRANCH   5  16
ATOM     16  N1  <0> d           3.738  -2.416   1.381  0.00  0.00    -0.315 N 
ATOM     17  C8  <0> d           5.043  -2.724   1.520  0.00  0.00     0.280 C 
ATOM     18  O3  <0> d           5.450  -3.186   2.567  0.00  0.00    -0.265 OA
ATOM     19  H6  <0> d           3.413  -2.047   0.545  0.00  0.00     0.170 HD
BRANCH  17  20
ATOM     20  C9  <0> d           5.980  -2.498   0.395  0.00  0.00     0.147 C 
ATOM     21  O5  <0> d           5.502  -1.986  -0.747  0.00  0.00    -0.304 OA
ATOM     22  C17 <0> d           6.318  -1.470  -1.687  0.00  0.00     0.090 A 
ATOM     23  C12 <0> d           7.697  -1.741  -1.654  0.00  0.00     0.048 A 
ATOM     24  C16 <0> d           5.812  -0.674  -2.709  0.00  0.00     0.038 A 
ATOM     25  C11 <0> d           8.214  -2.579  -0.554  0.00  0.00     0.187 C 
ATOM     26  C13 <0> d           8.540  -1.226  -2.637  0.00  0.00     0.018 A 
ATOM     27  C10 <0> d           7.286  -2.822   0.564  0.00  0.00     0.098 C 
ATOM     28  O4  <0> d           9.341  -3.042  -0.570  0.00  0.00    -0.287 OA
ATOM     29  C14 <0> d           8.020  -0.449  -3.635  0.00  0.00     0.001 A 
ATOM     30  C15 <0> d           6.661  -0.172  -3.671  0.00  0.00     0.003 A 
ENDBRANCH  17  20
ENDBRANCH   5  16
BRANCH   1  31
ATOM     31  C3  <0> d           0.801  -1.814   1.305  0.00  0.00     0.296 C 
ATOM     32  O2  <0> d           0.321  -2.557   0.470  0.00  0.00    -0.259 OA
BRANCH  31  33
ATOM     33  O1  <0> d           0.693  -0.477   1.160  0.00  0.00    -0.318 OA
BRANCH  33  34
ATOM     34  C2  <0> d           0.002  -0.004   0.002  0.00  0.00     0.174 C 
ATOM     35  C1  <0> d          -0.019   1.526   0.010  0.00  0.00     0.034 C 
ENDBRANCH  33  34
ENDBRANCH  31  33
ENDBRANCH   1  31
TORSDOF 5
