REMARK  4 active torsions:
REMARK  status: ('A' for Active; 'I' for Inactive)
REMARK    1  A    between atoms: C5_5  and  S1_20 
REMARK    2  A    between atoms: C7_7  and  C8_8 
REMARK       I    between atoms: C8_8  and  N1_10 
REMARK    3  A    between atoms: N1_10  and  N2_11 
REMARK    4  A    between atoms: S1_20  and  N4_23 
ROOT
ATOM      1  C1  <0> d           6.146   7.246  -0.234  0.00  0.00     0.049 C 
ATOM      2  C2  <0> d           6.691   5.845  -0.133  0.00  0.00    -0.046 A 
ATOM      3  C3  <0> d           8.026   5.603  -0.384  0.00  0.00     0.009 A 
ATOM      4  C4  <0> d           8.528   4.317  -0.291  0.00  0.00     0.026 A 
ATOM      5  C5  <0> d           7.696   3.266   0.053  0.00  0.00     0.080 A 
ATOM      6  C6  <0> d           6.361   3.495   0.312  0.00  0.00     0.042 A 
ATOM      7  C7  <0> d           5.847   4.789   0.215  0.00  0.00     0.041 A 
ENDROOT
BRANCH   7   8
ATOM      8  C8  <0> d           4.415   5.042   0.485  0.00  0.00     0.271 C 
ATOM      9  O1  <0> d           3.993   6.181   0.511  0.00  0.00    -0.266 OA
ATOM     10  N1  <0> d           3.578   4.008   0.702  0.00  0.00    -0.258 N 
ATOM     11  H7  <0> d           3.915   3.099   0.681  0.00  0.00     0.191 HD
BRANCH  10  12
ATOM     12  N2  <0> d           2.221   4.247   0.958  0.00  0.00    -0.245 N 
ATOM     13  C11 <0> d           1.253   3.292   1.197  0.00  0.00     0.086 A 
ATOM     14  C10 <0> d           0.055   3.998   1.399  0.00  0.00     0.086 A 
ATOM     15  C12 <0> d           1.259   1.906   1.265  0.00  0.00     0.034 A 
ATOM     16  N3  <0> d           0.347   5.318   1.276  0.00  0.00    -0.240 NA
ATOM     17  C15 <0> d          -1.121   3.292   1.667  0.00  0.00     0.034 A 
ATOM     18  C9  <0> d           1.614   5.463   1.018  0.00  0.00     0.233 A 
ATOM     19  C14 <0> d          -1.098   1.927   1.725  0.00  0.00     0.002 A 
ATOM     20  C13 <0> d           0.086   1.231   1.531  0.00  0.00     0.002 A 
ENDBRANCH  10  12
ENDBRANCH   7   8
BRANCH   5  21
ATOM     21  S1  <0> d           8.346   1.632   0.168  0.00  0.00     0.260 S 
ATOM     22  O2  <0> d           7.253   0.746  -0.027  0.00  0.00    -0.200 OA
ATOM     23  O3  <0> d           9.509   1.599  -0.648  0.00  0.00    -0.200 OA
BRANCH  21  24
ATOM     24  N4  <0> d           8.857   1.417   1.729  0.00  0.00    -0.315 N 
ATOM     25  C16 <0> d           7.934   0.888   2.736  0.00  0.00     0.162 C 
ATOM     26  C17 <0> d          10.233   1.757   2.102  0.00  0.00     0.162 C 
ENDBRANCH  21  24
ENDBRANCH   5  21
TORSDOF 4
