REMARK  2 active torsions:
REMARK  status: ('A' for Active; 'I' for Inactive)
REMARK    1  A    between atoms: C6_7  and  C12_14 
REMARK    2  A    between atoms: N4_18  and  C16_21 
ROOT
ATOM      1  C12 <0> d           3.239  -2.613   2.586  0.00  0.00     0.100 A 
ATOM      2  C13 <0> d           2.200  -1.732   2.616  0.00  0.00     0.197 A 
ATOM      3  N3  <0> d           2.187  -0.735   3.559  0.00  0.00    -0.285 N 
ATOM      4  C14 <0> d           3.191  -0.624   4.448  0.00  0.00     0.336 A 
ATOM      5  N4  <0> d           4.226  -1.484   4.434  0.00  0.00    -0.230 N 
ATOM      6  C15 <0> d           4.274  -2.482   3.529  0.00  0.00     0.269 A 
ATOM      7  O1  <0> d           5.212  -3.261   3.524  0.00  0.00    -0.267 OA
ATOM      8  O2  <0> d           3.163   0.266   5.276  0.00  0.00    -0.246 OA
ATOM      9  O3  <0> d           1.191  -1.839   1.726  0.00  0.00    -0.171 OA
ATOM     10  H16 <0> d           1.450  -0.105   3.584  0.00  0.00     0.172 HD
ENDROOT
BRANCH   1  11
ATOM     11  C6  <0> d           3.276  -3.717   1.561  0.00  0.00     0.289 C 
ATOM     12  C5  <0> d           3.148  -3.122   0.157  0.00  0.00     0.150 C 
ATOM     13  N1  <0> d           4.048  -1.994  -0.059  0.00  0.00    -0.378 N 
ATOM     14  C9  <0> d           1.746  -2.544   0.041  0.00  0.00    -0.041 C 
ATOM     15  C4  <0> d           3.333  -0.957  -0.436  0.00  0.00     0.039 A 
ATOM     16  H17 <0> d           5.011  -2.007   0.056  0.00  0.00     0.160 HD
ATOM     17  C3  <0> d           3.709   0.353  -0.839  0.00  0.00     0.030 A 
ATOM     18  C10 <0> d           1.885  -1.278  -0.370  0.00  0.00    -0.005 A 
ATOM     19  C2  <0> d           2.769   1.267  -1.159  0.00  0.00     0.002 A 
ATOM     20  C1  <0> d           1.397   0.987  -1.114  0.00  0.00     0.001 A 
ATOM     21  C11 <0> d           0.930  -0.225  -0.740  0.00  0.00     0.014 A 
ATOM     22  C8  <0> d           0.523  -3.323   0.471  0.00  0.00     0.067 C 
ATOM     23  C7  <0> d           0.850  -3.953   1.838  0.00  0.00     0.275 C 
ATOM     24  N2  <0> d           2.146  -4.635   1.780  0.00  0.00     0.095 N 
ATOM     25  H6  <0> d           2.138  -5.369   1.088  0.00  0.00     0.316 HD
ENDBRANCH   1  11
BRANCH   5  26
ATOM     26  C16 <0> d           5.259  -1.345   5.372  0.00  0.00     0.047 A 
ATOM     27  C21 <0> d           5.178  -1.994   6.596  0.00  0.00     0.032 A 
ATOM     28  C20 <0> d           6.200  -1.861   7.516  0.00  0.00     0.026 A 
ATOM     29  C19 <0> d           7.298  -1.071   7.222  0.00  0.00     0.034 A 
ATOM     30  C18 <0> d           7.377  -0.418   6.005  0.00  0.00     0.026 A 
ATOM     31 Cl1  <0> d           8.577  -0.899   8.383  0.00  0.00    -0.084 Cl
ATOM     32  C17 <0> d           6.361  -0.553   5.079  0.00  0.00     0.032 A 
ENDBRANCH   5  26
TORSDOF 2
