REMARK  5 active torsions:
REMARK  status: ('A' for Active; 'I' for Inactive)
REMARK    1  A    between atoms: C3_3  and  O3_24 
REMARK    2  A    between atoms: C6_6  and  C7_7 
REMARK       I    between atoms: C7_7  and  N1_9 
REMARK    3  A    between atoms: N1_9  and  N2_10 
REMARK    4  A    between atoms: N2_10  and  C8_11 
REMARK       I    between atoms: N3_13  and  C9_14 
REMARK    5  A    between atoms: C9_14  and  C10_16 
ROOT
ATOM      1  N2  <0> d           2.366   1.217  -0.014  0.00  0.00    -0.273 N 
ATOM      2  H6  <0> d           2.379   0.247  -0.019  0.00  0.00     0.189 HD
ENDROOT
BRANCH   1   3
ATOM      3  N1  <0> d           1.143   1.901   0.001  0.00  0.00    -0.264 N 
ATOM      4  C7  <0> d          -0.014   1.212   0.009  0.00  0.00     0.270 C 
ATOM      5  O1  <0> d           0.002  -0.004   0.002  0.00  0.00    -0.266 OA
ATOM      6  H5  <0> d           1.130   2.871   0.007  0.00  0.00     0.190 HD
BRANCH   4   7
ATOM      7  C6  <0> d          -1.303   1.932   0.019  0.00  0.00     0.033 A 
ATOM      8  C1  <0> d          -1.324   3.329   0.032  0.00  0.00     0.020 A 
ATOM      9  C2  <0> d          -2.527   3.998   0.036  0.00  0.00     0.037 A 
ATOM     10  C3  <0> d          -3.721   3.285   0.038  0.00  0.00     0.065 A 
ATOM     11  C4  <0> d          -3.704   1.895   0.030  0.00  0.00     0.037 A 
ATOM     12  C5  <0> d          -2.504   1.219   0.021  0.00  0.00     0.020 A 
BRANCH  10  13
ATOM     13  O3  <0> d          -4.905   3.947   0.048  0.00  0.00    -0.361 OA
ATOM     14  H11 <0> d          -5.244   4.134   0.934  0.00  0.00     0.217 HD
ENDBRANCH  10  13
ENDBRANCH   4   7
ENDBRANCH   1   3
BRANCH   1  15
ATOM     15  C8  <0> d           3.524   1.907  -0.021  0.00  0.00     0.193 C 
ATOM     16  S1  <0> d           5.018   1.071  -0.040  0.00  0.00    -0.039 SA
ATOM     17  N3  <0> d           3.506   3.255  -0.014  0.00  0.00    -0.298 N 
ATOM     18  C9  <0> d           4.664   3.945  -0.021  0.00  0.00     0.259 C 
ATOM     19  H7  <0> d           2.659   3.728  -0.003  0.00  0.00     0.171 HD
ATOM     20  O2  <0> d           5.724   3.351  -0.035  0.00  0.00    -0.267 OA
BRANCH  18  21
ATOM     21  C10 <0> d           4.644   5.421  -0.013  0.00  0.00     0.054 A 
ATOM     22  C15 <0> d           5.843   6.139  -0.015  0.00  0.00     0.051 A 
ATOM     23  C14 <0> d           5.816   7.519  -0.013  0.00  0.00     0.048 A 
ATOM     24 Cl1  <0> d           7.361   5.298  -0.027  0.00  0.00    -0.083 Cl
ATOM     25  C13 <0> d           4.606   8.191   0.002  0.00  0.00     0.035 A 
ATOM     26  C12 <0> d           3.414   7.484   0.010  0.00  0.00     0.025 A 
ATOM     27 Cl2  <0> d           4.581   9.927   0.013  0.00  0.00    -0.084 Cl
ATOM     28  C11 <0> d           3.426   6.106   0.002  0.00  0.00     0.020 A 
ENDBRANCH  18  21
ENDBRANCH   1  15
TORSDOF 5
