REMARK  4 active torsions:
REMARK  status: ('A' for Active; 'I' for Inactive)
REMARK    1  A    between atoms: C2_2  and  C5_5 
REMARK    2  A    between atoms: C5_5  and  N1_6 
REMARK    3  A    between atoms: N1_6  and  C6_7 
REMARK    4  A    between atoms: C9_13  and  O3_14 
ROOT
ATOM      1  C6  <0> d           2.784  -0.463  -2.476  0.00  0.00     0.229 C 
ATOM      2  C7  <0> d           2.111   0.163  -3.729  0.00  0.00     0.176 C 
ATOM      3  S1  <0> d           3.480  -0.048  -4.951  0.00  0.00     0.149 S 
ATOM      4  O1  <0> d           3.464  -1.380  -5.445  0.00  0.00    -0.228 OA
ATOM      5  O2  <0> d           3.462   1.041  -5.864  0.00  0.00    -0.228 OA
ATOM      6  C8  <0> d           4.898   0.153  -3.794  0.00  0.00     0.174 C 
ATOM      7  C9  <0> d           4.256  -0.060  -2.410  0.00  0.00     0.163 C 
ENDROOT
BRANCH   1   8
ATOM      8  N1  <0> d           2.096   0.011  -1.267  0.00  0.00    -0.067 N 
ATOM      9  H14 <0> d           2.083   1.020  -1.262  0.00  0.00     0.277 HD
ATOM     10  H20 <0> d           2.584  -0.323  -0.450  0.00  0.00     0.277 HD
BRANCH   8  11
ATOM     11  C5  <0> d           0.718  -0.497  -1.257  0.00  0.00     0.241 C 
BRANCH  11  12
ATOM     12  C2  <0> d           0.002  -0.004   0.002  0.00  0.00    -0.028 C 
ATOM     13  C1  <0> d          -0.019   1.526   0.010  0.00  0.00     0.016 C 
ATOM     14  C3  <0> d           0.742  -0.511   1.242  0.00  0.00     0.016 C 
ATOM     15  C4  <0> d          -1.433  -0.534   0.013  0.00  0.00     0.016 C 
ENDBRANCH  11  12
ENDBRANCH   8  11
ENDBRANCH   1   8
BRANCH   7  16
ATOM     16  O3  <0> d           4.367   1.152  -1.662  0.00  0.00    -0.393 OA
ATOM     17  H19 <0> d           5.273   1.478  -1.572  0.00  0.00     0.210 HD
ENDBRANCH   7  16
TORSDOF 4
