REMARK  8 active torsions:
REMARK  status: ('A' for Active; 'I' for Inactive)
REMARK    1  A    between atoms: C2_2  and  C3_3 
REMARK    2  A    between atoms: C3_3  and  C4_4 
REMARK    3  A    between atoms: C4_4  and  C5_5 
REMARK    4  A    between atoms: C5_5  and  C6_6 
REMARK    5  A    between atoms: C6_6  and  C7_7 
REMARK       I    between atoms: C7_7  and  N1_9 
REMARK    6  A    between atoms: C13_15  and  C15_18 
REMARK       I    between atoms: C15_18  and  N2_20 
REMARK    7  A    between atoms: N2_20  and  C16_21 
REMARK    8  A    between atoms: C16_21  and  C18_23 
ROOT
ATOM      1  C7  <0> d           0.000   1.080   2.488  0.00  0.00     0.219 C 
ATOM      2  O1  <0> d           0.994   0.397   2.363  0.00  0.00    -0.273 OA
ATOM      3  N1  <0> d          -0.453   1.393   3.718  0.00  0.00    -0.352 N 
ATOM      4  C8  <0> d          -1.653   2.224   3.883  0.00  0.00     0.129 C 
ATOM      5  C9  <0> d          -1.312   3.416   4.778  0.00  0.00     0.070 C 
ATOM      6  C10 <0> d          -0.685   2.917   6.073  0.00  0.00     0.177 C 
ATOM      7  C11 <0> d           0.581   2.116   5.806  0.00  0.00     0.070 C 
ATOM      8  C12 <0> d           0.248   0.913   4.917  0.00  0.00     0.129 C 
ATOM      9  C13 <0> d          -1.888   2.612   8.230  0.00  0.00     0.288 C 
ATOM     10  C14 <0> d          -1.728   4.159   8.312  0.00  0.00     0.119 C 
ATOM     11  S1  <0> d          -0.293   4.347   7.158  0.00  0.00    -0.128 SA
ATOM     12  N3  <0> d          -1.672   2.100   6.846  0.00  0.00    -0.043 N 
ATOM     13  H35 <0> d          -1.325   1.135   6.904  0.00  0.00     0.280 HD
ATOM     14  H36 <0> d          -2.570   2.112   6.349  0.00  0.00     0.280 HD
ENDROOT
BRANCH   9  15
ATOM     15  C15 <0> d          -3.285   2.235   8.651  0.00  0.00     0.249 C 
ATOM     16  O2  <0> d          -4.007   1.631   7.887  0.00  0.00    -0.271 OA
ATOM     17  N2  <0> d          -3.732   2.570   9.878  0.00  0.00    -0.355 N 
ATOM     18  H26 <0> d          -3.155   3.053  10.489  0.00  0.00     0.162 HD
BRANCH  17  19
ATOM     19  C16 <0> d          -5.090   2.203  10.288  0.00  0.00     0.080 C 
ATOM     20  C17 <0> d          -5.089   0.776  10.838  0.00  0.00     0.032 C 
BRANCH  19  21
ATOM     21  C18 <0> d          -5.573   3.168  11.373  0.00  0.00     0.020 C 
ATOM     22  C19 <0> d          -5.693   4.576  10.786  0.00  0.00     0.007 C 
ENDBRANCH  19  21
ENDBRANCH  17  19
ENDBRANCH   9  15
BRANCH   1  23
ATOM     23  C6  <0> d          -0.729   1.579   1.267  0.00  0.00     0.103 C 
BRANCH  23  24
ATOM     24  C5  <0> d          -0.013   1.086   0.008  0.00  0.00     0.009 C 
BRANCH  24  25
ATOM     25  C4  <0> d          -0.753   1.593  -1.232  0.00  0.00     0.000 C 
BRANCH  25  26
ATOM     26  C3  <0> d          -0.037   1.099  -2.490  0.00  0.00    -0.000 C 
BRANCH  26  27
ATOM     27  C2  <0> d          -0.777   1.606  -3.730  0.00  0.00    -0.005 C 
ATOM     28  C1  <0> d          -0.060   1.113  -4.989  0.00  0.00     0.005 C 
ENDBRANCH  26  27
ENDBRANCH  25  26
ENDBRANCH  24  25
ENDBRANCH  23  24
ENDBRANCH   1  23
TORSDOF 8
