REMARK  6 active torsions:
REMARK  status: ('A' for Active; 'I' for Inactive)
REMARK    1  A    between atoms: C2_2  and  N1_5 
REMARK       I    between atoms: N1_5  and  C5_6 
REMARK    2  A    between atoms: C5_6  and  C6_8 
REMARK    3  A    between atoms: C9_11  and  C12_14 
REMARK    4  A    between atoms: C12_14  and  O3_16 
REMARK    5  A    between atoms: O3_16  and  C13_17 
REMARK    6  A    between atoms: C17_21  and  C19_23 
REMARK       I    between atoms: C19_23  and  N2_25 
ROOT
ATOM      1  C6  <0> d           2.686  -0.634  -2.619  0.00  0.00     0.032 A 
ATOM      2  C7  <0> d           2.018  -1.469  -3.517  0.00  0.00     0.018 A 
ATOM      3  C8  <0> d           2.660  -1.915  -4.652  0.00  0.00     0.018 A 
ATOM      4  C9  <0> d           3.978  -1.532  -4.904  0.00  0.00     0.040 A 
ATOM      5  C10 <0> d           4.646  -0.697  -4.007  0.00  0.00     0.018 A 
ATOM      6  C11 <0> d           4.002  -0.247  -2.874  0.00  0.00     0.018 A 
ENDROOT
BRANCH   4   7
ATOM      7  C12 <0> d           4.667  -2.011  -6.122  0.00  0.00     0.298 C 
ATOM      8  O2  <0> d           4.086  -2.737  -6.903  0.00  0.00    -0.259 OA
BRANCH   7   9
ATOM      9  O3  <0> d           5.939  -1.641  -6.366  0.00  0.00    -0.275 OA
BRANCH   9  10
ATOM     10  C13 <0> d           6.567  -2.184  -7.441  0.00  0.00     0.080 A 
ATOM     11  C18 <0> d           7.494  -3.197  -7.263  0.00  0.00     0.054 A 
ATOM     12  C17 <0> d           8.132  -3.756  -8.370  0.00  0.00     0.034 A 
ATOM     13  C16 <0> d           7.840  -3.283  -9.650  0.00  0.00     0.017 A 
ATOM     14  C15 <0> d           6.919  -2.269  -9.817  0.00  0.00     0.004 A 
ATOM     15  C14 <0> d           6.283  -1.720  -8.719  0.00  0.00     0.037 A 
BRANCH  12  16
ATOM     16  C19 <0> d           9.118  -4.843  -8.188  0.00  0.00     0.251 C 
ATOM     17  O4  <0> d           9.371  -5.253  -7.072  0.00  0.00    -0.268 OA
ATOM     18  N2  <0> d           9.737  -5.378  -9.259  0.00  0.00    -0.361 N 
ATOM     19  C20 <0> d          10.714  -6.455  -9.079  0.00  0.00     0.149 C 
ATOM     20  H19 <0> d           9.535  -5.051 -10.150  0.00  0.00     0.162 HD
ENDBRANCH  12  16
ENDBRANCH   9  10
ENDBRANCH   7   9
ENDBRANCH   4   7
BRANCH   1  21
ATOM     21  C5  <0> d           1.996  -0.155  -1.400  0.00  0.00     0.252 C 
ATOM     22  N1  <0> d           0.725  -0.530  -1.154  0.00  0.00    -0.349 N 
ATOM     23  H10 <0> d           0.262  -1.113  -1.776  0.00  0.00     0.163 HD
ATOM     24  O1  <0> d           2.576   0.576  -0.622  0.00  0.00    -0.268 OA
BRANCH  22  25
ATOM     25  C2  <0> d           0.042  -0.055   0.052  0.00  0.00     0.022 C 
ATOM     26  C1  <0> d          -0.019   1.473   0.036  0.00  0.00     0.037 C 
ATOM     27  C3  <0> d           0.811  -0.521   1.290  0.00  0.00     0.037 C 
ATOM     28  C4  <0> d          -1.378  -0.623   0.091  0.00  0.00     0.037 C 
ENDBRANCH  22  25
ENDBRANCH   1  21
TORSDOF 6
