REMARK  7 active torsions:
REMARK  status: ('A' for Active; 'I' for Inactive)
REMARK    1  A    between atoms: C2_2  and  C4_4 
REMARK       I    between atoms: C4_4  and  N1_6 
REMARK    2  A    between atoms: N1_6  and  C5_7 
REMARK    3  A    between atoms: C9_11  and  N2_13 
REMARK       I    between atoms: N2_13  and  C11_14 
REMARK    4  A    between atoms: C11_14  and  C12_16 
REMARK       I    between atoms: C12_16  and  N3_18 
REMARK    5  A    between atoms: N3_18  and  C13_19 
REMARK    6  A    between atoms: C13_19  and  C14_20 
REMARK    7  A    between atoms: C18_25  and  N5_26 
ROOT
ATOM      1  N2  <0> d          -6.785  -0.335  -2.743  0.00  0.00    -0.319 N 
ATOM      2  C11 <0> d          -8.076  -0.699  -2.615  0.00  0.00     0.313 C 
ATOM      3  O2  <0> d          -8.454  -1.248  -1.601  0.00  0.00    -0.262 OA
ATOM      4  H13 <0> d          -6.467   0.041  -3.579  0.00  0.00     0.169 HD
ENDROOT
BRANCH   2   5
ATOM      5  C12 <0> d          -9.042  -0.425  -3.721  0.00  0.00     0.309 C 
ATOM      6  O3  <0> d          -8.663   0.124  -4.735  0.00  0.00    -0.262 OA
ATOM      7  N3  <0> d         -10.333  -0.789  -3.594  0.00  0.00    -0.349 N 
ATOM      8  H14 <0> d         -10.636  -1.228  -2.783  0.00  0.00     0.163 HD
BRANCH   7   9
ATOM      9  C13 <0> d         -11.280  -0.521  -4.679  0.00  0.00     0.165 C 
BRANCH   9  10
ATOM     10  C14 <0> d         -12.647  -1.021  -4.287  0.00  0.00     0.004 A 
ATOM     11  C18 <0> d         -13.456  -0.272  -3.440  0.00  0.00     0.110 A 
ATOM     12  N4  <0> d         -14.660  -0.707  -3.099  0.00  0.00    -0.352 N 
ATOM     13  C17 <0> d         -15.128  -1.860  -3.537  0.00  0.00     0.089 A 
ATOM     14  H26 <0> d         -15.209  -0.166  -2.511  0.00  0.00     0.166 HD
ATOM     15  C16 <0> d         -14.376  -2.657  -4.376  0.00  0.00     0.018 A 
ATOM     16  C15 <0> d         -13.111  -2.235  -4.762  0.00  0.00     0.014 A 
BRANCH  11  17
ATOM     17  N5  <0> d         -13.000   0.946  -2.951  0.00  0.00    -0.376 N 
ATOM     18  C19 <0> d         -13.348   2.190  -3.643  0.00  0.00     0.150 C 
ATOM     19  C20 <0> d         -12.171   0.987  -1.743  0.00  0.00     0.150 C 
ENDBRANCH  11  17
ENDBRANCH   9  10
ENDBRANCH   7   9
ENDBRANCH   2   5
BRANCH   1  20
ATOM     20  C9  <0> d          -5.903  -0.501  -1.672  0.00  0.00     0.037 A 
ATOM     21  C8  <0> d          -6.035  -1.594  -0.825  0.00  0.00     0.029 A 
ATOM     22  C7  <0> d          -5.163  -1.759   0.234  0.00  0.00     0.004 A 
ATOM     23  C6  <0> d          -4.157  -0.837   0.455  0.00  0.00     0.029 A 
ATOM     24  C5  <0> d          -4.020   0.258  -0.389  0.00  0.00     0.036 A 
ATOM     25  C10 <0> d          -4.897   0.430  -1.449  0.00  0.00     0.059 A 
BRANCH  24  26
ATOM     26  N1  <0> d          -3.001   1.191  -0.165  0.00  0.00    -0.327 N 
ATOM     27  C4  <0> d          -3.217   2.498  -0.411  0.00  0.00     0.225 C 
ATOM     28  O1  <0> d          -4.265   2.856  -0.907  0.00  0.00    -0.273 OA
ATOM     29  H8  <0> d          -2.139   0.896   0.168  0.00  0.00     0.169 HD
BRANCH  27  30
ATOM     30  C2  <0> d          -2.158   3.515  -0.070  0.00  0.00     0.070 C 
ATOM     31  C1  <0> d          -0.879   3.199  -0.848  0.00  0.00     0.019 C 
ATOM     32  C3  <0> d          -2.653   4.912  -0.448  0.00  0.00     0.019 C 
ENDBRANCH  27  30
ENDBRANCH  24  26
ENDBRANCH   1  20
TORSDOF 7
