REMARK  6 active torsions:
REMARK  status: ('A' for Active; 'I' for Inactive)
REMARK    1  A    between atoms: C5_6  and  N2_8 
REMARK    2  A    between atoms: N2_8  and  C8_10 
REMARK    3  A    between atoms: C8_10  and  C9_11 
REMARK    4  A    between atoms: C13_15  and  C15_17 
REMARK    5  A    between atoms: C15_17  and  N4_20 
REMARK    6  A    between atoms: N3_18  and  O1_19 
ROOT
ATOM      1  C9  <0> d           2.295  -4.436   3.570  0.00  0.00    -0.029 A 
ATOM      2  C10 <0> d           3.622  -4.693   3.272  0.00  0.00     0.009 A 
ATOM      3  C11 <0> d           4.488  -5.122   4.261  0.00  0.00     0.002 A 
ATOM      4  C12 <0> d           4.034  -5.296   5.552  0.00  0.00     0.015 A 
ATOM      5  C13 <0> d           2.699  -5.038   5.859  0.00  0.00     0.012 A 
ATOM      6  C14 <0> d           1.831  -4.601   4.859  0.00  0.00     0.024 A 
ENDROOT
BRANCH   1   7
ATOM      7  C8  <0> d           1.358  -3.969   2.487  0.00  0.00     0.311 C 
BRANCH   7   8
ATOM      8  N2  <0> d           1.379  -2.501   2.420  0.00  0.00     0.094 N 
ATOM      9  C7  <0> d           0.820  -1.911   3.644  0.00  0.00     0.310 C 
BRANCH   8  10
ATOM     10  C5  <0> d           0.666  -2.018   1.230  0.00  0.00     0.248 C 
ATOM     11  C4  <0> d           1.336  -2.575  -0.029  0.00  0.00     0.039 C 
ATOM     12  C3  <0> d           0.634  -2.005  -1.264  0.00  0.00     0.030 C 
ATOM     13  C2  <0> d           0.681  -0.476  -1.210  0.00  0.00     0.234 C 
ATOM     14  N1  <0> d           0.002  -0.004   0.002  0.00  0.00    -0.073 N 
ATOM     15  C1  <0> d          -0.018   1.465   0.010  0.00  0.00     0.269 C 
ATOM     16  C6  <0> d           0.712  -0.489   1.192  0.00  0.00     0.270 C 
ATOM     17  H25 <0> d          -0.945  -0.352   0.012  0.00  0.00     0.279 HD
ENDBRANCH   8  10
ENDBRANCH   7   8
ENDBRANCH   1   7
BRANCH   5  18
ATOM     18  C15 <0> d           2.205  -5.223   7.243  0.00  0.00     0.158 C 
ATOM     19  N3  <0> d           0.959  -4.982   7.526  0.00  0.00    -0.118 NA
BRANCH  19  20
ATOM     20  O1  <0> d           0.487  -5.159   8.850  0.00  0.00    -0.264 OA
ATOM     21  H22 <0> d          -0.452  -4.955   8.963  0.00  0.00     0.247 HD
ENDBRANCH  19  20
BRANCH  18  22
ATOM     22  N4  <0> d           3.070  -5.652   8.235  0.00  0.00    -0.382 N 
ATOM     23  H23 <0> d           4.000  -5.832   8.023  0.00  0.00     0.157 HD
ATOM     24  H24 <0> d           2.747  -5.774   9.141  0.00  0.00     0.157 HD
ENDBRANCH  18  22
ENDBRANCH   5  18
TORSDOF 6
