REMARK  6 active torsions:
REMARK  status: ('A' for Active; 'I' for Inactive)
REMARK    1  A    between atoms: C2_2  and  C3_3 
REMARK    2  A    between atoms: C2_2  and  N1_8 
REMARK    3  A    between atoms: N1_8  and  C8_10 
REMARK    4  A    between atoms: C8_10  and  C9_11 
REMARK    5  A    between atoms: C8_10  and  C10_13 
REMARK    6  A    between atoms: C9_11  and  N2_12 
ROOT
ATOM      1  C8  <0> d          -0.015  -2.489  -0.655  0.00  0.00     0.270 C 
ENDROOT
BRANCH   1   2
ATOM      2  N1  <0> d           0.235  -1.273  -1.440  0.00  0.00    -0.055 N 
ATOM      3  C7  <0> d          -0.056  -1.535  -2.856  0.00  0.00     0.271 C 
ATOM      4  H18 <0> d           1.202  -1.001  -1.340  0.00  0.00     0.281 HD
BRANCH   2   5
ATOM      5  C2  <0> d          -0.631  -0.190  -0.955  0.00  0.00     0.224 C 
ATOM      6  C1  <0> d          -0.542   1.001  -1.910  0.00  0.00     0.046 C 
BRANCH   5   7
ATOM      7  C3  <0> d          -0.184   0.233   0.420  0.00  0.00     0.013 A 
ATOM      8  S1  <0> d           1.446   0.705   0.976  0.00  0.00    -0.104 SA
ATOM      9  C6  <0> d           1.043   1.034   2.684  0.00  0.00     0.050 A 
ATOM     10  C5  <0> d          -0.284   0.760   2.717  0.00  0.00     0.008 A 
ATOM     11  C4  <0> d          -0.913   0.350   1.557  0.00  0.00     0.017 A 
ENDBRANCH   5   7
ENDBRANCH   2   5
ENDBRANCH   1   2
BRANCH   1  12
ATOM     12  C9  <0> d           0.534  -2.304   0.761  0.00  0.00     0.269 C 
BRANCH  12  13
ATOM     13  N2  <0> d           1.964  -1.973   0.692  0.00  0.00    -0.077 N 
ATOM     14  H14 <0> d           2.090  -1.139   0.139  0.00  0.00     0.274 HD
ATOM     15  H15 <0> d           2.317  -1.816   1.624  0.00  0.00     0.274 HD
ATOM     16  H17 <0> d           2.466  -2.738   0.267  0.00  0.00     0.274 HD
ENDBRANCH  12  13
ENDBRANCH   1  12
BRANCH   1  17
ATOM     17  C10 <0> d          -1.498  -2.749  -0.589  0.00  0.00     0.088 A 
ATOM     18  O1  <0> d          -2.400  -1.988   0.052  0.00  0.00    -0.304 OA
ATOM     19  C13 <0> d          -3.625  -2.518  -0.104  0.00  0.00     0.139 A 
ATOM     20  C12 <0> d          -3.512  -3.637  -0.845  0.00  0.00     0.054 A 
ATOM     21 Br1  <0> d          -5.232  -1.817   0.604  0.00  0.00    -0.021 Br
ATOM     22  C11 <0> d          -2.141  -3.784  -1.158  0.00  0.00     0.057 A 
ATOM     23 Br2  <0> d          -4.918  -4.789  -1.368  0.00  0.00    -0.048 Br
ENDBRANCH   1  17
TORSDOF 6
