REMARK  4 active torsions:
REMARK  status: ('A' for Active; 'I' for Inactive)
REMARK    1  A    between atoms: C5_5  and  N1_9 
REMARK       I    between atoms: N1_9  and  C9_10 
REMARK    2  A    between atoms: C9_10  and  C10_12 
REMARK    3  A    between atoms: C10_12  and  S1_13 
REMARK    4  A    between atoms: S1_13  and  C11_14 
ROOT
ATOM      1  C11 <0> d           0.095  -2.918   2.305  0.00  0.00     0.021 A 
ATOM      2  C12 <0> d           0.118  -4.308   2.162  0.00  0.00     0.039 A 
ATOM      3  C13 <0> d           0.125  -4.857   0.898  0.00  0.00     0.120 A 
ATOM      4  N2  <0> d           0.108  -4.102  -0.188  0.00  0.00    -0.242 NA
ATOM      5  C14 <0> d           0.086  -2.783  -0.118  0.00  0.00     0.150 A 
ATOM      6  C15 <0> d           0.078  -2.143   1.135  0.00  0.00     0.095 A 
ATOM      7  C16 <0> d           0.053  -0.676   1.174  0.00  0.00     0.266 A 
ATOM      8  O2  <0> d           0.045  -0.079   2.234  0.00  0.00    -0.267 OA
ATOM      9  N3  <0> d           0.038  -0.005   0.001  0.00  0.00    -0.270 N 
ATOM     10  C17 <0> d           0.041  -0.659  -1.171  0.00  0.00     0.332 A 
ATOM     11  O3  <0> d           0.023  -0.010  -2.199  0.00  0.00    -0.246 OA
ATOM     12  N4  <0> d           0.069  -2.000  -1.259  0.00  0.00    -0.287 N 
ATOM     13  C18 <0> d           0.077  -2.639  -2.577  0.00  0.00     0.163 C 
ATOM     14  C19 <0> d           0.013   1.460   0.009  0.00  0.00     0.164 C 
ENDROOT
BRANCH   1  15
ATOM     15  S1  <0> d           0.085  -2.164   3.898  0.00  0.00    -0.119 SA
BRANCH  15  16
ATOM     16  C10 <0> d           0.114  -3.641   4.944  0.00  0.00     0.182 C 
BRANCH  16  17
ATOM     17  C9  <0> d           0.110  -3.230   6.394  0.00  0.00     0.231 C 
ATOM     18  N1  <0> d           0.130  -4.169   7.361  0.00  0.00    -0.326 N 
ATOM     19  H10 <0> d           0.065  -5.108   7.126  0.00  0.00     0.169 HD
ATOM     20  O1  <0> d           0.090  -2.054   6.691  0.00  0.00    -0.272 OA
BRANCH  18  21
ATOM     21  C5  <0> d           0.243  -3.789   8.703  0.00  0.00     0.040 A 
ATOM     22  C4  <0> d           0.835  -2.578   9.035  0.00  0.00     0.030 A 
ATOM     23  C3  <0> d           0.946  -2.206  10.361  0.00  0.00     0.009 A 
ATOM     24  C2  <0> d           0.467  -3.038  11.356  0.00  0.00    -0.061 A 
ATOM     25  C1  <0> d           0.589  -2.629  12.801  0.00  0.00     0.048 C 
ATOM     26  C7  <0> d          -0.124  -4.244  11.028  0.00  0.00     0.015 A 
ATOM     27  C6  <0> d          -0.242  -4.620   9.704  0.00  0.00    -0.035 A 
ATOM     28  C8  <0> d          -0.891  -5.932   9.347  0.00  0.00     0.050 C 
ENDBRANCH  18  21
ENDBRANCH  16  17
ENDBRANCH  15  16
ENDBRANCH   1  15
TORSDOF 4
