REMARK  5 active torsions:
REMARK  status: ('A' for Active; 'I' for Inactive)
REMARK    1  A    between atoms: C2_2  and  C4_4 
REMARK    2  A    between atoms: C4_4  and  C5_5 
REMARK    3  A    between atoms: C4_4  and  N1_8 
REMARK       I    between atoms: N1_8  and  C7_9 
REMARK    4  A    between atoms: C7_9  and  C8_11 
REMARK    5  A    between atoms: C8_11  and  N2_12 
ROOT
ATOM      1  N2  <0> d          -0.219  -0.750   6.925  0.00  0.00    -0.299 N 
ATOM      2  C9  <0> d           0.905  -0.538   7.657  0.00  0.00     0.214 A 
ATOM      3  N3  <0> d           1.409  -1.478   8.412  0.00  0.00    -0.235 NA
ATOM      4  C10 <0> d           0.834  -2.676   8.485  0.00  0.00     0.115 A 
ATOM      5  C11 <0> d          -0.328  -2.987   7.766  0.00  0.00     0.075 A 
ATOM      6  C12 <0> d          -0.860  -1.935   6.952  0.00  0.00     0.262 A 
ATOM      7  O3  <0> d          -1.870  -2.109   6.294  0.00  0.00    -0.267 OA
ATOM      8  C13 <0> d          -0.853  -4.349   7.944  0.00  0.00    -0.026 A 
ATOM      9  C14 <0> d          -0.171  -5.160   8.771  0.00  0.00    -0.008 A 
ATOM     10  S1  <0> d           1.190  -4.178   9.359  0.00  0.00    -0.073 SA
ATOM     11  C15 <0> d          -0.797  -6.525   8.872  0.00  0.00     0.047 C 
ATOM     12  C16 <0> d          -1.739  -6.611   7.651  0.00  0.00     0.010 C 
ATOM     13  C17 <0> d          -2.053  -5.124   7.393  0.00  0.00     0.041 C 
ENDROOT
BRANCH   1  14
ATOM     14  C8  <0> d          -0.749   0.333   6.093  0.00  0.00     0.235 C 
BRANCH  14  15
ATOM     15  C7  <0> d          -0.136   0.257   4.719  0.00  0.00     0.236 C 
ATOM     16  N1  <0> d          -0.477   1.159   3.778  0.00  0.00    -0.348 N 
ATOM     17  H12 <0> d          -1.203   1.951   4.013  0.00  0.00     0.163 HD
ATOM     18  O2  <0> d           0.664  -0.617   4.459  0.00  0.00    -0.272 OA
BRANCH  16  19
ATOM     19  C4  <0> d           0.118   1.084   2.441  0.00  0.00     0.157 C 
BRANCH  19  20
ATOM     20  C2  <0> d          -0.819   1.745   1.428  0.00  0.00     0.007 C 
ATOM     21  C1  <0> d          -1.112   3.182   1.865  0.00  0.00     0.012 C 
ATOM     22  C3  <0> d          -2.128   0.957   1.355  0.00  0.00     0.012 C 
ENDBRANCH  19  20
BRANCH  19  23
ATOM     23  C5  <0> d           1.444   1.801   2.442  0.00  0.00     0.145 C 
ATOM     24  O1  <0> d           1.693   2.609   3.304  0.00  0.00    -0.296 OA
ATOM     25  C6  <0> d           2.458   1.510   1.366  0.00  0.00     0.093 C 
ENDBRANCH  19  23
ENDBRANCH  16  19
ENDBRANCH  14  15
ENDBRANCH   1  14
TORSDOF 5
