REMARK  4 active torsions:
REMARK  status: ('A' for Active; 'I' for Inactive)
REMARK    1  A    between atoms: N1_2  and  C2_3 
REMARK    2  A    between atoms: C2_3  and  C3_4 
REMARK    3  A    between atoms: N2_9  and  S1_10 
REMARK    4  A    between atoms: S1_10  and  C8_13 
ROOT
ATOM      1  S1  <0> d           1.500  -1.401   1.344  0.00  0.00     0.263 S 
ATOM      2  O1  <0> d           0.297  -0.671   1.542  0.00  0.00    -0.200 OA
ATOM      3  O2  <0> d           2.162  -2.082   2.401  0.00  0.00    -0.200 OA
ENDROOT
BRANCH   1   4
ATOM      4  N2  <0> d           1.179  -2.534   0.179  0.00  0.00    -0.300 N 
ATOM      5  C3  <0> d           0.394  -2.182  -1.012  0.00  0.00     0.121 C 
ATOM      6  C4  <0> d           1.188  -2.575  -2.262  0.00  0.00     0.028 C 
ATOM      7  C5  <0> d           1.569  -4.054  -2.176  0.00  0.00     0.004 C 
ATOM      8  C6  <0> d           2.455  -4.284  -0.950  0.00  0.00     0.021 C 
ATOM      9  C7  <0> d           1.676  -3.910   0.315  0.00  0.00     0.136 C 
BRANCH   5  10
ATOM     10  C2  <0> d           0.130  -0.675  -1.024  0.00  0.00     0.257 C 
BRANCH  10  11
ATOM     11  N1  <0> d          -0.647  -0.324  -2.221  0.00  0.00    -0.077 N 
ATOM     12  C1  <0> d          -1.007   1.099  -2.171  0.00  0.00     0.267 C 
ATOM     13  H6  <0> d          -1.486  -0.883  -2.253  0.00  0.00     0.276 HD
ATOM     14  H21 <0> d          -0.093  -0.502  -3.046  0.00  0.00     0.276 HD
ENDBRANCH  10  11
ENDBRANCH   5  10
ENDBRANCH   1   4
BRANCH   1  15
ATOM     15  C8  <0> d           2.668  -0.272   0.663  0.00  0.00     0.109 A 
ATOM     16  C11 <0> d           4.054  -0.566   0.296  0.00  0.00     0.035 A 
ATOM     17  C10 <0> d           4.592   0.635  -0.205  0.00  0.00     0.139 A 
ATOM     18  C12 <0> d           4.855  -1.709   0.345  0.00  0.00     0.018 A 
ATOM     19  N3  <0> d           3.598   1.581  -0.131  0.00  0.00    -0.349 N 
ATOM     20  N4  <0> d           5.850   0.671  -0.625  0.00  0.00    -0.242 NA
ATOM     21  C9  <0> d           2.459   1.025   0.387  0.00  0.00     0.116 A 
ATOM     22  H2  <0> d           3.690   2.507  -0.406  0.00  0.00     0.167 HD
ATOM     23  C14 <0> d           6.623  -0.393  -0.579  0.00  0.00     0.119 A 
ATOM     24  C13 <0> d           6.159  -1.609  -0.102  0.00  0.00     0.020 A 
ENDBRANCH   1  15
TORSDOF 4
