REMARK  2 active torsions:
REMARK  status: ('A' for Active; 'I' for Inactive)
REMARK    1  A    between atoms: C8_10  and  N5_21 
REMARK    2  A    between atoms: C9_12  and  C10_14 
ROOT
ATOM      1  C1  <0> d          -0.017   1.373   0.010  0.00  0.00     0.002 A 
ATOM      2  C2  <0> d           1.170   2.091   0.002  0.00  0.00     0.002 A 
ATOM      3  C3  <0> d           2.384   1.436  -0.014  0.00  0.00     0.033 A 
ATOM      4  C4  <0> d           2.425   0.050  -0.023  0.00  0.00     0.083 A 
ATOM      5  C5  <0> d           1.223  -0.684  -0.013  0.00  0.00     0.103 A 
ATOM      6  C6  <0> d           0.002  -0.004   0.002  0.00  0.00     0.034 A 
ATOM      7  N1  <0> d           1.550  -2.004  -0.017  0.00  0.00    -0.062 NA
ATOM      8  C7  <0> d           2.851  -2.135  -0.026  0.00  0.00     0.724 A 
ATOM      9  N2  <0> d           3.602  -3.262  -0.034  0.00  0.00    -0.021 N 
ATOM     10  C8  <0> d           4.903  -3.152   0.171  0.00  0.00     0.688 C 
ATOM     11  N3  <0> d           5.482  -1.943   0.450  0.00  0.00    -0.200 N 
ATOM     12  C9  <0> d           4.890  -0.703  -0.084  0.00  0.00     0.259 C 
ATOM     13  N4  <0> d           3.434  -0.882  -0.042  0.00  0.00    -0.152 N 
ATOM     14  H12 <0> d           6.281  -1.903   0.999  0.00  0.00     0.180 HD
ATOM     15  H13 <0> d           3.194  -4.129  -0.187  0.00  0.00     0.203 HD
ENDROOT
BRANCH  12  16
ATOM     16  C10 <0> d           5.345  -0.485  -1.504  0.00  0.00    -0.013 A 
ATOM     17  C15 <0> d           5.666   0.787  -1.939  0.00  0.00     0.030 A 
ATOM     18  C14 <0> d           6.088   0.987  -3.241  0.00  0.00     0.011 A 
ATOM     19  C13 <0> d           6.178  -0.085  -4.110  0.00  0.00     0.019 A 
ATOM     20 Br1  <0> d           6.536   2.726  -3.834  0.00  0.00    -0.051 Br
ATOM     21  C12 <0> d           5.851  -1.356  -3.676  0.00  0.00     0.002 A 
ATOM     22  C11 <0> d           5.434  -1.556  -2.374  0.00  0.00     0.011 A 
ENDBRANCH  12  16
BRANCH  10  23
ATOM     23  N5  <0> d           5.688  -4.271   0.103  0.00  0.00    -0.234 N 
ATOM     24  H10 <0> d           5.288  -5.132  -0.093  0.00  0.00     0.174 HD
ATOM     25  H11 <0> d           6.644  -4.202   0.252  0.00  0.00     0.174 HD
ENDBRANCH  10  23
TORSDOF 2
