REMARK  6 active torsions:
REMARK  status: ('A' for Active; 'I' for Inactive)
REMARK    1  A    between atoms: C2_2  and  C3_3 
REMARK    2  A    between atoms: C2_2  and  N1_10 
REMARK    3  A    between atoms: N1_10  and  C9_11 
REMARK    4  A    between atoms: C9_11  and  C10_12 
REMARK    5  A    between atoms: C15_17  and  C16_18 
REMARK    6  A    between atoms: C16_18  and  N2_19 
ROOT
ATOM      1  N1  <0> d          -3.508   1.867  -0.736  0.00  0.00    -0.063 N 
ATOM      2  H9  <0> d          -3.998   2.198   0.192  0.00  0.00     0.278 HD
ATOM      3  H25 <0> d          -3.115   2.741  -1.275  0.00  0.00     0.278 HD
ENDROOT
BRANCH   1   4
ATOM      4  C2  <0> d          -2.403   0.956  -0.408  0.00  0.00     0.216 C 
ATOM      5  C1  <0> d          -2.781   0.115   0.812  0.00  0.00     0.045 C 
BRANCH   4   6
ATOM      6  C3  <0> d          -1.165   1.758  -0.102  0.00  0.00    -0.011 A 
ATOM      7  C8  <0> d           0.086   1.192  -0.271  0.00  0.00     0.019 A 
ATOM      8  C7  <0> d           1.222   1.931   0.005  0.00  0.00     0.019 A 
ATOM      9 Br1  <0> d           0.242  -0.589  -0.887  0.00  0.00    -0.051 Br
ATOM     10  C6  <0> d           1.107   3.233   0.455  0.00  0.00     0.001 A 
ATOM     11  C5  <0> d          -0.143   3.797   0.628  0.00  0.00     0.001 A 
ATOM     12  C4  <0> d          -1.279   3.059   0.353  0.00  0.00     0.011 A 
ENDBRANCH   4   6
ENDBRANCH   1   4
BRANCH   1  13
ATOM     13  C9  <0> d          -4.506   1.200  -1.583  0.00  0.00     0.272 C 
BRANCH  13  14
ATOM     14  C10 <0> d          -5.622   2.163  -1.897  0.00  0.00    -0.025 A 
ATOM     15  C15 <0> d          -5.467   3.095  -2.906  0.00  0.00    -0.025 A 
ATOM     16  C14 <0> d          -6.490   3.979  -3.195  0.00  0.00     0.009 A 
ATOM     17  C13 <0> d          -7.669   3.930  -2.475  0.00  0.00     0.001 A 
ATOM     18  C12 <0> d          -7.824   2.998  -1.466  0.00  0.00     0.001 A 
ATOM     19  C11 <0> d          -6.803   2.111  -1.180  0.00  0.00     0.009 A 
BRANCH  15  20
ATOM     20  C16 <0> d          -4.182   3.148  -3.692  0.00  0.00     0.273 C 
BRANCH  20  21
ATOM     21  N2  <0> d          -3.144   3.810  -2.889  0.00  0.00    -0.075 N 
ATOM     22  C17 <0> d          -1.808   3.554  -3.442  0.00  0.00     0.269 C 
ATOM     23  C18 <0> d          -3.402   5.252  -2.782  0.00  0.00     0.269 C 
ATOM     24  H24 <0> d          -3.178   3.384  -1.876  0.00  0.00     0.279 HD
ENDBRANCH  20  21
ENDBRANCH  15  20
ENDBRANCH  13  14
ENDBRANCH   1  13
TORSDOF 6
