REMARK  4 active torsions:
REMARK  status: ('A' for Active; 'I' for Inactive)
REMARK    1  A    between atoms: C2_2  and  C3_3 
REMARK    2  A    between atoms: C2_2  and  O3_16 
REMARK    3  A    between atoms: C3_3  and  N1_4 
REMARK    4  A    between atoms: N1_4  and  C4_5 
ROOT
ATOM      1  C4  <0> d          -2.404   4.064   0.045  0.00  0.00     0.148 A 
ATOM      2  N2  <0> d          -2.187   5.340   0.050  0.00  0.00    -0.141 NA
ATOM      3  S1  <0> d          -0.523   5.522   0.035  0.00  0.00     0.286 S 
ATOM      4  O1  <0> d          -0.137   6.074   1.286  0.00  0.00    -0.198 OA
ATOM      5  O2  <0> d          -0.159   6.087  -1.217  0.00  0.00    -0.198 OA
ATOM      6  C5  <0> d          -0.032   3.819   0.022  0.00  0.00     0.095 A 
ATOM      7  C6  <0> d          -1.259   3.140   0.030  0.00  0.00     0.034 A 
ATOM      8  C7  <0> d          -1.220   1.738   0.017  0.00  0.00     0.017 A 
ATOM      9  C8  <0> d          -0.013   1.076   0.008  0.00  0.00     0.001 A 
ATOM     10  C9  <0> d           1.182   1.773   0.000  0.00  0.00     0.002 A 
ATOM     11  C10 <0> d           1.163   3.161   0.007  0.00  0.00     0.026 A 
ENDROOT
BRANCH   1  12
ATOM     12  N1  <0> d          -3.692   3.576   0.055  0.00  0.00    -0.371 N 
ATOM     13  H7  <0> d          -3.848   2.619   0.051  0.00  0.00     0.161 HD
BRANCH  12  14
ATOM     14  C3  <0> d          -4.826   4.503   0.071  0.00  0.00     0.152 C 
BRANCH  14  15
ATOM     15  C2  <0> d          -6.134   3.709   0.079  0.00  0.00     0.132 C 
ATOM     16  C1  <0> d          -7.319   4.677   0.096  0.00  0.00     0.041 C 
BRANCH  15  17
ATOM     17  O3  <0> d          -6.203   2.892  -1.092  0.00  0.00    -0.394 OA
ATOM     18  H12 <0> d          -7.008   2.360  -1.153  0.00  0.00     0.210 HD
ENDBRANCH  15  17
ENDBRANCH  14  15
ENDBRANCH  12  14
ENDBRANCH   1  12
TORSDOF 4
