REMARK  6 active torsions:
REMARK  status: ('A' for Active; 'I' for Inactive)
REMARK    1  A    between atoms: C4_4  and  N3_20 
REMARK    2  A    between atoms: C7_7  and  N1_8 
REMARK       I    between atoms: N1_8  and  C8_9 
REMARK    3  A    between atoms: C8_9  and  C9_11 
REMARK    4  A    between atoms: C9_11  and  C10_12 
REMARK    5  A    between atoms: C10_12  and  N2_13 
REMARK    6  A    between atoms: C13_16  and  O2_19 
ROOT
ATOM      1  N1  <0> d          -1.640  -1.854   0.008  0.00  0.00    -0.327 N 
ATOM      2  C8  <0> d          -1.411  -0.526   0.016  0.00  0.00     0.223 C 
ATOM      3  O1  <0> d          -2.344   0.250   0.022  0.00  0.00    -0.273 OA
ATOM      4  H7  <0> d          -0.799  -2.556  -0.090  0.00  0.00     0.169 HD
ENDROOT
BRANCH   2   5
ATOM      5  C9  <0> d           0.003  -0.004   0.017  0.00  0.00     0.131 C 
BRANCH   5   6
ATOM      6  C10 <0> d          -0.018   1.525   0.027  0.00  0.00     0.244 C 
BRANCH   6   7
ATOM      7  N2  <0> d           1.361   2.033   0.028  0.00  0.00    -0.070 N 
ATOM      8  C15 <0> d           1.387   3.484  -0.201  0.00  0.00     0.237 C 
ATOM      9  C14 <0> d           2.837   3.954  -0.338  0.00  0.00     0.059 C 
ATOM     10  C13 <0> d           3.604   3.606   0.941  0.00  0.00     0.121 C 
ATOM     11  C12 <0> d           3.521   2.096   1.182  0.00  0.00     0.059 C 
ATOM     12  C11 <0> d           2.051   1.680   1.275  0.00  0.00     0.237 C 
ATOM     13  H22 <0> d           1.900   1.553  -0.801  0.00  0.00     0.279 HD
BRANCH  10  14
ATOM     14  O2  <0> d           4.973   3.991   0.796  0.00  0.00    -0.395 OA
ATOM     15  H21 <0> d           5.231   5.045   0.615  0.00  0.00     0.210 HD
ENDBRANCH  10  14
ENDBRANCH   6   7
ENDBRANCH   5   6
ENDBRANCH   2   5
BRANCH   1  16
ATOM     16  C7  <0> d          -2.947  -2.340   0.123  0.00  0.00     0.040 A 
ATOM     17  C2  <0> d          -3.272  -3.590  -0.386  0.00  0.00    -0.033 A 
ATOM     18  C1  <0> d          -2.218  -4.425  -1.065  0.00  0.00     0.050 C 
ATOM     19  C3  <0> d          -4.562  -4.069  -0.266  0.00  0.00     0.045 A 
ATOM     20  C4  <0> d          -5.532  -3.300   0.352  0.00  0.00     0.103 A 
ATOM     21  C5  <0> d          -5.212  -2.052   0.855  0.00  0.00     0.038 A 
ATOM     22  C6  <0> d          -3.923  -1.570   0.743  0.00  0.00     0.032 A 
BRANCH  20  23
ATOM     23  N3  <0> d          -6.915  -3.814   0.473  0.00  0.00    -0.116 N 
ATOM     24  O3  <0> d          -7.770  -3.138   1.017  0.00  0.00    -0.532 OA
ATOM     25  O4  <0> d          -7.198  -4.912   0.030  0.00  0.00    -0.532 OA
ENDBRANCH  20  23
ENDBRANCH   1  16
TORSDOF 6
