REMARK  4 active torsions:
REMARK  status: ('A' for Active; 'I' for Inactive)
REMARK    1  A    between atoms: C18_19  and  C19_20 
REMARK    2  A    between atoms: C18_19  and  O4_24 
REMARK    3  A    between atoms: C19_20  and  C20_22 
REMARK    4  A    between atoms: C20_22  and  O3_23 
ROOT
ATOM      1  C1  <0> d          -2.246   0.427   2.870  0.00  0.00     0.020 C 
ATOM      2  C2  <0> d          -1.938   0.319   1.369  0.00  0.00    -0.016 C 
ATOM      3  C3  <0> d          -1.469  -1.107   1.066  0.00  0.00     0.022 C 
ATOM      4  C4  <0> d          -2.575  -2.112   1.393  0.00  0.00     0.084 C 
ATOM      5  C5  <0> d          -3.820  -1.736   0.628  0.00  0.00     0.149 C 
ATOM      6  O1  <0> d          -4.628  -2.589   0.323  0.00  0.00    -0.293 OA
ATOM      7  C6  <0> d          -4.045  -0.344   0.251  0.00  0.00     0.053 C 
ATOM      8  C7  <0> d          -3.186   0.619   0.584  0.00  0.00    -0.068 C 
ATOM      9  C8  <0> d          -3.475   2.036   0.156  0.00  0.00     0.036 C 
ATOM     10  C9  <0> d          -2.740   3.028   1.046  0.00  0.00     0.014 C 
ATOM     11  C10 <0> d          -1.254   2.765   1.156  0.00  0.00     0.020 C 
ATOM     12  C11 <0> d          -0.843   1.311   1.026  0.00  0.00     0.006 C 
ATOM     13  C12 <0> d          -0.099   1.009  -0.255  0.00  0.00     0.007 C 
ATOM     14  C13 <0> d          -0.673   1.690  -1.491  0.00  0.00     0.017 C 
ATOM     15  C14 <0> d          -0.553   3.204  -1.374  0.00  0.00     0.018 C 
ATOM     16  C15 <0> d          -0.488   3.545   0.105  0.00  0.00    -0.067 C 
ATOM     17  C16 <0> d           0.339   4.531   0.306  0.00  0.00    -0.019 C 
ATOM     18  C17 <0> d           0.979   4.965  -0.996  0.00  0.00     0.074 C 
ATOM     19  C18 <0> d           0.786   3.735  -1.926  0.00  0.00     0.134 C 
ATOM     20  C21 <0> d          -1.714   3.920  -2.071  0.00  0.00     0.023 C 
ENDROOT
BRANCH  19  21
ATOM     21  C19 <0> d           0.651   4.162  -3.364  0.00  0.00     0.185 C 
ATOM     22  O2  <0> d           0.437   5.319  -3.632  0.00  0.00    -0.292 OA
BRANCH  21  23
ATOM     23  C20 <0> d           0.783   3.143  -4.467  0.00  0.00     0.245 C 
BRANCH  23  24
ATOM     24  O3  <0> d           0.616   3.788  -5.732  0.00  0.00    -0.393 OA
ATOM     25  H24 <0> d           0.689   3.191  -6.489  0.00  0.00     0.209 HD
ENDBRANCH  23  24
ENDBRANCH  21  23
ENDBRANCH  19  21
BRANCH  19  26
ATOM     26  O4  <0> d           1.840   2.791  -1.759  0.00  0.00    -0.381 OA
ATOM     27  H25 <0> d           2.696   3.093  -2.095  0.00  0.00     0.211 HD
ENDBRANCH  19  26
TORSDOF 4
