REMARK  4 active torsions:
REMARK  status: ('A' for Active; 'I' for Inactive)
REMARK    1  A    between atoms: C2_2  and  C3_3 
REMARK    2  A    between atoms: C6_10  and  N5_32 
REMARK    3  A    between atoms: N3_19  and  C16_22 
REMARK    4  A    between atoms: C16_22  and  C17_23 
ROOT
ATOM      1  C3  <0> d           0.731  -0.503   1.223  0.00  0.00     0.040 A 
ATOM      2  C4  <0> d           0.198  -0.697   2.438  0.00  0.00     0.049 A 
ATOM      3  C5  <0> d           1.219  -1.171   3.294  0.00  0.00     0.200 A 
ATOM      4  N1  <0> d           2.318  -1.252   2.602  0.00  0.00    -0.148 NA
ATOM      5  N2  <0> d           2.039  -0.842   1.289  0.00  0.00    -0.279 N 
ATOM      6  H1  <0> d           2.674  -0.806   0.556  0.00  0.00     0.189 HD
ATOM      7  O1  <0> d           0.984  -1.462   4.601  0.00  0.00    -0.272 OA
ATOM      8  C6  <0> d          -0.299  -1.542   5.006  0.00  0.00     0.162 C 
ATOM      9  C7  <0> d          -1.357  -1.112   4.282  0.00  0.00     0.100 C 
ATOM     10  C8  <0> d          -1.208  -0.485   2.924  0.00  0.00     0.145 A 
ATOM     11  C9  <0> d          -1.560   0.968   2.952  0.00  0.00    -0.003 A 
ATOM     12  C10 <0> d          -1.020   2.027   3.649  0.00  0.00     0.011 A 
ATOM     13  C11 <0> d          -1.594   3.277   3.442  0.00  0.00     0.001 A 
ATOM     14  C12 <0> d          -2.656   3.446   2.578  0.00  0.00     0.002 A 
ATOM     15  C13 <0> d          -3.205   2.385   1.874  0.00  0.00     0.030 A 
ATOM     16  C14 <0> d          -2.639   1.125   2.072  0.00  0.00     0.045 A 
ATOM     17  N3  <0> d          -2.983  -0.091   1.510  0.00  0.00    -0.312 N 
ATOM     18  C15 <0> d          -2.196  -1.095   1.954  0.00  0.00     0.248 A 
ATOM     19  O2  <0> d          -2.268  -2.263   1.635  0.00  0.00    -0.271 OA
ATOM     20  C23 <0> d          -2.671  -1.260   4.831  0.00  0.00     0.101 C 
ATOM     21  N4  <0> d          -3.713  -1.376   5.267  0.00  0.00    -0.191 NA
ENDROOT
BRANCH   8  22
ATOM     22  N5  <0> d          -0.549  -2.097   6.236  0.00  0.00    -0.379 N 
ATOM     23  H17 <0> d           0.186  -2.416   6.783  0.00  0.00     0.158 HD
ATOM     24  H18 <0> d          -1.461  -2.170   6.559  0.00  0.00     0.158 HD
ENDBRANCH   8  22
BRANCH   1  25
ATOM     25  C2  <0> d           0.002  -0.004   0.002  0.00  0.00     0.055 C 
ATOM     26  C1  <0> d          -0.019   1.526   0.010  0.00  0.00     0.011 C 
ENDBRANCH   1  25
BRANCH  17  27
ATOM     27  C16 <0> d          -4.072  -0.270   0.546  0.00  0.00     0.170 C 
BRANCH  27  28
ATOM     28  C17 <0> d          -3.540  -0.093  -0.852  0.00  0.00    -0.040 A 
ATOM     29  C22 <0> d          -3.054  -1.183  -1.550  0.00  0.00     0.010 A 
ATOM     30  C21 <0> d          -2.571  -1.022  -2.835  0.00  0.00     0.024 A 
ATOM     31  C20 <0> d          -2.563   0.232  -3.418  0.00  0.00     0.034 A 
ATOM     32  C19 <0> d          -3.044   1.324  -2.718  0.00  0.00     0.024 A 
ATOM     33 Cl1  <0> d          -1.950   0.435  -5.030  0.00  0.00    -0.084 Cl
ATOM     34  C18 <0> d          -3.532   1.161  -1.435  0.00  0.00     0.010 A 
ENDBRANCH  27  28
ENDBRANCH  17  27
TORSDOF 4
