REMARK  8 active torsions:
REMARK  status: ('A' for Active; 'I' for Inactive)
REMARK    1  A    between atoms: O1_2  and  C2_3 
REMARK    2  A    between atoms: C5_6  and  N1_9 
REMARK    3  A    between atoms: C8_10  and  C21_30 
REMARK    4  A    between atoms: C9_13  and  S1_14 
REMARK    5  A    between atoms: S1_14  and  C10_15 
REMARK    6  A    between atoms: C10_15  and  C11_16 
REMARK       I    between atoms: C11_16  and  N4_18 
REMARK    7  A    between atoms: N4_18  and  N5_19 
REMARK    8  A    between atoms: C12_20  and  C13_21 
ROOT
ATOM      1  N1  <0> d           2.339  -2.473  -4.598  0.00  0.00    -0.332 N 
ATOM      2  C8  <0> d           2.681  -3.906  -4.484  0.00  0.00     0.208 C 
ATOM      3  N2  <0> d           3.014  -4.314  -5.873  0.00  0.00    -0.232 NA
ATOM      4  N3  <0> d           3.720  -3.137  -6.404  0.00  0.00    -0.227 NA
ATOM      5  C9  <0> d           2.994  -1.984  -5.823  0.00  0.00     0.237 C 
ATOM      6  H10 <0> d           2.178  -4.504  -6.405  0.00  0.00     0.143 HD
ATOM      7  H11 <0> d           3.681  -3.115  -7.412  0.00  0.00     0.143 HD
ENDROOT
BRANCH   5   8
ATOM      8  S1  <0> d           4.165  -0.659  -5.416  0.00  0.00    -0.118 SA
BRANCH   8   9
ATOM      9  C10 <0> d           5.345  -1.448  -4.286  0.00  0.00     0.181 C 
BRANCH   9  10
ATOM     10  C11 <0> d           6.386  -0.443  -3.865  0.00  0.00     0.247 C 
ATOM     11  O2  <0> d           6.336   0.693  -4.285  0.00  0.00    -0.271 OA
ATOM     12  N4  <0> d           7.371  -0.807  -3.021  0.00  0.00    -0.247 N 
ATOM     13  H14 <0> d           7.411  -1.716  -2.685  0.00  0.00     0.192 HD
BRANCH  12  14
ATOM     14  N5  <0> d           8.339   0.127  -2.630  0.00  0.00    -0.184 NA
ATOM     15  C12 <0> d           9.297  -0.227  -1.810  0.00  0.00     0.148 C 
BRANCH  15  16
ATOM     16  C13 <0> d          10.265   0.708  -1.418  0.00  0.00    -0.009 A 
ATOM     17  C20 <0> d          10.360   2.158  -1.840  0.00  0.00     0.161 A 
ATOM     18  N6  <0> d          11.538   2.702  -1.157  0.00  0.00    -0.385 N 
ATOM     19  C19 <0> d          12.099   1.755  -0.436  0.00  0.00     0.039 A 
ATOM     20  H27 <0> d          11.857   3.616  -1.229  0.00  0.00     0.160 HD
ATOM     21  C14 <0> d          11.345   0.495  -0.564  0.00  0.00    -0.000 A 
ATOM     22  C18 <0> d          13.250   1.763   0.397  0.00  0.00     0.030 A 
ATOM     23  C15 <0> d          11.794  -0.644   0.141  0.00  0.00     0.014 A 
ATOM     24  C16 <0> d          12.903  -0.560   0.918  0.00  0.00     0.001 A 
ATOM     25  C17 <0> d          13.622   0.632   1.043  0.00  0.00     0.002 A 
ENDBRANCH  15  16
ENDBRANCH  12  14
ENDBRANCH   9  10
ENDBRANCH   8   9
ENDBRANCH   5   8
BRANCH   1  26
ATOM     26  C5  <0> d           1.544  -1.729  -3.719  0.00  0.00     0.034 A 
ATOM     27  C4  <0> d           1.196  -0.423  -4.034  0.00  0.00     0.032 A 
ATOM     28  C3  <0> d           0.411   0.311  -3.166  0.00  0.00     0.039 A 
ATOM     29  C2  <0> d          -0.029  -0.257  -1.979  0.00  0.00     0.068 A 
ATOM     30  C7  <0> d           0.323  -1.560  -1.661  0.00  0.00     0.039 A 
ATOM     31  C6  <0> d           1.103  -2.297  -2.530  0.00  0.00     0.032 A 
BRANCH  29  32
ATOM     32  O1  <0> d          -0.802   0.466  -1.125  0.00  0.00    -0.356 OA
ATOM     33  C1  <0> d          -1.127   1.801  -1.516  0.00  0.00     0.210 C 
ENDBRANCH  29  32
ENDBRANCH   1  26
BRANCH   2  34
ATOM     34  C21 <0> d           1.501  -4.690  -3.969  0.00  0.00    -0.020 A 
ATOM     35  C26 <0> d           1.652  -5.533  -2.885  0.00  0.00     0.010 A 
ATOM     36  C25 <0> d           0.569  -6.250  -2.410  0.00  0.00     0.001 A 
ATOM     37  C24 <0> d          -0.663  -6.129  -3.026  0.00  0.00     0.000 A 
ATOM     38  C23 <0> d          -0.812  -5.290  -4.114  0.00  0.00     0.001 A 
ATOM     39  C22 <0> d           0.270  -4.570  -4.586  0.00  0.00     0.010 A 
ENDBRANCH   2  34
TORSDOF 8
