REMARK  4 active torsions:
REMARK  status: ('A' for Active; 'I' for Inactive)
REMARK    1  A    between atoms: C6_6  and  C11_11 
REMARK    2  A    between atoms: C11_11  and  C12_12 
REMARK       I    between atoms: C12_12  and  N1_14 
REMARK    3  A    between atoms: N1_14  and  N2_15 
REMARK       I    between atoms: N2_15  and  C13_16 
REMARK    4  A    between atoms: C13_16  and  C14_18 
ROOT
ATOM      1  C12 <0> d           5.463  -2.949   1.355  0.00  0.00     0.240 C 
ATOM      2  O1  <0> d           4.781  -2.575   2.285  0.00  0.00    -0.272 OA
ATOM      3  N1  <0> d           6.627  -3.587   1.586  0.00  0.00    -0.267 N 
ATOM      4  H10 <0> d           7.172  -3.886   0.842  0.00  0.00     0.190 HD
ENDROOT
BRANCH   1   5
ATOM      5  C11 <0> d           5.008  -2.700  -0.060  0.00  0.00     0.143 C 
BRANCH   5   6
ATOM      6  C6  <0> d           3.687  -1.976  -0.043  0.00  0.00    -0.049 A 
ATOM      7  C5  <0> d           3.668  -0.615  -0.036  0.00  0.00     0.020 A 
ATOM      8  C4  <0> d           2.438   0.063  -0.021  0.00  0.00    -0.025 A 
ATOM      9  C3  <0> d           2.378   1.468  -0.013  0.00  0.00     0.012 A 
ATOM     10  C9  <0> d           1.233  -0.683  -0.013  0.00  0.00    -0.026 A 
ATOM     11  C2  <0> d           1.169   2.091   0.002  0.00  0.00     0.001 A 
ATOM     12  C1  <0> d          -0.016   1.357   0.009  0.00  0.00     0.001 A 
ATOM     13  C10 <0> d           0.002  -0.004   0.002  0.00  0.00     0.012 A 
ATOM     14  C8  <0> d           1.292  -2.087  -0.021  0.00  0.00     0.013 A 
ATOM     15  C7  <0> d           2.502  -2.710  -0.036  0.00  0.00     0.008 A 
ENDBRANCH   5   6
ENDBRANCH   1   5
BRANCH   3  16
ATOM     16  N2  <0> d           7.050  -3.818   2.902  0.00  0.00    -0.263 N 
ATOM     17  C13 <0> d           8.214  -4.456   3.133  0.00  0.00     0.271 C 
ATOM     18  O2  <0> d           8.897  -4.831   2.201  0.00  0.00    -0.266 OA
ATOM     19  H11 <0> d           6.504  -3.519   3.646  0.00  0.00     0.190 HD
BRANCH  17  20
ATOM     20  C14 <0> d           8.660  -4.700   4.522  0.00  0.00     0.051 A 
ATOM     21  C18 <0> d           9.863  -5.360   4.775  0.00  0.00     0.142 A 
ATOM     22  N3  <0> d          10.264  -5.571   6.012  0.00  0.00    -0.210 N 
ATOM     23  C17 <0> d           9.548  -5.185   7.052  0.00  0.00     0.125 A 
ATOM     24  O3  <0> d          11.493  -6.238   6.233  0.00  0.00    -0.082 OA
ATOM     25  C16 <0> d           8.341  -4.530   6.884  0.00  0.00     0.021 A 
ATOM     26  C15 <0> d           7.879  -4.278   5.605  0.00  0.00     0.020 A 
ENDBRANCH  17  20
ENDBRANCH   3  16
TORSDOF 4
