REMARK  6 active torsions:
REMARK  status: ('A' for Active; 'I' for Inactive)
REMARK    1  A    between atoms: N2_5  and  C6_8 
REMARK    2  A    between atoms: C6_8  and  C7_9 
REMARK    3  A    between atoms: C8_10  and  C14_19 
REMARK    4  A    between atoms: C11_15  and  N5_18 
REMARK    5  A    between atoms: C14_19  and  C15_20 
REMARK    6  A    between atoms: C15_20  and  O2_22 
ROOT
ATOM      1  C7  <0> d           2.367  -4.437   1.071  0.00  0.00     0.071 A 
ATOM      2  C8  <0> d           3.702  -4.630   0.981  0.00  0.00     0.071 A 
ATOM      3  N3  <0> d           4.154  -5.040   2.168  0.00  0.00    -0.233 NA
ATOM      4  C9  <0> d           3.138  -5.114   3.019  0.00  0.00     0.134 A 
ATOM      5  N4  <0> d           2.001  -4.734   2.356  0.00  0.00    -0.305 N 
ATOM      6  C10 <0> d           0.796  -4.712   3.002  0.00  0.00     0.127 A 
ATOM      7  C11 <0> d           0.710  -5.062   4.308  0.00  0.00     0.042 A 
ATOM      8  C12 <0> d           1.865  -5.454   5.014  0.00  0.00     0.034 A 
ATOM      9  C13 <0> d           3.065  -5.487   4.376  0.00  0.00     0.053 A 
ENDROOT
BRANCH   1  10
ATOM     10  C6  <0> d           1.453  -3.974  -0.034  0.00  0.00     0.332 C 
BRANCH  10  11
ATOM     11  N2  <0> d           1.378  -2.507  -0.025  0.00  0.00     0.097 N 
ATOM     12  C3  <0> d           0.693  -2.008  -1.226  0.00  0.00     0.300 C 
ATOM     13  C2  <0> d           0.688  -0.477  -1.207  0.00  0.00     0.264 C 
ATOM     14  N1  <0> d           0.002  -0.004   0.002  0.00  0.00    -0.072 N 
ATOM     15  C1  <0> d          -0.018   1.465   0.010  0.00  0.00     0.269 C 
ATOM     16  C5  <0> d           0.713  -0.490   1.192  0.00  0.00     0.264 C 
ATOM     17  H24 <0> d          -0.945  -0.353   0.010  0.00  0.00     0.279 HD
ATOM     18  C4  <0> d           0.717  -2.021   1.194  0.00  0.00     0.300 C 
ENDBRANCH  10  11
ENDBRANCH   1  10
BRANCH   2  19
ATOM     19  C14 <0> d           4.539  -4.419  -0.254  0.00  0.00     0.172 C 
BRANCH  19  20
ATOM     20  C15 <0> d           5.040  -2.998  -0.283  0.00  0.00     0.264 C 
ATOM     21  O1  <0> d           4.747  -2.235   0.607  0.00  0.00    -0.265 OA
BRANCH  20  22
ATOM     22  O2  <0> d           5.812  -2.579  -1.299  0.00  0.00    -0.326 OA
ATOM     23  C16 <0> d           6.250  -1.220  -1.263  0.00  0.00     0.213 C 
ENDBRANCH  20  22
ENDBRANCH  19  20
ENDBRANCH   2  19
BRANCH   7  24
ATOM     24  N5  <0> d          -0.531  -5.034   4.958  0.00  0.00    -0.398 N 
ATOM     25  H17 <0> d          -1.327  -4.764   4.474  0.00  0.00     0.156 HD
ATOM     26  H18 <0> d          -0.595  -5.285   5.893  0.00  0.00     0.156 HD
ENDBRANCH   7  24
TORSDOF 6
