REMARK  7 active torsions:
REMARK  status: ('A' for Active; 'I' for Inactive)
REMARK    1  A    between atoms: C5_5  and  N1_8 
REMARK    2  A    between atoms: C8_9  and  C21_29 
REMARK    3  A    between atoms: C9_12  and  S1_13 
REMARK    4  A    between atoms: S1_13  and  C10_14 
REMARK    5  A    between atoms: C10_14  and  C11_15 
REMARK       I    between atoms: C11_15  and  N4_17 
REMARK    6  A    between atoms: N4_17  and  N5_18 
REMARK    7  A    between atoms: C12_19  and  C13_20 
ROOT
ATOM      1  N1  <0> d           0.039  -4.193  -0.037  0.00  0.00    -0.297 N 
ATOM      2  C8  <0> d           0.172  -5.053   1.150  0.00  0.00     0.243 A 
ATOM      3  N2  <0> d           0.158  -6.420   0.601  0.00  0.00    -0.283 N 
ATOM      4  N3  <0> d           0.027  -6.281  -0.787  0.00  0.00    -0.151 NA
ATOM      5  C9  <0> d          -0.044  -5.040  -1.133  0.00  0.00     0.190 A 
ATOM      6  H9  <0> d           0.227  -7.249   1.099  0.00  0.00     0.185 HD
ENDROOT
BRANCH   5   7
ATOM      7  S1  <0> d          -0.220  -4.489  -2.797  0.00  0.00    -0.081 SA
BRANCH   7   8
ATOM      8  C10 <0> d          -0.272  -6.022  -3.765  0.00  0.00     0.187 C 
BRANCH   8   9
ATOM      9  C11 <0> d          -0.423  -5.688  -5.227  0.00  0.00     0.247 C 
ATOM     10  O1  <0> d          -0.488  -4.531  -5.581  0.00  0.00    -0.271 OA
ATOM     11  N4  <0> d          -0.484  -6.677  -6.141  0.00  0.00    -0.247 N 
ATOM     12  H12 <0> d          -0.432  -7.603  -5.857  0.00  0.00     0.192 HD
BRANCH  11  13
ATOM     13  N5  <0> d          -0.624  -6.367  -7.500  0.00  0.00    -0.184 NA
ATOM     14  C12 <0> d          -0.684  -7.327  -8.387  0.00  0.00     0.148 C 
BRANCH  14  15
ATOM     15  C13 <0> d          -0.824  -7.017  -9.748  0.00  0.00    -0.009 A 
ATOM     16  C20 <0> d          -0.922  -5.640 -10.366  0.00  0.00     0.161 A 
ATOM     17  N6  <0> d          -1.052  -5.853 -11.811  0.00  0.00    -0.385 N 
ATOM     18  C19 <0> d          -1.048  -7.145 -12.062  0.00  0.00     0.039 A 
ATOM     19  H25 <0> d          -1.132  -5.152 -12.477  0.00  0.00     0.160 HD
ATOM     20  C14 <0> d          -0.909  -7.912 -10.811  0.00  0.00    -0.000 A 
ATOM     21  C18 <0> d          -1.151  -7.867 -13.281  0.00  0.00     0.030 A 
ATOM     22  C15 <0> d          -0.884  -9.323 -10.876  0.00  0.00     0.014 A 
ATOM     23  C16 <0> d          -0.987  -9.944 -12.078  0.00  0.00     0.001 A 
ATOM     24  C17 <0> d          -1.120  -9.221 -13.267  0.00  0.00     0.002 A 
ENDBRANCH  14  15
ENDBRANCH  11  13
ENDBRANCH   8   9
ENDBRANCH   7   8
ENDBRANCH   5   7
BRANCH   1  25
ATOM     25  C5  <0> d          -0.001  -2.796  -0.057  0.00  0.00     0.039 A 
ATOM     26  C4  <0> d           1.123  -2.063   0.302  0.00  0.00     0.030 A 
ATOM     27  C3  <0> d           1.080  -0.682   0.282  0.00  0.00     0.009 A 
ATOM     28  C2  <0> d          -0.079  -0.031  -0.097  0.00  0.00    -0.062 A 
ATOM     29  C1  <0> d          -0.122   1.476  -0.118  0.00  0.00     0.048 C 
ATOM     30  C7  <0> d          -1.201  -0.758  -0.449  0.00  0.00     0.009 A 
ATOM     31  C6  <0> d          -1.164  -2.138  -0.436  0.00  0.00     0.030 A 
ENDBRANCH   1  25
BRANCH   2  32
ATOM     32  C21 <0> d          -0.991  -4.845   2.086  0.00  0.00    -0.015 A 
ATOM     33  C26 <0> d          -2.273  -5.165   1.678  0.00  0.00     0.011 A 
ATOM     34  C25 <0> d          -3.339  -4.979   2.538  0.00  0.00     0.001 A 
ATOM     35  C24 <0> d          -3.124  -4.463   3.803  0.00  0.00     0.000 A 
ATOM     36  C23 <0> d          -1.843  -4.138   4.209  0.00  0.00     0.001 A 
ATOM     37  C22 <0> d          -0.777  -4.329   3.350  0.00  0.00     0.011 A 
ENDBRANCH   2  32
TORSDOF 7
