REMARK  5 active torsions:
REMARK  status: ('A' for Active; 'I' for Inactive)
REMARK    1  A    between atoms: C5_5  and  N1_12 
REMARK    2  A    between atoms: C6_6  and  C8_8 
REMARK    3  A    between atoms: C9_9  and  C10_10 
REMARK    4  A    between atoms: C10_10  and  O1_11 
REMARK       I    between atoms: N1_12  and  C11_13 
REMARK    5  A    between atoms: C11_13  and  C12_15 
ROOT
ATOM      1  C1  <0> d          -1.007   1.483  -0.067  0.00  0.00     0.048 C 
ATOM      2  C2  <0> d          -0.881  -0.019  -0.060  0.00  0.00    -0.060 A 
ATOM      3  C3  <0> d          -0.187  -0.657  -1.074  0.00  0.00     0.009 A 
ATOM      4  C4  <0> d          -0.064  -2.033  -1.077  0.00  0.00     0.031 A 
ATOM      5  C5  <0> d          -0.638  -2.784  -0.062  0.00  0.00     0.053 A 
ATOM      6  C6  <0> d          -1.341  -2.142   0.966  0.00  0.00     0.045 A 
ATOM      7  C7  <0> d          -1.453  -0.751   0.960  0.00  0.00     0.029 A 
ENDROOT
BRANCH   5   8
ATOM      8  N1  <0> d          -0.515  -4.175  -0.065  0.00  0.00    -0.320 N 
ATOM      9  C11 <0> d          -0.342  -4.834  -1.227  0.00  0.00     0.272 C 
ATOM     10  O2  <0> d          -0.251  -4.214  -2.271  0.00  0.00    -0.266 OA
ATOM     11  H10 <0> d          -0.554  -4.667   0.771  0.00  0.00     0.169 HD
BRANCH   9  12
ATOM     12  C12 <0> d          -0.265  -6.299  -1.235  0.00  0.00     0.102 A 
ATOM     13  N2  <0> d          -0.223  -7.117  -0.130  0.00  0.00    -0.357 N 
ATOM     14  C15 <0> d          -0.158  -8.405  -0.546  0.00  0.00     0.091 A 
ATOM     15  C16 <0> d          -0.248  -6.671   1.266  0.00  0.00     0.156 C 
ATOM     16  C14 <0> d          -0.148  -8.428  -1.901  0.00  0.00     0.020 A 
ATOM     17  C13 <0> d          -0.215  -7.106  -2.352  0.00  0.00     0.037 A 
ENDBRANCH   9  12
ENDBRANCH   5   8
BRANCH   6  18
ATOM     18  C8  <0> d          -1.937  -2.908   2.018  0.00  0.00    -0.062 C 
ATOM     19  C9  <0> d          -2.426  -3.535   2.882  0.00  0.00    -0.075 C 
BRANCH  19  20
ATOM     20  C10 <0> d          -3.039  -4.323   3.964  0.00  0.00     0.258 C 
BRANCH  20  21
ATOM     21  O1  <0> d          -3.693  -3.444   4.881  0.00  0.00    -0.389 OA
ATOM     22  H9  <0> d          -4.120  -3.895   5.622  0.00  0.00     0.210 HD
ENDBRANCH  20  21
ENDBRANCH  19  20
ENDBRANCH   6  18
TORSDOF 5
