REMARK  5 active torsions:
REMARK  status: ('A' for Active; 'I' for Inactive)
REMARK    1  A    between atoms: C3_4  and  C5_7 
REMARK    2  A    between atoms: C5_7  and  N2_8 
REMARK    3  A    between atoms: N2_8  and  C6_9 
REMARK    4  A    between atoms: C6_9  and  C7_10 
REMARK    5  A    between atoms: C8_11  and  C10_15 
ROOT
ATOM      1  C7  <0> d          -4.720  -2.290  -2.055  0.00  0.00    -0.002 A 
ATOM      2  C8  <0> d          -5.404  -1.207  -2.473  0.00  0.00     0.095 A 
ATOM      3  N3  <0> d          -6.636  -1.173  -1.899  0.00  0.00    -0.154 NA
ATOM      4  N4  <0> d          -6.869  -2.113  -1.136  0.00  0.00    -0.188 NA
ATOM      5  C9  <0> d          -5.685  -2.988  -1.113  0.00  0.00     0.212 A 
ENDROOT
BRANCH   1   6
ATOM      6  C6  <0> d          -3.326  -2.713  -2.438  0.00  0.00     0.270 C 
BRANCH   6   7
ATOM      7  N2  <0> d          -2.371  -2.217  -1.438  0.00  0.00    -0.069 N 
ATOM      8  H9  <0> d          -2.603  -2.600  -0.533  0.00  0.00     0.277 HD
ATOM      9  H19 <0> d          -2.418  -1.210  -1.399  0.00  0.00     0.277 HD
BRANCH   7  10
ATOM     10  C5  <0> d          -1.012  -2.630  -1.811  0.00  0.00     0.270 C 
BRANCH  10  11
ATOM     11  C3  <0> d          -0.018  -2.113  -0.770  0.00  0.00     0.195 C 
ATOM     12  N1  <0> d          -0.055  -0.639  -0.682  0.00  0.00    -0.281 NA
ATOM     13  C2  <0> d          -0.126  -0.068   0.435  0.00  0.00     0.013 C 
ATOM     14  C1  <0> d          -0.162   1.436   0.528  0.00  0.00     0.066 C 
ATOM     15  C4  <0> d          -0.168  -0.925   1.693  0.00  0.00     0.130 C 
ATOM     16  S1  <0> d          -0.543  -2.571   0.941  0.00  0.00    -0.134 SA
ENDBRANCH  10  11
ENDBRANCH   7  10
ENDBRANCH   6   7
ENDBRANCH   1   6
BRANCH   2  17
ATOM     17  C10 <0> d          -4.885  -0.194  -3.425  0.00  0.00    -0.003 A 
ATOM     18  C15 <0> d          -5.009   1.163  -3.136  0.00  0.00     0.053 A 
ATOM     19  C14 <0> d          -4.521   2.105  -4.023  0.00  0.00     0.105 A 
ATOM     20  C13 <0> d          -3.915   1.695  -5.210  0.00  0.00     0.105 A 
ATOM     21  O1  <0> d          -4.512   3.470  -3.978  0.00  0.00    -0.323 OA
ATOM     22  C12 <0> d          -3.797   0.344  -5.498  0.00  0.00     0.040 A 
ATOM     23  O2  <0> d          -3.527   2.803  -5.906  0.00  0.00    -0.323 OA
ATOM     24  C11 <0> d          -4.279  -0.599  -4.613  0.00  0.00     0.017 A 
ATOM     25  C16 <0> d          -3.532   3.880  -4.950  0.00  0.00     0.352 C 
ENDBRANCH   2  17
TORSDOF 5
