REMARK  5 active torsions:
REMARK  status: ('A' for Active; 'I' for Inactive)
REMARK    1  A    between atoms: C2_2  and  N1_3 
REMARK    2  A    between atoms: C9_11  and  C10_12 
REMARK    3  A    between atoms: C10_12  and  N3_13 
REMARK       I    between atoms: N3_13  and  C12_15 
REMARK    4  A    between atoms: C12_15  and  C13_17 
REMARK    5  A    between atoms: C13_17  and  N4_18 
ROOT
ATOM      1  C13 <0> d           2.974  -3.393   2.033  0.00  0.00     0.239 C 
ENDROOT
BRANCH   1   2
ATOM      2  C12 <0> d           2.718  -2.054   1.392  0.00  0.00     0.238 C 
ATOM      3  N3  <0> d           3.456  -1.660   0.335  0.00  0.00    -0.348 N 
ATOM      4  C11 <0> d           4.584  -2.478  -0.116  0.00  0.00     0.153 C 
ATOM      5  O1  <0> d           1.849  -1.329   1.827  0.00  0.00    -0.272 OA
BRANCH   3   6
ATOM      6  C10 <0> d           3.130  -0.414  -0.363  0.00  0.00     0.204 C 
BRANCH   6   7
ATOM      7  C9  <0> d           2.068  -0.682  -1.399  0.00  0.00     0.125 A 
ATOM      8  N1  <0> d           0.740  -0.436  -1.235  0.00  0.00    -0.332 N 
ATOM      9  C3  <0> d           0.106  -0.808  -2.404  0.00  0.00     0.065 A 
ATOM     10  C8  <0> d           1.115  -1.287  -3.257  0.00  0.00     0.085 A 
ATOM     11  C4  <0> d          -1.213  -0.792  -2.836  0.00  0.00     0.032 A 
ATOM     12  C7  <0> d           0.777  -1.744  -4.533  0.00  0.00     0.034 A 
ATOM     13  N2  <0> d           2.287  -1.185  -2.579  0.00  0.00    -0.231 NA
ATOM     14  C6  <0> d          -0.526  -1.720  -4.941  0.00  0.00     0.002 A 
ATOM     15  C5  <0> d          -1.523  -1.247  -4.100  0.00  0.00     0.002 A 
BRANCH   8  16
ATOM     16  C2  <0> d           0.101   0.125  -0.042  0.00  0.00     0.126 C 
ATOM     17  C1  <0> d           0.162   1.653  -0.102  0.00  0.00     0.027 C 
ENDBRANCH   8  16
ENDBRANCH   6   7
ENDBRANCH   3   6
ENDBRANCH   1   2
BRANCH   1  18
ATOM     18  N4  <0> d           2.050  -3.584   3.151  0.00  0.00    -0.259 N 
ATOM     19  C24 <0> d           0.841  -4.148   3.046  0.00  0.00     0.326 C 
ATOM     20  N5  <0> d           0.173  -4.143   4.213  0.00  0.00    -0.324 N 
ATOM     21  O3  <0> d           0.400  -4.613   2.013  0.00  0.00    -0.247 OA
ATOM     22  C15 <0> d           1.008  -3.378   5.167  0.00  0.00     0.117 C 
ATOM     23  H33 <0> d          -0.682  -4.552   4.406  0.00  0.00     0.165 HD
ATOM     24  C14 <0> d           2.318  -3.236   4.429  0.00  0.00     0.256 C 
ATOM     25  C20 <0> d           0.350  -2.036   5.418  0.00  0.00     0.050 C 
ATOM     26  C16 <0> d           1.184  -4.201   6.434  0.00  0.00     0.045 C 
ATOM     27  O2  <0> d           3.392  -2.889   4.869  0.00  0.00    -0.270 OA
ATOM     28  C19 <0> d           0.875  -1.268   6.619  0.00  0.00    -0.045 C 
ATOM     29  C18 <0> d           1.079  -2.158   7.840  0.00  0.00     0.013 C 
ATOM     30  C21 <0> d          -0.167  -0.191   6.991  0.00  0.00     0.015 C 
ATOM     31  C22 <0> d           2.180  -0.545   6.272  0.00  0.00     0.015 C 
ATOM     32  C17 <0> d           1.924  -3.381   7.492  0.00  0.00    -0.015 C 
ATOM     33  C23 <0> d           2.122  -4.236   8.748  0.00  0.00     0.010 C 
ENDBRANCH   1  18
TORSDOF 5
