REMARK  4 active torsions:
REMARK  status: ('A' for Active; 'I' for Inactive)
REMARK    1  A    between atoms: C5_6  and  C7_9 
REMARK    2  A    between atoms: C7_9  and  O5_26 
REMARK    3  A    between atoms: N1_16  and  C15_19 
REMARK    4  A    between atoms: C15_19  and  N2_20 
ROOT
ATOM      1  C7  <0> d          -1.299   5.583  -0.189  0.00  0.00     0.180 A 
ATOM      2  C8  <0> d          -1.868   6.218   1.059  0.00  0.00     0.013 A 
ATOM      3  C9  <0> d          -3.135   6.252   1.597  0.00  0.00     0.013 A 
ATOM      4  C10 <0> d          -3.362   6.928   2.783  0.00  0.00     0.001 A 
ATOM      5  C11 <0> d          -2.315   7.567   3.423  0.00  0.00     0.002 A 
ATOM      6  C12 <0> d          -1.045   7.534   2.885  0.00  0.00     0.030 A 
ATOM      7  C13 <0> d          -0.808   6.855   1.691  0.00  0.00     0.049 A 
ATOM      8  N1  <0> d           0.366   6.679   0.959  0.00  0.00    -0.287 N 
ATOM      9  C14 <0> d           0.169   5.950  -0.152  0.00  0.00     0.266 A 
ATOM     10  O3  <0> d           1.010   5.643  -0.971  0.00  0.00    -0.269 OA
ENDROOT
BRANCH   1  11
ATOM     11  C5  <0> d          -1.473   4.064  -0.146  0.00  0.00     0.128 C 
ATOM     12  C4  <0> d          -0.913   3.522   1.154  0.00  0.00     0.139 C 
ATOM     13  C3  <0> d          -0.738   2.021   1.271  0.00  0.00     0.116 C 
ATOM     14  O1  <0> d          -0.617   4.259   2.063  0.00  0.00    -0.297 OA
ATOM     15  C2  <0> d          -0.019   1.526   0.010  0.00  0.00     0.060 C 
ATOM     16  C1  <0> d           0.002  -0.004   0.002  0.00  0.00     0.046 C 
ATOM     17  O2  <0> d          -0.711   2.000  -1.146  0.00  0.00    -0.380 OA
ATOM     18  C20 <0> d           1.416   2.056  -0.000  0.00  0.00     0.046 C 
ATOM     19  C6  <0> d          -0.700   3.420  -1.303  0.00  0.00     0.185 C 
ENDBRANCH   1  11
BRANCH   1  20
ATOM     20  O5  <0> d          -1.921   6.123  -1.357  0.00  0.00    -0.374 OA
ATOM     21  H23 <0> d          -1.889   7.207  -1.545  0.00  0.00     0.211 HD
ENDBRANCH   1  20
BRANCH   8  22
ATOM     22  C15 <0> d           1.666   7.228   1.356  0.00  0.00     0.405 C 
BRANCH  22  23
ATOM     23  N2  <0> d           1.829   8.568   0.778  0.00  0.00     0.110 N 
ATOM     24  C19 <0> d           2.766   9.374   1.574  0.00  0.00     0.300 C 
ATOM     25  C18 <0> d           2.861  10.779   0.971  0.00  0.00     0.198 C 
ATOM     26  O4  <0> d           3.261  10.679  -0.398  0.00  0.00    -0.388 OA
ATOM     27  C17 <0> d           2.370   9.901  -1.202  0.00  0.00     0.198 C 
ATOM     28  C16 <0> d           2.270   8.487  -0.622  0.00  0.00     0.300 C 
ENDBRANCH  22  23
ENDBRANCH   8  22
TORSDOF 4
