REMARK  5 active torsions:
REMARK  status: ('A' for Active; 'I' for Inactive)
REMARK    1  A    between atoms: C2_2  and  C3_3 
REMARK    2  A    between atoms: C2_2  and  N4_14 
REMARK       I    between atoms: C3_3  and  N1_5 
REMARK    3  A    between atoms: N1_5  and  C4_6 
REMARK    4  A    between atoms: C4_6  and  C5_7 
REMARK       I    between atoms: N4_14  and  C9_15 
REMARK    5  A    between atoms: C9_15  and  C10_17 
ROOT
ATOM      1  C1  <0> d          -0.019   1.526   0.010  0.00  0.00     0.042 C 
ATOM      2  C2  <0> d           0.002  -0.004   0.002  0.00  0.00     0.172 C 
ENDROOT
BRANCH   2   3
ATOM      3  C3  <0> d           0.707  -0.490  -1.238  0.00  0.00     0.240 C 
ATOM      4  O1  <0> d           0.120  -1.191  -2.034  0.00  0.00    -0.271 OA
ATOM      5  N1  <0> d           1.991  -0.146  -1.462  0.00  0.00    -0.352 N 
ATOM      6  H5  <0> d           2.461   0.415  -0.825  0.00  0.00     0.162 HD
BRANCH   5   7
ATOM      7  C4  <0> d           2.677  -0.618  -2.667  0.00  0.00     0.201 C 
BRANCH   7   8
ATOM      8  C5  <0> d           4.091  -0.097  -2.678  0.00  0.00     0.124 A 
ATOM      9  N3  <0> d           5.164  -0.719  -2.142  0.00  0.00    -0.328 N 
ATOM     10  C7  <0> d           6.251   0.082  -2.366  0.00  0.00     0.124 A 
ATOM     11  C8  <0> d           5.165  -2.012  -1.453  0.00  0.00     0.159 C 
ATOM     12  C6  <0> d           5.803   1.170  -3.024  0.00  0.00     0.161 A 
ATOM     13 Cl1  <0> d           7.889  -0.238  -1.890  0.00  0.00    -0.063 Cl
ATOM     14  N2  <0> d           4.480   1.034  -3.200  0.00  0.00    -0.242 NA
ENDBRANCH   7   8
ENDBRANCH   5   7
ENDBRANCH   2   3
BRANCH   2  15
ATOM     15  N4  <0> d          -1.372  -0.511   0.012  0.00  0.00    -0.348 N 
ATOM     16  C9  <0> d          -2.029  -0.655   1.181  0.00  0.00     0.222 C 
ATOM     17  O2  <0> d          -1.481  -0.365   2.224  0.00  0.00    -0.273 OA
ATOM     18  H12 <0> d          -1.810  -0.743  -0.822  0.00  0.00     0.163 HD
BRANCH  16  19
ATOM     19  C10 <0> d          -3.442  -1.177   1.191  0.00  0.00     0.082 C 
ATOM     20  C14 <0> d          -3.953  -1.244   2.634  0.00  0.00     0.040 C 
ATOM     21  C13 <0> d          -5.415  -1.699   2.629  0.00  0.00     0.168 C 
ATOM     22  O3  <0> d          -6.191  -0.797   1.838  0.00  0.00    -0.391 OA
ATOM     23  C12 <0> d          -5.789  -0.729   0.468  0.00  0.00     0.168 C 
ATOM     24  C11 <0> d          -4.342  -0.234   0.386  0.00  0.00     0.040 C 
ENDBRANCH  16  19
ENDBRANCH   2  15
TORSDOF 5
