REMARK  7 active torsions:
REMARK  status: ('A' for Active; 'I' for Inactive)
REMARK    1  A    between atoms: C4_4  and  C7_7 
REMARK    2  A    between atoms: C7_7  and  C8_8 
REMARK    3  A    between atoms: C7_7  and  N4_25 
REMARK    4  A    between atoms: C8_8  and  N1_9 
REMARK       I    between atoms: N1_9  and  C9_10 
REMARK    5  A    between atoms: C9_10  and  C10_12 
REMARK    6  A    between atoms: C10_12  and  N2_13 
REMARK    7  A    between atoms: N2_13  and  C11_14 
ROOT
ATOM      1  N1  <0> d          -0.012   0.945  -0.009  0.00  0.00    -0.357 N 
ATOM      2  C9  <0> d          -1.198   1.583   0.050  0.00  0.00     0.235 C 
ATOM      3  O1  <0> d          -1.232   2.787   0.193  0.00  0.00    -0.272 OA
ATOM      4  H9  <0> d           0.019  -0.147  -0.135  0.00  0.00     0.162 HD
ENDROOT
BRANCH   1   5
ATOM      5  C8  <0> d           1.235   1.707   0.093  0.00  0.00     0.160 C 
BRANCH   5   6
ATOM      6  C7  <0> d           2.422   0.741   0.109  0.00  0.00     0.238 C 
BRANCH   6   7
ATOM      7  C4  <0> d           2.507   0.029  -1.217  0.00  0.00    -0.026 A 
ATOM      8  C3  <0> d           2.014  -1.256  -1.344  0.00  0.00     0.009 A 
ATOM      9  C2  <0> d           2.092  -1.909  -2.560  0.00  0.00     0.001 A 
ATOM     10  C1  <0> d           2.663  -1.277  -3.649  0.00  0.00     0.000 A 
ATOM     11  C6  <0> d           3.157   0.008  -3.521  0.00  0.00     0.001 A 
ATOM     12  C5  <0> d           3.074   0.663  -2.307  0.00  0.00     0.009 A 
ENDBRANCH   6   7
BRANCH   6  13
ATOM     13  N4  <0> d           3.662   1.494   0.341  0.00  0.00    -0.061 N 
ATOM     14  C21 <0> d           4.822   0.582   0.452  0.00  0.00     0.236 C 
ATOM     15  C20 <0> d           5.791   1.207   1.474  0.00  0.00     0.029 C 
ATOM     16  C19 <0> d           5.095   2.502   1.951  0.00  0.00     0.029 C 
ATOM     17  C18 <0> d           3.603   2.233   1.628  0.00  0.00     0.236 C 
ATOM     18  H25 <0> d           3.765   2.174  -0.517  0.00  0.00     0.280 HD
ENDBRANCH   6  13
ENDBRANCH   5   6
ENDBRANCH   1   5
BRANCH   2  19
ATOM     19  C10 <0> d          -2.481   0.801  -0.062  0.00  0.00     0.224 C 
BRANCH  19  20
ATOM     20  N2  <0> d          -3.621   1.716   0.031  0.00  0.00    -0.365 N 
ATOM     21  H12 <0> d          -3.450   2.795   0.162  0.00  0.00     0.161 HD
BRANCH  20  22
ATOM     22  C11 <0> d          -4.906   1.226  -0.046  0.00  0.00     0.148 A 
ATOM     23  C13 <0> d          -6.057   2.138   0.051  0.00  0.00     0.034 A 
ATOM     24  C12 <0> d          -7.279   1.458  -0.053  0.00  0.00     0.095 A 
ATOM     25  C14 <0> d          -6.104   3.531   0.210  0.00  0.00     0.017 A 
ATOM     26  S1  <0> d          -6.777  -0.230  -0.247  0.00  0.00     0.286 S 
ATOM     27  C17 <0> d          -8.478   2.106   0.006  0.00  0.00     0.026 A 
ATOM     28  N3  <0> d          -5.115  -0.043  -0.200  0.00  0.00    -0.141 NA
ATOM     29  O2  <0> d          -7.130  -0.639  -1.561  0.00  0.00    -0.198 OA
ATOM     30  O3  <0> d          -7.167  -0.935   0.924  0.00  0.00    -0.198 OA
ATOM     31  C16 <0> d          -8.506   3.485   0.170  0.00  0.00     0.002 A 
ATOM     32  C15 <0> d          -7.316   4.183   0.270  0.00  0.00     0.001 A 
ENDBRANCH  20  22
ENDBRANCH  19  20
ENDBRANCH   2  19
TORSDOF 7
