REMARK  7 active torsions:
REMARK  status: ('A' for Active; 'I' for Inactive)
REMARK    1  A    between atoms: C4_4  and  C7_7 
REMARK    2  A    between atoms: C7_7  and  C8_8 
REMARK    3  A    between atoms: C7_7  and  S2_24 
REMARK    4  A    between atoms: C8_8  and  N1_9 
REMARK    5  A    between atoms: N1_9  and  S1_10 
REMARK    6  A    between atoms: S1_10  and  C9_13 
REMARK    7  A    between atoms: S2_24  and  C16_27 
ROOT
ATOM      1  C8  <0> d           3.753   3.057   1.228  0.00  0.00     0.157 C 
ENDROOT
BRANCH   1   2
ATOM      2  C7  <0> d           3.672   2.182  -0.024  0.00  0.00     0.164 C 
BRANCH   2   3
ATOM      3  C4  <0> d           2.377   1.411  -0.015  0.00  0.00    -0.038 A 
ATOM      4  C3  <0> d           1.171   2.086   0.002  0.00  0.00     0.008 A 
ATOM      5  C2  <0> d          -0.017   1.378   0.010  0.00  0.00     0.001 A 
ATOM      6  C1  <0> d           0.002  -0.004   0.002  0.00  0.00     0.000 A 
ATOM      7  C6  <0> d           1.208  -0.679  -0.013  0.00  0.00     0.001 A 
ATOM      8  C5  <0> d           2.396   0.029  -0.022  0.00  0.00     0.008 A 
ENDBRANCH   2   3
BRANCH   2   9
ATOM      9  S2  <0> d           3.739   3.233  -1.501  0.00  0.00     0.185 S 
ATOM     10  O5  <0> d           2.618   4.105  -1.533  0.00  0.00    -0.222 OA
ATOM     11  O6  <0> d           5.055   3.738  -1.683  0.00  0.00    -0.222 OA
BRANCH   9  12
ATOM     12  C16 <0> d           3.490   2.131  -2.853  0.00  0.00     0.060 A 
ATOM     13  C21 <0> d           2.211   1.876  -3.311  0.00  0.00     0.023 A 
ATOM     14  C20 <0> d           2.015   1.012  -4.371  0.00  0.00     0.002 A 
ATOM     15  C19 <0> d           3.099   0.402  -4.975  0.00  0.00     0.000 A 
ATOM     16  C18 <0> d           4.378   0.656  -4.517  0.00  0.00     0.002 A 
ATOM     17  C17 <0> d           4.574   1.525  -3.460  0.00  0.00     0.023 A 
ENDBRANCH   9  12
ENDBRANCH   2   9
ENDBRANCH   1   2
BRANCH   1  18
ATOM     18  N1  <0> d           5.012   3.806   1.219  0.00  0.00    -0.314 N 
ATOM     19  H10 <0> d           5.727   3.547   0.617  0.00  0.00     0.172 HD
BRANCH  18  20
ATOM     20  S1  <0> d           5.215   5.097   2.237  0.00  0.00     0.258 S 
ATOM     21  O1  <0> d           6.529   5.588   2.013  0.00  0.00    -0.201 OA
ATOM     22  O2  <0> d           4.061   5.913   2.093  0.00  0.00    -0.201 OA
BRANCH  20  23
ATOM     23  C9  <0> d           5.186   4.470   3.884  0.00  0.00     0.082 A 
ATOM     24  C14 <0> d           3.988   4.387   4.567  0.00  0.00     0.065 A 
ATOM     25  C13 <0> d           3.963   3.890   5.861  0.00  0.00     0.109 A 
ATOM     26  C12 <0> d           5.151   3.486   6.470  0.00  0.00     0.071 A 
ATOM     27  O3  <0> d           2.964   3.692   6.756  0.00  0.00    -0.259 OA
ATOM     28  C11 <0> d           6.349   3.577   5.780  0.00  0.00     0.034 A 
ATOM     29  N2  <0> d           4.813   3.046   7.749  0.00  0.00    -0.300 N 
ATOM     30  C10 <0> d           6.364   4.069   4.489  0.00  0.00     0.028 A 
ATOM     31  C15 <0> d           3.479   3.185   7.887  0.00  0.00     0.370 A 
ATOM     32  H2  <0> d           5.426   2.702   8.418  0.00  0.00     0.171 HD
ATOM     33  O4  <0> d           2.842   2.897   8.881  0.00  0.00    -0.238 OA
ENDBRANCH  20  23
ENDBRANCH  18  20
ENDBRANCH   1  18
TORSDOF 7
