REMARK  8 active torsions:
REMARK  status: ('A' for Active; 'I' for Inactive)
REMARK    1  A    between atoms: C9_10  and  N1_13 
REMARK    2  A    between atoms: C10_11  and  O2_12 
REMARK    3  A    between atoms: N1_13  and  C11_14 
REMARK    4  A    between atoms: N1_13  and  C13_17 
REMARK    5  A    between atoms: C11_14  and  C12_15 
REMARK    6  A    between atoms: C12_15  and  O3_16 
REMARK    7  A    between atoms: C13_17  and  C14_18 
REMARK    8  A    between atoms: C14_18  and  O4_19 
ROOT
ATOM      1  C1  <0> d           0.542   1.400  -0.188  0.00  0.00     0.051 C 
ATOM      2  C2  <0> d           0.489  -0.105  -0.158  0.00  0.00    -0.028 A 
ATOM      3  C3  <0> d           0.547  -0.820  -1.337  0.00  0.00     0.009 A 
ATOM      4  C4  <0> d           0.497  -2.201  -1.311  0.00  0.00     0.001 A 
ATOM      5  C5  <0> d           0.388  -2.865  -0.104  0.00  0.00     0.012 A 
ATOM      6  C6  <0> d           0.329  -2.154   1.082  0.00  0.00     0.006 A 
ATOM      7  C7  <0> d           0.388  -0.771   1.060  0.00  0.00     0.083 A 
ATOM      8  O1  <0> d           0.350  -0.034   2.200  0.00  0.00    -0.348 OA
ATOM      9  C8  <0> d          -0.117  -0.670   3.391  0.00  0.00     0.212 C 
ATOM     10  C9  <0> d           0.617  -2.008   3.546  0.00  0.00     0.245 C 
ATOM     11  C10 <0> d           0.205  -2.914   2.378  0.00  0.00     0.187 C 
ENDROOT
BRANCH  10  12
ATOM     12  N1  <0> d           0.236  -2.638   4.817  0.00  0.00    -0.058 N 
ATOM     13  H22 <0> d           0.386  -1.987   5.574  0.00  0.00     0.280 HD
BRANCH  12  14
ATOM     14  C11 <0> d          -1.183  -3.015   4.770  0.00  0.00     0.261 C 
BRANCH  14  15
ATOM     15  C12 <0> d          -1.627  -3.506   6.149  0.00  0.00     0.192 C 
BRANCH  15  16
ATOM     16  O3  <0> d          -1.552  -2.429   7.085  0.00  0.00    -0.399 OA
ATOM     17  H16 <0> d          -1.820  -2.669   7.983  0.00  0.00     0.209 HD
ENDBRANCH  15  16
ENDBRANCH  14  15
ENDBRANCH  12  14
BRANCH  12  18
ATOM     18  C13 <0> d           1.054  -3.838   5.034  0.00  0.00     0.261 C 
BRANCH  18  19
ATOM     19  C14 <0> d           2.527  -3.438   5.147  0.00  0.00     0.192 C 
BRANCH  19  20
ATOM     20  O4  <0> d           2.708  -2.609   6.297  0.00  0.00    -0.399 OA
ATOM     21  H21 <0> d           3.620  -2.317   6.431  0.00  0.00     0.209 HD
ENDBRANCH  19  20
ENDBRANCH  18  19
ENDBRANCH  12  18
ENDBRANCH  10  12
BRANCH  11  22
ATOM     22  O2  <0> d           1.069  -4.051   2.347  0.00  0.00    -0.389 OA
ATOM     23  H11 <0> d           0.875  -4.673   1.632  0.00  0.00     0.210 HD
ENDBRANCH  11  22
TORSDOF 8
