REMARK  5 active torsions:
REMARK  status: ('A' for Active; 'I' for Inactive)
REMARK    1  A    between atoms: C2_2  and  C14_17 
REMARK    2  A    between atoms: C4_5  and  C5_6 
REMARK    3  A    between atoms: C5_6  and  N1_7 
REMARK    4  A    between atoms: C15_18  and  C16_19 
REMARK    5  A    between atoms: C16_19  and  N3_20 
ROOT
ATOM      1  C1  <0> d          -0.016   1.347   0.009  0.00  0.00     0.037 A 
ATOM      2  C2  <0> d           1.192   2.040   0.002  0.00  0.00     0.025 A 
ATOM      3  C3  <0> d           2.356   1.319  -0.013  0.00  0.00     0.070 A 
ATOM      4  S1  <0> d           1.751  -0.360  -0.017  0.00  0.00    -0.103 SA
ATOM      5  C4  <0> d           0.002  -0.004   0.002  0.00  0.00     0.012 A 
ENDROOT
BRANCH   5   6
ATOM      6  C5  <0> d          -1.159  -0.965   0.008  0.00  0.00     0.318 C 
BRANCH   6   7
ATOM      7  N1  <0> d          -1.549  -1.270  -1.375  0.00  0.00     0.095 N 
ATOM      8  C13 <0> d          -2.519  -2.383  -1.417  0.00  0.00     0.305 C 
ATOM      9  C12 <0> d          -2.205  -3.240  -2.619  0.00  0.00     0.216 C 
ATOM     10  N2  <0> d          -2.510  -2.667  -3.894  0.00  0.00    -0.065 N 
ATOM     11  C11 <0> d          -2.921  -4.604  -2.643  0.00  0.00     0.036 C 
ATOM     12  C8  <0> d          -1.958  -1.375  -4.204  0.00  0.00     0.237 C 
ATOM     13  C9  <0> d          -2.434  -3.725  -4.896  0.00  0.00     0.235 C 
ATOM     14  H24 <0> d          -3.503  -2.496  -3.833  0.00  0.00     0.280 HD
ATOM     15  C7  <0> d          -2.740  -0.327  -3.386  0.00  0.00     0.058 C 
ATOM     16  C6  <0> d          -2.045  -0.073  -2.056  0.00  0.00     0.274 C 
ATOM     17  C10 <0> d          -2.730  -5.039  -4.125  0.00  0.00     0.030 C 
ENDBRANCH   6   7
ENDBRANCH   5   6
BRANCH   2  18
ATOM     18  C14 <0> d           1.217   3.472   0.009  0.00  0.00    -0.065 C 
ATOM     19  C15 <0> d           1.237   4.646   0.014  0.00  0.00    -0.074 C 
BRANCH  19  20
ATOM     20  C16 <0> d           1.263   6.117   0.021  0.00  0.00     0.323 C 
BRANCH  20  21
ATOM     21  N3  <0> d           2.656   6.583   0.011  0.00  0.00    -0.069 N 
ATOM     22  H22 <0> d           3.133   6.234   0.829  0.00  0.00     0.275 HD
ATOM     23  H23 <0> d           3.118   6.243  -0.819  0.00  0.00     0.275 HD
ATOM     24  H25 <0> d           2.673   7.592   0.016  0.00  0.00     0.275 HD
ENDBRANCH  20  21
ENDBRANCH  19  20
ENDBRANCH   2  18
TORSDOF 5
