REMARK  2 active torsions:
REMARK  status: ('A' for Active; 'I' for Inactive)
REMARK    1  A    between atoms: C4_4  and  C9_12 
REMARK       I    between atoms: C9_12  and  N3_14 
REMARK    2  A    between atoms: N3_14  and  C10_15 
ROOT
ATOM      1  C1  <0> d           2.566   5.441  -0.899  0.00  0.00     0.070 C 
ATOM      2  C2  <0> d           2.538   3.960  -0.627  0.00  0.00     0.034 A 
ATOM      3  C3  <0> d           1.336   3.277  -0.725  0.00  0.00     0.045 A 
ATOM      4  C4  <0> d           1.310   1.905  -0.472  0.00  0.00     0.051 A 
ATOM      5  C5  <0> d           2.522   1.279  -0.120  0.00  0.00     0.061 A 
ATOM      6  C6  <0> d           2.897  -0.094   0.215  0.00  0.00     0.074 A 
ATOM      7  N1  <0> d           4.172  -0.097   0.459  0.00  0.00    -0.130 NA
ATOM      8  O1  <0> d           4.693   1.206   0.296  0.00  0.00    -0.192 OA
ATOM      9  C7  <0> d           3.697   2.047  -0.050  0.00  0.00     0.208 A 
ATOM     10  N2  <0> d           3.656   3.347  -0.301  0.00  0.00    -0.227 NA
ATOM     11  C8  <0> d           1.975  -1.284   0.269  0.00  0.00     0.074 C 
ENDROOT
BRANCH   4  12
ATOM     12  C9  <0> d           0.050   1.135  -0.564  0.00  0.00     0.258 C 
ATOM     13  O2  <0> d           0.066  -0.009  -0.974  0.00  0.00    -0.267 OA
ATOM     14  N3  <0> d          -1.116   1.704  -0.198  0.00  0.00    -0.302 N 
ATOM     15  H8  <0> d          -1.128   2.617   0.130  0.00  0.00     0.171 HD
BRANCH  14  16
ATOM     16  C10 <0> d          -2.292   0.987  -0.288  0.00  0.00     0.164 A 
ATOM     17  S1  <0> d          -2.486  -0.687  -0.867  0.00  0.00    -0.091 SA
ATOM     18  C12 <0> d          -4.302  -0.853  -0.663  0.00  0.00     0.104 A 
ATOM     19  C11 <0> d          -4.644   0.550  -0.115  0.00  0.00     0.162 A 
ATOM     20  N4  <0> d          -3.480   1.396   0.024  0.00  0.00    -0.266 NA
ENDBRANCH  14  16
ENDBRANCH   4  12
TORSDOF 2
