REMARK  4 active torsions:
REMARK  status: ('A' for Active; 'I' for Inactive)
REMARK    1  A    between atoms: N1_6  and  C7_8 
REMARK    2  A    between atoms: C7_8  and  C8_9 
REMARK    3  A    between atoms: C9_10  and  O3_26 
REMARK    4  A    between atoms: C15_18  and  C17_20 
ROOT
ATOM      1  C8  <0> d           2.971  -2.034   2.241  0.00  0.00     0.035 A 
ATOM      2  C9  <0> d           3.874  -2.852   1.580  0.00  0.00     0.076 A 
ATOM      3  C10 <0> d           5.204  -2.462   1.433  0.00  0.00     0.038 A 
ATOM      4  C11 <0> d           5.639  -1.277   1.949  0.00  0.00     0.017 A 
ATOM      5  C12 <0> d           4.746  -0.447   2.643  0.00  0.00    -0.000 A 
ATOM      6  C13 <0> d           3.393  -0.821   2.760  0.00  0.00     0.100 A 
ATOM      7  O1  <0> d           2.509   0.010   3.364  0.00  0.00    -0.273 OA
ATOM      8  C14 <0> d           3.005   0.859   4.293  0.00  0.00     0.301 C 
ATOM      9  O2  <0> d           2.384   1.113   5.309  0.00  0.00    -0.259 OA
ATOM     10  C15 <0> d           4.321   1.467   4.034  0.00  0.00     0.069 C 
ATOM     11  C16 <0> d           5.192   0.772   3.215  0.00  0.00     0.034 C 
ENDROOT
BRANCH   1  12
ATOM     12  C7  <0> d           1.534  -2.461   2.390  0.00  0.00     0.279 C 
BRANCH  12  13
ATOM     13  N1  <0> d           0.758  -1.980   1.239  0.00  0.00    -0.066 N 
ATOM     14  C5  <0> d          -0.613  -2.496   1.324  0.00  0.00     0.239 C 
ATOM     15  C4  <0> d          -1.402  -2.064   0.086  0.00  0.00     0.008 C 
ATOM     16  C3  <0> d          -1.434  -0.535   0.015  0.00  0.00     0.011 C 
ATOM     17  C22 <0> d          -0.728  -2.620  -1.170  0.00  0.00     0.011 C 
ATOM     18  C2  <0> d           0.002  -0.004   0.002  0.00  0.00     0.008 C 
ATOM     19  C1  <0> d          -0.019   1.526   0.010  0.00  0.00     0.011 C 
ATOM     20  C6  <0> d           0.740  -0.512   1.242  0.00  0.00     0.239 C 
ATOM     21  H25 <0> d           1.188  -2.307   0.386  0.00  0.00     0.280 HD
ENDBRANCH  12  13
ENDBRANCH   1  12
BRANCH   2  22
ATOM     22  O3  <0> d           3.461  -4.041   1.073  0.00  0.00    -0.360 OA
ATOM     23  H21 <0> d           3.140  -3.990   0.162  0.00  0.00     0.217 HD
ENDBRANCH   2  22
BRANCH  10  24
ATOM     24  C17 <0> d           4.701   2.764   4.637  0.00  0.00     0.072 A 
ATOM     25  N2  <0> d           5.896   3.284   4.382  0.00  0.00    -0.260 NA
ATOM     26  C21 <0> d           6.269   4.439   4.895  0.00  0.00     0.117 A 
ATOM     27  C20 <0> d           5.429   5.150   5.731  0.00  0.00     0.019 A 
ATOM     28  C19 <0> d           4.172   4.641   6.028  0.00  0.00     0.004 A 
ATOM     29  C18 <0> d           3.803   3.429   5.472  0.00  0.00     0.032 A 
ENDBRANCH  10  24
TORSDOF 4
