REMARK  5 active torsions:
REMARK  status: ('A' for Active; 'I' for Inactive)
REMARK    1  A    between atoms: C5_5  and  C8_8 
REMARK    2  A    between atoms: C9_10  and  S1_13 
REMARK    3  A    between atoms: S1_13  and  C10_14 
REMARK    4  A    between atoms: C10_14  and  C11_15 
REMARK       I    between atoms: C11_15  and  N4_17 
REMARK    5  A    between atoms: N4_17  and  C12_18 
ROOT
ATOM      1  C8  <0> d          -0.014   1.310   0.060  0.00  0.00     0.182 A 
ATOM      2  N1  <0> d           1.296   1.731   0.041  0.00  0.00    -0.201 NA
ATOM      3  C9  <0> d           2.049   0.593   0.020  0.00  0.00     0.185 A 
ATOM      4  N2  <0> d           1.217  -0.425   0.026  0.00  0.00    -0.253 N 
ATOM      5  N3  <0> d           0.004  -0.002   0.049  0.00  0.00    -0.152 NA
ATOM      6  H15 <0> d           1.423  -1.506   0.015  0.00  0.00     0.191 HD
ENDROOT
BRANCH   3   7
ATOM      7  S1  <0> d           3.809   0.504  -0.009  0.00  0.00    -0.081 SA
BRANCH   7   8
ATOM      8  C10 <0> d           4.032  -1.292  -0.027  0.00  0.00     0.185 C 
BRANCH   8   9
ATOM      9  C11 <0> d           5.504  -1.615  -0.053  0.00  0.00     0.231 C 
ATOM     10  O1  <0> d           6.322  -0.719  -0.060  0.00  0.00    -0.272 OA
ATOM     11  N4  <0> d           5.912  -2.900  -0.070  0.00  0.00    -0.325 N 
ATOM     12  H10 <0> d           5.175  -3.712   0.011  0.00  0.00     0.169 HD
BRANCH  11  13
ATOM     13  C12 <0> d           7.274  -3.200  -0.189  0.00  0.00     0.051 A 
ATOM     14  C17 <0> d           7.679  -4.322  -0.901  0.00  0.00     0.033 A 
ATOM     15  C16 <0> d           9.025  -4.615  -1.018  0.00  0.00     0.020 A 
ATOM     16  I1  <0> d           6.253  -5.568  -1.796  0.00  0.00    -0.042 I 
ATOM     17  C15 <0> d           9.966  -3.792  -0.427  0.00  0.00     0.001 A 
ATOM     18  C14 <0> d           9.566  -2.675   0.282  0.00  0.00     0.002 A 
ATOM     19  C13 <0> d           8.223  -2.373   0.398  0.00  0.00     0.031 A 
ENDBRANCH  11  13
ENDBRANCH   8   9
ENDBRANCH   7   8
ENDBRANCH   3   7
BRANCH   1  20
ATOM     20  C5  <0> d          -1.214   2.173   0.087  0.00  0.00     0.013 A 
ATOM     21  C4  <0> d          -2.487   1.602   0.105  0.00  0.00     0.016 A 
ATOM     22  C3  <0> d          -3.603   2.412   0.131  0.00  0.00     0.007 A 
ATOM     23  C2  <0> d          -3.462   3.789   0.138  0.00  0.00    -0.062 A 
ATOM     24  C1  <0> d          -4.686   4.668   0.166  0.00  0.00     0.048 C 
ATOM     25  C7  <0> d          -2.203   4.361   0.120  0.00  0.00     0.007 A 
ATOM     26  C6  <0> d          -1.079   3.562   0.100  0.00  0.00     0.016 A 
ENDBRANCH   1  20
TORSDOF 5
