REMARK  8 active torsions:
REMARK  status: ('A' for Active; 'I' for Inactive)
REMARK    1  A    between atoms: C3_3  and  C8_11 
REMARK    2  A    between atoms: N1_5  and  C5_7 
REMARK    3  A    between atoms: C5_7  and  C6_8 
REMARK    4  A    between atoms: C6_8  and  O1_9 
REMARK    5  A    between atoms: C8_11  and  N3_12 
REMARK    6  A    between atoms: N3_12  and  C9_13 
REMARK    7  A    between atoms: C9_13  and  C11_15 
REMARK    8  A    between atoms: C14_18  and  N4_21 
ROOT
ATOM      1  C9  <0> d           1.360   0.294  -4.432  0.00  0.00     0.215 C 
ATOM      2  C10 <0> d           0.755  -0.783  -5.335  0.00  0.00     0.045 C 
ENDROOT
BRANCH   1   3
ATOM      3  N3  <0> d           1.376  -0.185  -3.043  0.00  0.00    -0.063 N 
ATOM      4  H15 <0> d           1.849   0.490  -2.460  0.00  0.00     0.278 HD
ATOM      5  H34 <0> d           1.861  -1.068  -2.997  0.00  0.00     0.278 HD
BRANCH   3   6
ATOM      6  C8  <0> d          -0.004  -0.359  -2.570  0.00  0.00     0.275 C 
BRANCH   6   7
ATOM      7  C3  <0> d           0.012  -0.850  -1.145  0.00  0.00     0.017 A 
ATOM      8  C2  <0> d           0.011  -0.048   0.002  0.00  0.00     0.061 A 
ATOM      9  C1  <0> d          -0.004   1.458   0.027  0.00  0.00     0.073 C 
ATOM     10  N2  <0> d           0.032  -0.833   1.048  0.00  0.00    -0.177 NA
ATOM     11  N1  <0> d           0.037  -2.160   0.601  0.00  0.00    -0.272 N 
ATOM     12  C4  <0> d           0.028  -2.143  -0.749  0.00  0.00     0.036 A 
ATOM     13  C7  <0> d           0.034  -3.349  -1.652  0.00  0.00     0.070 C 
BRANCH  11  14
ATOM     14  C5  <0> d           0.056  -3.356   1.448  0.00  0.00     0.177 C 
BRANCH  14  15
ATOM     15  C6  <0> d           1.505  -3.756   1.733  0.00  0.00     0.185 C 
BRANCH  15  16
ATOM     16  O1  <0> d           1.523  -4.922   2.559  0.00  0.00    -0.399 OA
ATOM     17  H9  <0> d           2.411  -5.234   2.780  0.00  0.00     0.209 HD
ENDBRANCH  15  16
ENDBRANCH  14  15
ENDBRANCH  11  14
ENDBRANCH   6   7
ENDBRANCH   3   6
ENDBRANCH   1   3
BRANCH   1  18
ATOM     18  C11 <0> d           2.769   0.589  -4.877  0.00  0.00    -0.028 A 
ATOM     19  C16 <0> d           3.028   1.703  -5.655  0.00  0.00     0.011 A 
ATOM     20  C15 <0> d           4.319   1.980  -6.059  0.00  0.00     0.030 A 
ATOM     21  C14 <0> d           5.357   1.132  -5.694  0.00  0.00     0.030 A 
ATOM     22  C13 <0> d           5.093   0.011  -4.917  0.00  0.00     0.030 A 
ATOM     23  C12 <0> d           3.800  -0.257  -4.511  0.00  0.00     0.011 A 
BRANCH  21  24
ATOM     24  N4  <0> d           6.663   1.406  -6.106  0.00  0.00    -0.378 N 
ATOM     25  C20 <0> d           7.793   0.594  -5.629  0.00  0.00     0.150 C 
ATOM     26  C19 <0> d           8.880   1.529  -5.100  0.00  0.00     0.254 C 
ATOM     27  N5  <0> d           9.231   2.509  -6.136  0.00  0.00    -0.072 N 
ATOM     28  C18 <0> d           8.075   3.367  -6.426  0.00  0.00     0.254 C 
ATOM     29  C21 <0> d          10.348   3.338  -5.665  0.00  0.00     0.269 C 
ATOM     30  H35 <0> d           9.507   2.023  -6.976  0.00  0.00     0.279 HD
ATOM     31  C17 <0> d           6.948   2.519  -7.025  0.00  0.00     0.150 C 
ENDBRANCH  21  24
ENDBRANCH   1  18
TORSDOF 8
