REMARK  5 active torsions:
REMARK  status: ('A' for Active; 'I' for Inactive)
REMARK    1  A    between atoms: N1_2  and  C2_3 
REMARK    2  A    between atoms: C2_3  and  C3_4 
REMARK    3  A    between atoms: C2_3  and  C9_10 
REMARK       I    between atoms: C9_10  and  N2_12 
REMARK    4  A    between atoms: N2_12  and  C10_13 
REMARK    5  A    between atoms: C13_16  and  N3_20 
ROOT
ATOM      1  C9  <0> d           0.838  -1.991   1.125  0.00  0.00     0.257 C 
ATOM      2  O1  <0> d           0.104  -2.629   0.401  0.00  0.00    -0.270 OA
ATOM      3  N2  <0> d           1.775  -2.622   1.860  0.00  0.00    -0.324 N 
ATOM      4  H11 <0> d           2.414  -2.107   2.377  0.00  0.00     0.169 HD
ENDROOT
BRANCH   1   5
ATOM      5  C2  <0> d           0.703  -0.492   1.204  0.00  0.00     0.309 C 
BRANCH   5   6
ATOM      6  N1  <0> d          -0.008  -0.001   0.016  0.00  0.00    -0.062 N 
ATOM      7  C1  <0> d          -0.036   1.467   0.033  0.00  0.00     0.268 C 
ATOM      8  H5  <0> d          -0.953  -0.355   0.020  0.00  0.00     0.278 HD
ATOM      9  H15 <0> d           0.467  -0.319  -0.816  0.00  0.00     0.278 HD
ENDBRANCH   5   6
BRANCH   5  10
ATOM     10  C3  <0> d          -0.072  -0.122   2.442  0.00  0.00    -0.019 A 
ATOM     11  C8  <0> d           0.596   0.308   3.574  0.00  0.00     0.010 A 
ATOM     12  C7  <0> d          -0.116   0.651   4.708  0.00  0.00     0.001 A 
ATOM     13  C6  <0> d          -1.495   0.556   4.714  0.00  0.00     0.000 A 
ATOM     14  C5  <0> d          -2.163   0.122   3.584  0.00  0.00     0.001 A 
ATOM     15  C4  <0> d          -1.452  -0.218   2.448  0.00  0.00     0.010 A 
ENDBRANCH   5  10
ENDBRANCH   1   5
BRANCH   3  16
ATOM     16  C10 <0> d           1.827  -4.021   1.876  0.00  0.00     0.052 A 
ATOM     17  C15 <0> d           3.021  -4.670   2.163  0.00  0.00     0.040 A 
ATOM     18  C14 <0> d           3.066  -6.052   2.184  0.00  0.00     0.057 A 
ATOM     19 Br1  <0> d           4.580  -3.666   2.532  0.00  0.00    -0.049 Br
ATOM     20  C13 <0> d           1.927  -6.786   1.909  0.00  0.00     0.104 A 
ATOM     21  C12 <0> d           0.739  -6.142   1.617  0.00  0.00     0.038 A 
ATOM     22  C11 <0> d           0.685  -4.762   1.600  0.00  0.00     0.033 A 
BRANCH  20  23
ATOM     23  N3  <0> d           1.980  -8.265   1.927  0.00  0.00    -0.116 N 
ATOM     24  O2  <0> d           0.986  -8.909   1.687  0.00  0.00    -0.532 OA
ATOM     25  O3  <0> d           3.019  -8.830   2.182  0.00  0.00    -0.532 OA
ENDBRANCH  20  23
ENDBRANCH   3  16
TORSDOF 5
