REMARK  4 active torsions:
REMARK  status: ('A' for Active; 'I' for Inactive)
REMARK    1  A    between atoms: N1_2  and  C2_3 
REMARK    2  A    between atoms: N1_2  and  C14_17 
REMARK    3  A    between atoms: C2_3  and  C3_4 
REMARK       I    between atoms: C3_4  and  N2_6 
REMARK    4  A    between atoms: N2_6  and  C4_7 
ROOT
ATOM      1  C3  <0> d          -4.349   5.622  -1.470  0.00  0.00     0.244 C 
ATOM      2  O1  <0> d          -3.701   6.002  -2.422  0.00  0.00    -0.272 OA
ATOM      3  N2  <0> d          -5.396   6.351  -1.033  0.00  0.00    -0.351 N 
ATOM      4  H8  <0> d          -5.984   6.006  -0.170  0.00  0.00     0.163 HD
ENDROOT
BRANCH   1   5
ATOM      5  C2  <0> d          -3.985   4.335  -0.776  0.00  0.00     0.337 C 
BRANCH   5   6
ATOM      6  N1  <0> d          -2.819   3.735  -1.437  0.00  0.00    -0.061 N 
ATOM      7  C1  <0> d          -3.148   3.313  -2.805  0.00  0.00     0.270 C 
ATOM      8  H25 <0> d          -2.034   4.503  -1.500  0.00  0.00     0.280 HD
BRANCH   6   9
ATOM      9  C14 <0> d          -2.289   2.612  -0.653  0.00  0.00     0.203 C 
ATOM     10  C17 <0> d          -1.064   2.009  -1.382  0.00  0.00     0.173 C 
ATOM     11  S1  <0> d          -0.017   1.417   0.010  0.00  0.00     0.146 S 
ATOM     12  C16 <0> d          -1.039   1.995   1.430  0.00  0.00     0.142 C 
ATOM     13  O2  <0> d           0.002  -0.004   0.002  0.00  0.00    -0.228 OA
ATOM     14  O3  <0> d           1.210   2.133   0.002  0.00  0.00    -0.228 OA
ATOM     15  C15 <0> d          -1.876   3.112   0.741  0.00  0.00     0.049 C 
ENDBRANCH   6   9
ENDBRANCH   5   6
ENDBRANCH   1   5
BRANCH   3  16
ATOM     16  C4  <0> d          -5.750   7.602  -1.708  0.00  0.00     0.118 C 
ATOM     17  C9  <0> d          -4.896   8.718  -1.164  0.00  0.00    -0.029 A 
ATOM     18  C8  <0> d          -5.403   9.967  -0.878  0.00  0.00    -0.050 A 
ATOM     19  C10 <0> d          -3.549   8.458  -0.952  0.00  0.00     0.010 A 
ATOM     20  C7  <0> d          -6.854  10.318  -1.077  0.00  0.00     0.039 C 
ATOM     21  C13 <0> d          -4.561  10.954  -0.385  0.00  0.00     0.007 A 
ATOM     22  C6  <0> d          -7.530   9.307  -2.002  0.00  0.00     0.007 C 
ATOM     23  C5  <0> d          -7.230   7.897  -1.478  0.00  0.00     0.030 C 
ATOM     24  C12 <0> d          -3.222  10.694  -0.176  0.00  0.00     0.001 A 
ATOM     25  C11 <0> d          -2.714   9.440  -0.460  0.00  0.00     0.001 A 
ENDBRANCH   3  16
TORSDOF 4
