REMARK  7 active torsions:
REMARK  status: ('A' for Active; 'I' for Inactive)
REMARK    1  A    between atoms: C4_4  and  N4_19 
REMARK    2  A    between atoms: C7_7  and  N1_8 
REMARK       I    between atoms: N1_8  and  C8_9 
REMARK    3  A    between atoms: C8_9  and  C9_11 
REMARK    4  A    between atoms: C9_11  and  C10_12 
REMARK    5  A    between atoms: C10_12  and  N2_13 
REMARK    6  A    between atoms: N2_13  and  C12_15 
REMARK    7  A    between atoms: C12_15  and  C13_16 
ROOT
ATOM      1  C13 <0> d          -8.363  10.022   1.206  0.00  0.00     0.151 C 
ATOM      2  C14 <0> d          -8.153  11.438   1.548  0.00  0.00     0.060 C 
ATOM      3  N3  <0> d          -7.991  12.531   1.813  0.00  0.00    -0.197 NA
ENDROOT
BRANCH   1   4
ATOM      4  C12 <0> d          -7.021   9.380   0.846  0.00  0.00     0.248 C 
BRANCH   4   5
ATOM      5  N2  <0> d          -7.231   7.967   0.504  0.00  0.00    -0.074 N 
ATOM      6  C11 <0> d          -8.023   7.835  -0.727  0.00  0.00     0.269 C 
ATOM      7  H21 <0> d          -7.799   7.502   1.323  0.00  0.00     0.279 HD
BRANCH   5   8
ATOM      8  C10 <0> d          -5.950   7.259   0.384  0.00  0.00     0.243 C 
BRANCH   8   9
ATOM      9  C9  <0> d          -6.207   5.755   0.276  0.00  0.00     0.131 C 
BRANCH   9  10
ATOM     10  C8  <0> d          -4.892   5.028   0.153  0.00  0.00     0.223 C 
ATOM     11  N1  <0> d          -4.872   3.685   0.044  0.00  0.00    -0.327 N 
ATOM     12  H7  <0> d          -5.815   3.126  -0.046  0.00  0.00     0.169 HD
ATOM     13  O1  <0> d          -3.852   5.652   0.151  0.00  0.00    -0.273 OA
BRANCH  11  14
ATOM     14  C7  <0> d          -3.649   3.000   0.046  0.00  0.00     0.040 A 
ATOM     15  C2  <0> d          -3.551   1.754  -0.559  0.00  0.00    -0.033 A 
ATOM     16  C1  <0> d          -4.758   1.139  -1.217  0.00  0.00     0.050 C 
ATOM     17  C3  <0> d          -2.346   1.079  -0.557  0.00  0.00     0.038 A 
ATOM     18  C4  <0> d          -1.233   1.646   0.050  0.00  0.00     0.026 A 
ATOM     19  C5  <0> d          -1.334   2.890   0.660  0.00  0.00     0.031 A 
ATOM     20  C6  <0> d          -2.536   3.567   0.653  0.00  0.00     0.032 A 
BRANCH  18  21
ATOM     21  N4  <0> d          -0.013   0.963   0.051  0.00  0.00    -0.399 N 
ATOM     22  H19 <0> d           0.869   1.412   0.532  0.00  0.00     0.156 HD
ATOM     23  H20 <0> d           0.066  -0.024  -0.428  0.00  0.00     0.156 HD
ENDBRANCH  18  21
ENDBRANCH  11  14
ENDBRANCH   9  10
ENDBRANCH   8   9
ENDBRANCH   5   8
ENDBRANCH   4   5
ENDBRANCH   1   4
TORSDOF 7
