REMARK  2 active torsions:
REMARK  status: ('A' for Active; 'I' for Inactive)
REMARK    1  A    between atoms: O1_2  and  C2_3 
REMARK    2  A    between atoms: P1_16  and  S1_19 
ROOT
ATOM      1  C2  <0> d           0.606  -0.607  -1.056  0.00  0.00     0.086 C 
ATOM      2  C3  <0> d           1.154   0.128  -2.028  0.00  0.00     0.019 C 
ATOM      3  C4  <0> d           1.808  -0.560  -3.196  0.00  0.00     0.047 C 
ATOM      4  C5  <0> d           1.850   0.361  -4.407  0.00  0.00     0.272 C 
ATOM      5  N1  <0> d           0.493   0.726  -4.846  0.00  0.00     0.019 N 
ATOM      6  C6  <0> d          -0.257  -0.473  -5.227  0.00  0.00     0.238 C 
ATOM      7  C7  <0> d          -0.364  -1.431  -4.035  0.00  0.00     0.047 C 
ATOM      8  C8  <0> d           1.015  -1.819  -3.559  0.00  0.00     0.021 C 
ATOM      9  C9  <0> d           0.851  -2.667  -2.319  0.00  0.00     0.005 C 
ATOM     10  C10 <0> d           0.668  -2.080  -1.138  0.00  0.00     0.063 C 
ATOM     11 Cl1  <0> d           0.496  -3.041   0.298  0.00  0.00    -0.082 Cl
ATOM     12  C11 <0> d          -1.691  -0.129  -5.653  0.00  0.00     0.214 C 
ATOM     13  O2  <0> d          -1.657   0.733  -6.804  0.00  0.00    -0.308 OA
ATOM     14  P1  <0> d          -0.706   2.052  -6.732  0.00  0.00     0.371 P 
ATOM     15  O3  <0> d          -1.383   3.132  -5.981  0.00  0.00    -0.253 OA
ATOM     16  N2  <0> d           0.657   1.560  -5.932  0.00  0.00    -0.167 N 
ATOM     17  H15 <0> d           1.539   1.850  -6.211  0.00  0.00     0.198 HD
ATOM     18  H19 <0> d           0.017   1.220  -4.106  0.00  0.00     0.309 HD
ENDROOT
BRANCH  14  19
ATOM     19  S1  <0> d          -0.214   2.711  -8.685  0.00  0.00    -0.055 SA
ATOM     20  C12 <0> d          -1.821   3.081  -9.441  0.00  0.00     0.102 C 
ENDBRANCH  14  19
BRANCH   1  21
ATOM     21  O1  <0> d           0.002  -0.004   0.002  0.00  0.00    -0.355 OA
ATOM     22  C1  <0> d          -0.017   1.425   0.010  0.00  0.00     0.210 C 
ENDBRANCH   1  21
TORSDOF 2
