REMARK  5 active torsions:
REMARK  status: ('A' for Active; 'I' for Inactive)
REMARK    1  A    between atoms: C4_6  and  C5_7 
REMARK    2  A    between atoms: C5_7  and  C6_8 
REMARK    3  A    between atoms: C5_7  and  N3_15 
REMARK       I    between atoms: N3_15  and  C12_16 
REMARK    4  A    between atoms: C12_16  and  C13_18 
REMARK    5  A    between atoms: N5_20  and  C17_25 
ROOT
ATOM      1  N3  <0> d           2.321   5.100  -0.882  0.00  0.00    -0.340 N 
ATOM      2  C12 <0> d           3.417   5.641  -1.449  0.00  0.00     0.268 C 
ATOM      3  O1  <0> d           4.514   5.164  -1.230  0.00  0.00    -0.266 OA
ATOM      4  H12 <0> d           1.329   5.531  -1.080  0.00  0.00     0.164 HD
ENDROOT
BRANCH   1   5
ATOM      5  C5  <0> d           2.451   3.936  -0.001  0.00  0.00     0.188 C 
BRANCH   5   6
ATOM      6  C4  <0> d           2.770   4.398   1.397  0.00  0.00     0.133 A 
ATOM      7  N1  <0> d           3.710   3.865   2.207  0.00  0.00    -0.346 N 
ATOM      8  C1  <0> d           4.596   2.742   1.889  0.00  0.00     0.157 C 
ATOM      9  C2  <0> d           3.681   4.569   3.381  0.00  0.00     0.111 A 
ATOM     10  C3  <0> d           2.724   5.508   3.248  0.00  0.00     0.136 A 
ATOM     11  N2  <0> d           2.188   5.383   2.025  0.00  0.00    -0.243 NA
ENDBRANCH   5   6
BRANCH   5  12
ATOM     12  C6  <0> d           1.156   3.166   0.008  0.00  0.00    -0.028 A 
ATOM     13  C11 <0> d          -0.050   3.841   0.023  0.00  0.00     0.011 A 
ATOM     14  C10 <0> d          -1.238   3.135   0.031  0.00  0.00     0.024 A 
ATOM     15  C9  <0> d          -1.220   1.751   0.017  0.00  0.00     0.034 A 
ATOM     16  C8  <0> d          -0.013   1.076   0.008  0.00  0.00     0.024 A 
ATOM     17 Cl1  <0> d          -2.712   0.864   0.019  0.00  0.00    -0.084 Cl
ATOM     18  C7  <0> d           1.175   1.783   0.000  0.00  0.00     0.011 A 
ENDBRANCH   5  12
ENDBRANCH   1   5
BRANCH   2  19
ATOM     19  C13 <0> d           3.287   6.806  -2.332  0.00  0.00     0.122 C 
ATOM     20  C16 <0> d           4.518   7.407  -2.955  0.00  0.00     0.076 C 
ATOM     21  C15 <0> d           4.176   7.936  -4.353  0.00  0.00     0.111 C 
ATOM     22  C14 <0> d           2.913   8.755  -4.275  0.00  0.00     0.240 C 
ATOM     23  N5  <0> d           1.950   8.417  -3.396  0.00  0.00    -0.232 N 
ATOM     24  O2  <0> d           2.764   9.715  -5.002  0.00  0.00    -0.272 OA
ATOM     25  N4  <0> d           2.113   7.308  -2.559  0.00  0.00    -0.168 NA
BRANCH  23  26
ATOM     26  C17 <0> d           0.725   9.216  -3.315  0.00  0.00     0.128 C 
ATOM     27  C20 <0> d          -0.497   8.317  -3.622  0.00  0.00     0.167 C 
ATOM     28  S1  <0> d          -1.821   9.066  -2.590  0.00  0.00     0.146 S 
ATOM     29  C19 <0> d          -0.844  10.381  -1.748  0.00  0.00     0.142 C 
ATOM     30  O3  <0> d          -2.246   8.115  -1.623  0.00  0.00    -0.228 OA
ATOM     31  O4  <0> d          -2.782   9.677  -3.440  0.00  0.00    -0.228 OA
ATOM     32  C18 <0> d           0.595   9.811  -1.903  0.00  0.00     0.043 C 
ENDBRANCH  23  26
ENDBRANCH   2  19
TORSDOF 5
