REMARK  6 active torsions:
REMARK  status: ('A' for Active; 'I' for Inactive)
REMARK    1  A    between atoms: C2_2  and  C3_3 
REMARK    2  A    between atoms: C2_2  and  N1_10 
REMARK    3  A    between atoms: N1_10  and  C10_12 
REMARK    4  A    between atoms: C10_12  and  C11_13 
REMARK    5  A    between atoms: C10_12  and  C15_19 
REMARK    6  A    between atoms: C15_19  and  N4_21 
ROOT
ATOM      1  C10 <0> d          -0.019   0.152  -2.731  0.00  0.00     0.289 C 
ENDROOT
BRANCH   1   2
ATOM      2  N1  <0> d           0.725   0.279  -1.471  0.00  0.00     0.103 N 
ATOM      3  C9  <0> d           0.737  -0.993  -0.736  0.00  0.00     0.311 C 
BRANCH   2   4
ATOM      4  C2  <0> d           0.176   1.361  -0.642  0.00  0.00     0.252 C 
ATOM      5  C1  <0> d           0.399   2.703  -1.343  0.00  0.00     0.048 C 
BRANCH   4   6
ATOM      6  C3  <0> d           0.872   1.371   0.695  0.00  0.00    -0.025 A 
ATOM      7  C8  <0> d           0.147   1.607   1.849  0.00  0.00     0.011 A 
ATOM      8  C7  <0> d           0.783   1.611   3.076  0.00  0.00     0.024 A 
ATOM      9  C6  <0> d           2.147   1.389   3.148  0.00  0.00     0.034 A 
ATOM     10  C5  <0> d           2.872   1.159   1.993  0.00  0.00     0.024 A 
ATOM     11 Cl1  <0> d           2.947   1.401   4.689  0.00  0.00    -0.084 Cl
ATOM     12  C4  <0> d           2.234   1.150   0.767  0.00  0.00     0.011 A 
ENDBRANCH   4   6
ENDBRANCH   2   4
ENDBRANCH   1   2
BRANCH   1  13
ATOM     13  C11 <0> d           0.886  -0.413  -3.795  0.00  0.00     0.013 A 
ATOM     14  C13 <0> d           1.021   0.055  -5.057  0.00  0.00     0.122 A 
ATOM     15  N3  <0> d           1.926  -0.721  -5.689  0.00  0.00    -0.285 N 
ATOM     16  N2  <0> d           2.356  -1.704  -4.788  0.00  0.00    -0.185 NA
ATOM     17  C14 <0> d           2.375  -0.567  -7.075  0.00  0.00     0.179 C 
ATOM     18  C12 <0> d           1.732  -1.518  -3.653  0.00  0.00     0.149 A 
ENDBRANCH   1  13
BRANCH   1  19
ATOM     19  C15 <0> d          -1.212  -0.784  -2.527  0.00  0.00     0.217 C 
ATOM     20  C16 <0> d          -2.207  -0.138  -1.560  0.00  0.00     0.042 C 
BRANCH  19  21
ATOM     21  N4  <0> d          -1.870  -1.027  -3.817  0.00  0.00    -0.073 N 
ATOM     22  H22 <0> d          -1.214  -1.453  -4.454  0.00  0.00     0.274 HD
ATOM     23  H23 <0> d          -2.657  -1.644  -3.682  0.00  0.00     0.274 HD
ATOM     24  H24 <0> d          -2.192  -0.151  -4.201  0.00  0.00     0.274 HD
ENDBRANCH  19  21
ENDBRANCH   1  19
TORSDOF 6
