REMARK  6 active torsions:
REMARK  status: ('A' for Active; 'I' for Inactive)
REMARK    1  A    between atoms: C3_3  and  C5_6 
REMARK    2  A    between atoms: C5_6  and  N1_7 
REMARK    3  A    between atoms: N2_11  and  S1_14 
REMARK    4  A    between atoms: S1_14  and  C11_17 
REMARK    5  A    between atoms: C11_17  and  C12_18 
REMARK    6  A    between atoms: C12_18  and  C13_19 
ROOT
ATOM      1  N1  <0> d           3.985  -0.495  -1.528  0.00  0.00    -0.067 N 
ATOM      2  C6  <0> d           3.134  -1.677  -1.414  0.00  0.00     0.236 C 
ATOM      3  C7  <0> d           3.049  -2.363  -2.760  0.00  0.00     0.048 C 
ATOM      4  C8  <0> d           4.128  -3.458  -2.845  0.00  0.00     0.137 C 
ATOM      5  N2  <0> d           5.393  -3.007  -2.231  0.00  0.00    -0.309 N 
ATOM      6  C9  <0> d           5.913  -1.669  -2.422  0.00  0.00     0.162 C 
ATOM      7  C10 <0> d           5.362  -0.731  -1.323  0.00  0.00     0.255 C 
ATOM      8  H24 <0> d           3.862  -0.105  -2.450  0.00  0.00     0.280 HD
ENDROOT
BRANCH   5   9
ATOM      9  S1  <0> d           6.247  -4.070  -1.290  0.00  0.00     0.229 S 
ATOM     10  O2  <0> d           6.988  -3.249  -0.398  0.00  0.00    -0.206 OA
ATOM     11  O3  <0> d           5.274  -4.981  -0.798  0.00  0.00    -0.206 OA
BRANCH   9  12
ATOM     12  C11 <0> d           7.368  -4.913  -2.440  0.00  0.00     0.174 C 
BRANCH  12  13
ATOM     13  C12 <0> d           8.216  -5.929  -1.673  0.00  0.00     0.130 C 
BRANCH  13  14
ATOM     14  C13 <0> d           9.148  -6.630  -2.628  0.00  0.00     0.173 C 
ATOM     15  O4  <0> d           9.134  -6.343  -3.813  0.00  0.00    -0.648 OA
ATOM     16  O5  <0> d           9.914  -7.484  -2.216  0.00  0.00    -0.648 OA
ENDBRANCH  13  14
ENDBRANCH  12  13
ENDBRANCH   9  12
ENDBRANCH   5   9
BRANCH   1  17
ATOM     17  C5  <0> d           3.533   0.497  -0.543  0.00  0.00     0.266 C 
BRANCH  17  18
ATOM     18  C3  <0> d           4.204   1.842  -0.829  0.00  0.00     0.147 C 
ATOM     19  C2  <0> d           3.734   2.906   0.194  0.00  0.00     0.036 C 
ATOM     20  C1  <0> d           3.971   4.214  -0.611  0.00  0.00     0.029 C 
ATOM     21  C4  <0> d           3.658   3.770  -2.056  0.00  0.00     0.168 C 
ATOM     22  O1  <0> d           3.792   2.345  -2.110  0.00  0.00    -0.384 OA
ENDBRANCH  17  18
ENDBRANCH   1  17
TORSDOF 6
