REMARK  13 active torsions:
REMARK  status: ('A' for Active; 'I' for Inactive)
REMARK    1  A    between atoms: C2_2  and  C3_3 
REMARK    2  A    between atoms: C3_3  and  C5_5 
REMARK    3  A    between atoms: C5_5  and  O2_7 
REMARK    4  A    between atoms: O2_7  and  C6_8 
REMARK    5  A    between atoms: C12_14  and  C17_19 
REMARK    6  A    between atoms: C17_19  and  C18_20 
REMARK    7  A    between atoms: C18_20  and  C19_21 
REMARK    8  A    between atoms: C19_21  and  C20_22 
REMARK    9  A    between atoms: C19_21  and  O5_28 
REMARK   10  A    between atoms: C20_22  and  C21_23 
REMARK   11  A    between atoms: C21_23  and  C22_24 
REMARK   12  A    between atoms: C21_23  and  O4_27 
REMARK   13  A    between atoms: C22_24  and  C23_25 
ROOT
ATOM      1  C6  <0> d          -2.916   1.560   0.013  0.00  0.00     0.137 C 
ATOM      2  C7  <0> d          -2.183   1.079   1.270  0.00  0.00     0.033 C 
ATOM      3  C8  <0> d          -0.736   1.583   1.264  0.00  0.00     0.003 C 
ATOM      4  C9  <0> d          -0.013   1.086   0.008  0.00  0.00     0.009 C 
ATOM      5  C10 <0> d          -0.757   1.594  -1.224  0.00  0.00     0.015 C 
ATOM      6  C11 <0> d          -2.180   1.032  -1.216  0.00  0.00     0.027 C 
ATOM      7  C12 <0> d          -2.876   1.469  -2.506  0.00  0.00     0.000 C 
ATOM      8  C13 <0> d          -2.194   0.758  -3.679  0.00  0.00     0.008 C 
ATOM      9  C14 <0> d          -0.702   0.852  -3.566  0.00  0.00    -0.026 C 
ATOM     10  C15 <0> d          -0.064   1.209  -2.494  0.00  0.00    -0.025 C 
ATOM     11  C16 <0> d          -2.606  -0.715  -3.683  0.00  0.00     0.014 C 
ENDROOT
BRANCH   7  12
ATOM     12  C17 <0> d          -4.354   1.078  -2.454  0.00  0.00     0.008 C 
BRANCH  12  13
ATOM     13  C18 <0> d          -5.071   1.626  -3.689  0.00  0.00     0.032 C 
BRANCH  13  14
ATOM     14  C19 <0> d          -6.549   1.235  -3.637  0.00  0.00     0.120 C 
BRANCH  14  15
ATOM     15  C20 <0> d          -7.291   1.887  -4.805  0.00  0.00     0.064 C 
BRANCH  15  16
ATOM     16  C21 <0> d          -8.788   1.598  -4.683  0.00  0.00     0.130 C 
BRANCH  16  17
ATOM     17  C22 <0> d          -9.544   2.352  -5.779  0.00  0.00     0.144 C 
BRANCH  17  18
ATOM     18  C23 <0> d         -11.027   2.168  -5.585  0.00  0.00     0.175 C 
ATOM     19  O3  <0> d         -11.437   1.502  -4.665  0.00  0.00    -0.648 OA
ATOM     20  O6  <0> d         -11.892   2.743  -6.435  0.00  0.00    -0.648 OA
ENDBRANCH  17  18
ENDBRANCH  16  17
BRANCH  16  21
ATOM     21  O4  <0> d          -9.017   0.195  -4.826  0.00  0.00    -0.395 OA
ATOM     22  H36 <0> d          -8.725  -0.167  -5.674  0.00  0.00     0.210 HD
ENDBRANCH  16  21
ENDBRANCH  15  16
ENDBRANCH  14  15
BRANCH  14  23
ATOM     23  O5  <0> d          -6.669  -0.186  -3.729  0.00  0.00    -0.395 OA
ATOM     24  H37 <0> d          -6.304  -0.560  -4.543  0.00  0.00     0.210 HD
ENDBRANCH  14  23
ENDBRANCH  13  14
ENDBRANCH  12  13
ENDBRANCH   7  12
BRANCH   1  25
ATOM     25  O2  <0> d          -2.933   3.011  -0.015  0.00  0.00    -0.315 OA
BRANCH  25  26
ATOM     26  C5  <0> d          -3.981   3.620   0.562  0.00  0.00     0.263 C 
ATOM     27  O1  <0> d          -4.855   2.961   1.075  0.00  0.00    -0.265 OA
BRANCH  26  28
ATOM     28  C3  <0> d          -4.068   5.124   0.572  0.00  0.00     0.081 C 
ATOM     29  C4  <0> d          -2.855   5.700   1.306  0.00  0.00     0.020 C 
BRANCH  28  30
ATOM     30  C2  <0> d          -5.350   5.557   1.286  0.00  0.00     0.010 C 
ATOM     31  C1  <0> d          -5.501   7.076   1.188  0.00  0.00     0.006 C 
ENDBRANCH  28  30
ENDBRANCH  26  28
ENDBRANCH  25  26
ENDBRANCH   1  25
TORSDOF 13
