REMARK  6 active torsions:
REMARK  status: ('A' for Active; 'I' for Inactive)
REMARK    1  A    between atoms: C5_6  and  C9_10 
REMARK       I    between atoms: C9_10  and  N2_12 
REMARK    2  A    between atoms: N2_12  and  C10_13 
REMARK    3  A    between atoms: C10_13  and  C11_14 
REMARK    4  A    between atoms: C11_14  and  C12_15 
REMARK    5  A    between atoms: C12_15  and  C13_16 
REMARK       I    between atoms: C13_16  and  N3_18 
REMARK    6  A    between atoms: N3_18  and  C14_19 
ROOT
ATOM      1  C11 <0> d           3.391  -6.211   2.553  0.00  0.00     0.029 C 
ENDROOT
BRANCH   1   2
ATOM      2  C10 <0> d           3.862  -4.756   2.573  0.00  0.00     0.123 C 
BRANCH   2   3
ATOM      3  N2  <0> d           3.363  -4.065   1.381  0.00  0.00    -0.359 N 
ATOM      4  C9  <0> d           3.656  -2.764   1.185  0.00  0.00     0.244 C 
ATOM      5  O1  <0> d           4.332  -2.165   1.995  0.00  0.00    -0.271 OA
ATOM      6  H8  <0> d           2.823  -4.543   0.734  0.00  0.00     0.162 HD
BRANCH   4   7
ATOM      7  C5  <0> d           3.143  -2.053  -0.041  0.00  0.00     0.198 A 
ATOM      8  N1  <0> d           3.587  -0.654  -0.037  0.00  0.00    -0.373 N 
ATOM      9  C4  <0> d           2.529   0.120  -0.022  0.00  0.00     0.039 A 
ATOM     10  H21 <0> d           4.509  -0.353  -0.045  0.00  0.00     0.161 HD
ATOM     11  C3  <0> d           2.391   1.535  -0.013  0.00  0.00     0.030 A 
ATOM     12  C7  <0> d           1.295  -0.698  -0.014  0.00  0.00    -0.011 A 
ATOM     13  C2  <0> d           1.166   2.101   0.002  0.00  0.00     0.002 A 
ATOM     14  C1  <0> d          -0.016   1.348   0.009  0.00  0.00     0.001 A 
ATOM     15  C8  <0> d           0.002  -0.004   0.002  0.00  0.00     0.013 A 
ATOM     16  C6  <0> d           1.631  -2.008  -0.025  0.00  0.00     0.021 A 
ENDBRANCH   4   7
ENDBRANCH   2   3
ENDBRANCH   1   2
BRANCH   1  17
ATOM     17  C12 <0> d           3.911  -6.933   3.797  0.00  0.00     0.104 C 
BRANCH  17  18
ATOM     18  C13 <0> d           3.447  -8.367   3.778  0.00  0.00     0.219 C 
ATOM     19  O2  <0> d           2.767  -8.771   2.859  0.00  0.00    -0.274 OA
ATOM     20  N3  <0> d           3.788  -9.199   4.781  0.00  0.00    -0.331 N 
ATOM     21  H15 <0> d           4.332  -8.876   5.516  0.00  0.00     0.165 HD
BRANCH  20  22
ATOM     22  C14 <0> d           3.336 -10.593   4.762  0.00  0.00     0.254 A 
ATOM     23  S1  <0> d           4.386 -11.613   3.651  0.00  0.00    -0.081 SA
ATOM     24  C20 <0> d           5.022 -12.740   4.872  0.00  0.00     0.030 A 
ATOM     25  C15 <0> d           4.441 -12.337   6.078  0.00  0.00     0.047 A 
ATOM     26  C19 <0> d           5.888 -13.806   4.787  0.00  0.00     0.021 A 
ATOM     27  N4  <0> d           3.576 -11.244   6.057  0.00  0.00    -0.359 N 
ATOM     28  C16 <0> d           4.790 -13.082   7.219  0.00  0.00     0.030 A 
ATOM     29  H16 <0> d           3.149 -10.925   6.867  0.00  0.00     0.162 HD
ATOM     30  C17 <0> d           5.657 -14.148   7.136  0.00  0.00     0.002 A 
ATOM     31  C18 <0> d           6.214 -14.522   5.927  0.00  0.00     0.002 A 
ENDBRANCH  20  22
ENDBRANCH  17  18
ENDBRANCH   1  17
TORSDOF 6
