REMARK  5 active torsions:
REMARK  status: ('A' for Active; 'I' for Inactive)
REMARK    1  A    between atoms: C2_2  and  N1_3 
REMARK    2  A    between atoms: C3_4  and  C13_19 
REMARK    3  A    between atoms: C4_7  and  S1_8 
REMARK    4  A    between atoms: S1_8  and  C5_9 
REMARK    5  A    between atoms: C5_9  and  C6_10 
ROOT
ATOM      1  N1  <0> d          -1.211  -0.661   0.381  0.00  0.00     0.140 N 
ATOM      2  C3  <0> d          -1.411  -1.959  -0.304  0.00  0.00     0.346 C 
ATOM      3  N2  <0> d          -1.712  -2.910   0.798  0.00  0.00    -0.223 NA
ATOM      4  N3  <0> d          -2.535  -2.106   1.715  0.00  0.00    -0.218 NA
ATOM      5  C4  <0> d          -1.929  -0.757   1.669  0.00  0.00     0.375 C 
ATOM      6  H8  <0> d          -2.227  -3.708   0.456  0.00  0.00     0.143 HD
ATOM      7  H9  <0> d          -2.508  -2.484   2.650  0.00  0.00     0.143 HD
ENDROOT
BRANCH   5   8
ATOM      8  S1  <0> d          -3.224   0.511   1.756  0.00  0.00    -0.114 SA
BRANCH   8   9
ATOM      9  C5  <0> d          -4.305   0.130   0.350  0.00  0.00     0.124 C 
BRANCH   9  10
ATOM     10  C6  <0> d          -5.456   1.136   0.304  0.00  0.00     0.191 A 
ATOM     11  N5  <0> d          -4.928   2.498   0.151  0.00  0.00    -0.366 N 
ATOM     12  C12 <0> d          -5.306   3.183   1.192  0.00  0.00     0.056 A 
ATOM     13  H25 <0> d          -4.396   2.827  -0.590  0.00  0.00     0.162 HD
ATOM     14  C7  <0> d          -6.107   2.309   2.093  0.00  0.00     0.056 A 
ATOM     15  C11 <0> d          -5.092   4.577   1.602  0.00  0.00     0.031 A 
ATOM     16  N4  <0> d          -6.193   1.118   1.574  0.00  0.00    -0.366 N 
ATOM     17  C8  <0> d          -6.630   2.898   3.333  0.00  0.00     0.031 A 
ATOM     18  H24 <0> d          -6.658   0.358   1.956  0.00  0.00     0.162 HD
ATOM     19  C9  <0> d          -6.374   4.192   3.614  0.00  0.00     0.002 A 
ATOM     20  C10 <0> d          -5.619   5.017   2.763  0.00  0.00     0.002 A 
ENDBRANCH   9  10
ENDBRANCH   8   9
ENDBRANCH   5   8
BRANCH   1  21
ATOM     21  C2  <0> d           0.217  -0.391   0.592  0.00  0.00     0.274 C 
ATOM     22  C1  <0> d           0.390   1.011   1.179  0.00  0.00     0.037 C 
ENDBRANCH   1  21
BRANCH   2  23
ATOM     23  C13 <0> d          -0.156  -2.370  -1.030  0.00  0.00    -0.010 A 
ATOM     24  C18 <0> d          -0.070  -2.220  -2.402  0.00  0.00     0.011 A 
ATOM     25  C17 <0> d           1.082  -2.593  -3.067  0.00  0.00     0.007 A 
ATOM     26  C16 <0> d           2.146  -3.125  -2.363  0.00  0.00    -0.062 A 
ATOM     27  C15 <0> d           2.059  -3.280  -0.992  0.00  0.00     0.007 A 
ATOM     28  C19 <0> d           3.401  -3.535  -3.089  0.00  0.00     0.048 C 
ATOM     29  C14 <0> d           0.908  -2.903  -0.326  0.00  0.00     0.011 A 
ENDBRANCH   2  23
TORSDOF 5
