REMARK  3 active torsions:
REMARK  status: ('A' for Active; 'I' for Inactive)
REMARK    1  A    between atoms: O1_2  and  C2_3 
REMARK    2  A    between atoms: C5_6  and  C9_11 
REMARK    3  A    between atoms: C7_8  and  O2_9 
ROOT
ATOM      1  C9  <0> d           2.507  -2.501  -4.386  0.00  0.00     0.118 C 
ATOM      2  C10 <0> d           3.951  -2.106  -4.403  0.00  0.00     0.025 A 
ATOM      3  C11 <0> d           4.611  -1.721  -3.272  0.00  0.00     0.121 A 
ATOM      4  N1  <0> d           5.880  -1.429  -3.606  0.00  0.00    -0.287 N 
ATOM      5  H2  <0> d           6.575  -1.129  -3.000  0.00  0.00     0.188 HD
ATOM      6  N2  <0> d           6.019  -1.636  -4.978  0.00  0.00    -0.156 NA
ATOM      7  C12 <0> d           4.852  -2.047  -5.466  0.00  0.00     0.159 A 
ATOM      8  N3  <0> d           4.702  -2.332  -6.809  0.00  0.00    -0.309 N 
ATOM      9  C13 <0> d           3.703  -2.701  -7.555  0.00  0.00     0.232 C 
ATOM     10  O3  <0> d           3.949  -2.756  -8.741  0.00  0.00    -0.272 OA
ATOM     11  C14 <0> d           2.318  -3.065  -7.195  0.00  0.00     0.178 C 
ATOM     12  S1  <0> d           1.634  -2.042  -5.885  0.00  0.00    -0.145 SA
ATOM     13  H13 <0> d           5.527  -2.235  -7.309  0.00  0.00     0.170 HD
ENDROOT
BRANCH   1  14
ATOM     14  C5  <0> d           1.837  -1.836  -3.212  0.00  0.00    -0.037 A 
ATOM     15  C4  <0> d           1.787  -0.456  -3.137  0.00  0.00     0.011 A 
ATOM     16  C3  <0> d           1.173   0.159  -2.062  0.00  0.00     0.040 A 
ATOM     17  C2  <0> d           0.606  -0.608  -1.056  0.00  0.00     0.101 A 
ATOM     18  C7  <0> d           0.662  -1.996  -1.129  0.00  0.00     0.102 A 
ATOM     19  C6  <0> d           1.273  -2.606  -2.212  0.00  0.00     0.048 A 
BRANCH  17  20
ATOM     20  O1  <0> d           0.002  -0.004   0.002  0.00  0.00    -0.353 OA
ATOM     21  C1  <0> d          -0.017   1.425   0.010  0.00  0.00     0.210 C 
ENDBRANCH  17  20
BRANCH  18  22
ATOM     22  O2  <0> d           0.112  -2.753  -0.142  0.00  0.00    -0.353 OA
ATOM     23  C8  <0> d           0.206  -4.171  -0.283  0.00  0.00     0.210 C 
ENDBRANCH  18  22
ENDBRANCH   1  14
TORSDOF 3
