REMARK  5 active torsions:
REMARK  status: ('A' for Active; 'I' for Inactive)
REMARK    1  A    between atoms: C3_3  and  S2_24 
REMARK    2  A    between atoms: N2_9  and  C8_12 
REMARK    3  A    between atoms: C8_12  and  C9_13 
REMARK       I    between atoms: C9_13  and  N3_15 
REMARK    4  A    between atoms: N3_15  and  C10_16 
REMARK    5  A    between atoms: S2_24  and  N4_27 
ROOT
ATOM      1  C1  <0> d          -0.019   1.502  -0.058  0.00  0.00     0.058 C 
ATOM      2  C2  <0> d           0.002  -0.004  -0.029  0.00  0.00     0.005 A 
ATOM      3  C3  <0> d          -1.040  -0.851   0.002  0.00  0.00     0.111 A 
ATOM      4  C4  <0> d          -0.791  -2.280   0.026  0.00  0.00     0.092 A 
ATOM      5  C5  <0> d           0.566  -2.647   0.014  0.00  0.00     0.116 A 
ATOM      6  S1  <0> d           1.416  -1.090  -0.035  0.00  0.00    -0.073 SA
ATOM      7  N1  <0> d           0.951  -3.920   0.032  0.00  0.00    -0.235 NA
ATOM      8  C6  <0> d           0.073  -4.888   0.062  0.00  0.00     0.214 A 
ATOM      9  N2  <0> d          -1.259  -4.627   0.076  0.00  0.00    -0.299 N 
ATOM     10  C7  <0> d          -1.726  -3.365   0.059  0.00  0.00     0.263 A 
ATOM     11  O1  <0> d          -2.926  -3.149   0.072  0.00  0.00    -0.267 OA
ENDROOT
BRANCH   9  12
ATOM     12  C8  <0> d          -2.208  -5.743   0.109  0.00  0.00     0.235 C 
BRANCH  12  13
ATOM     13  C9  <0> d          -2.513  -6.100   1.541  0.00  0.00     0.236 C 
ATOM     14  O2  <0> d          -1.990  -5.483   2.445  0.00  0.00    -0.272 OA
ATOM     15  N3  <0> d          -3.368  -7.105   1.818  0.00  0.00    -0.355 N 
ATOM     16  H10 <0> d          -3.787  -7.598   1.095  0.00  0.00     0.162 HD
BRANCH  15  17
ATOM     17  C10 <0> d          -3.665  -7.452   3.210  0.00  0.00     0.088 C 
ATOM     18  C15 <0> d          -5.037  -8.124   3.286  0.00  0.00     0.008 C 
ATOM     19  C14 <0> d          -5.347  -8.486   4.740  0.00  0.00    -0.013 C 
ATOM     20  C16 <0> d          -5.030  -9.395   2.434  0.00  0.00     0.012 C 
ATOM     21  C13 <0> d          -4.279  -9.447   5.265  0.00  0.00     0.005 C 
ATOM     22  C17 <0> d          -6.720  -9.159   4.816  0.00  0.00     0.010 C 
ATOM     23  C12 <0> d          -2.907  -8.774   5.189  0.00  0.00     0.002 C 
ATOM     24  C11 <0> d          -2.596  -8.412   3.735  0.00  0.00     0.025 C 
ENDBRANCH  15  17
ENDBRANCH  12  13
ENDBRANCH   9  12
BRANCH   3  25
ATOM     25  S2  <0> d          -2.690  -0.233   0.014  0.00  0.00     0.263 S 
ATOM     26  O3  <0> d          -2.621   1.119  -0.418  0.00  0.00    -0.200 OA
ATOM     27  O4  <0> d          -3.492  -1.203  -0.645  0.00  0.00    -0.200 OA
BRANCH  25  28
ATOM     28  N4  <0> d          -3.189  -0.200   1.593  0.00  0.00    -0.303 N 
ATOM     29  C21 <0> d          -2.976   0.991   2.430  0.00  0.00     0.161 C 
ATOM     30  C20 <0> d          -2.318   0.556   3.739  0.00  0.00     0.188 C 
ATOM     31  O5  <0> d          -3.081  -0.503   4.323  0.00  0.00    -0.388 OA
ATOM     32  C19 <0> d          -3.147  -1.686   3.523  0.00  0.00     0.188 C 
ATOM     33  C18 <0> d          -3.853  -1.364   2.201  0.00  0.00     0.161 C 
ENDBRANCH  25  28
ENDBRANCH   3  25
TORSDOF 5
