REMARK  7 active torsions:
REMARK  status: ('A' for Active; 'I' for Inactive)
REMARK    1  A    between atoms: C7_7  and  S1_8 
REMARK    2  A    between atoms: S1_8  and  N1_11 
REMARK    3  A    between atoms: C13_17  and  N4_22 
REMARK    4  A    between atoms: N4_22  and  C16_23 
REMARK    5  A    between atoms: C16_23  and  C17_24 
REMARK    6  A    between atoms: C17_24  and  C18_25 
REMARK    7  A    between atoms: C18_25  and  O3_26 
ROOT
ATOM      1  N1  <0> d           1.616   1.124   2.614  0.00  0.00    -0.307 N 
ATOM      2  C8  <0> d           2.941   0.576   2.938  0.00  0.00     0.138 C 
ATOM      3  C9  <0> d           3.884   0.837   1.760  0.00  0.00     0.070 C 
ATOM      4  C10 <0> d           3.888   2.333   1.435  0.00  0.00     0.217 C 
ATOM      5  C11 <0> d           2.477   2.768   1.030  0.00  0.00     0.070 C 
ATOM      6  C12 <0> d           1.518   2.529   2.194  0.00  0.00     0.138 C 
ATOM      7  C13 <0> d           4.840   2.599   0.304  0.00  0.00     0.112 C 
ATOM      8  N2  <0> d           5.663   3.579   0.287  0.00  0.00    -0.376 N 
ATOM      9  C14 <0> d           5.786   4.554   1.366  0.00  0.00     0.151 C 
ATOM     10  C15 <0> d           4.552   4.494   2.270  0.00  0.00     0.290 C 
ATOM     11  N3  <0> d           4.304   3.087   2.627  0.00  0.00     0.102 N 
ATOM     12  H20 <0> d           3.612   3.016   3.359  0.00  0.00     0.317 HD
ATOM     13  H31 <0> d           6.238   3.679  -0.488  0.00  0.00     0.160 HD
ENDROOT
BRANCH   7  14
ATOM     14  N4  <0> d           4.827   1.746  -0.767  0.00  0.00    -0.378 N 
ATOM     15  H21 <0> d           4.214   0.994  -0.781  0.00  0.00     0.160 HD
BRANCH  14  16
ATOM     16  C16 <0> d           5.740   1.968  -1.892  0.00  0.00     0.123 C 
BRANCH  16  17
ATOM     17  C17 <0> d           5.523   0.881  -2.947  0.00  0.00     0.046 C 
BRANCH  17  18
ATOM     18  C18 <0> d           6.476   1.113  -4.122  0.00  0.00     0.168 C 
BRANCH  18  19
ATOM     19  O3  <0> d           6.273   0.098  -5.107  0.00  0.00    -0.396 OA
ATOM     20  C19 <0> d           7.118   0.224  -6.252  0.00  0.00     0.201 C 
ENDBRANCH  18  19
ENDBRANCH  17  18
ENDBRANCH  16  17
ENDBRANCH  14  16
ENDBRANCH   7  14
BRANCH   1  21
ATOM     21  S1  <0> d           0.263   0.175   2.713  0.00  0.00     0.261 S 
ATOM     22  O1  <0> d          -0.848   1.059   2.788  0.00  0.00    -0.200 OA
ATOM     23  O2  <0> d           0.525  -0.805   3.708  0.00  0.00    -0.200 OA
BRANCH  21  24
ATOM     24  C7  <0> d           0.118  -0.687   1.183  0.00  0.00     0.085 A 
ATOM     25  C2  <0> d          -0.207   0.002   0.029  0.00  0.00    -0.039 A 
ATOM     26  C1  <0> d          -0.437   1.490   0.080  0.00  0.00     0.050 C 
ATOM     27  C3  <0> d          -0.315  -0.674  -1.172  0.00  0.00     0.008 A 
ATOM     28  C4  <0> d          -0.104  -2.039  -1.218  0.00  0.00     0.001 A 
ATOM     29  C5  <0> d           0.215  -2.729  -0.064  0.00  0.00     0.002 A 
ATOM     30  C6  <0> d           0.324  -2.053   1.137  0.00  0.00     0.026 A 
ENDBRANCH  21  24
ENDBRANCH   1  21
TORSDOF 7
