REMARK  7 active torsions:
REMARK  status: ('A' for Active; 'I' for Inactive)
REMARK    1  A    between atoms: C4_4  and  N1_7 
REMARK    2  A    between atoms: C7_8  and  C25_31 
REMARK    3  A    between atoms: C9_10  and  C10_12 
REMARK       I    between atoms: C10_12  and  N3_14 
REMARK    4  A    between atoms: N3_14  and  C11_15 
REMARK    5  A    between atoms: C11_15  and  C12_16 
REMARK    6  A    between atoms: C12_16  and  C13_17 
REMARK    7  A    between atoms: C12_16  and  C17_22 
REMARK       I    between atoms: C25_31  and  N5_33 
ROOT
ATOM      1  C10 <0> d           7.279  -0.542  -0.066  0.00  0.00     0.267 C 
ATOM      2  O1  <0> d           8.125  -1.417  -0.082  0.00  0.00    -0.266 OA
ATOM      3  N3  <0> d           7.650   0.754  -0.057  0.00  0.00    -0.355 N 
ATOM      4  H10 <0> d           6.976   1.451  -0.045  0.00  0.00     0.162 HD
ENDROOT
BRANCH   3   5
ATOM      5  C11 <0> d           9.072   1.109  -0.065  0.00  0.00     0.137 C 
BRANCH   5   6
ATOM      6  C12 <0> d           9.217   2.632  -0.052  0.00  0.00     0.075 C 
BRANCH   6   7
ATOM      7  C13 <0> d           8.656   3.201  -1.330  0.00  0.00    -0.008 A 
ATOM      8  S1  <0> d           9.156   2.889  -3.015  0.00  0.00    -0.106 SA
ATOM      9  C16 <0> d           7.978   3.954  -3.829  0.00  0.00     0.050 A 
ATOM     10  C15 <0> d           7.297   4.474  -2.779  0.00  0.00     0.008 A 
ATOM     11  C14 <0> d           7.645   4.088  -1.498  0.00  0.00     0.016 A 
ENDBRANCH   6   7
BRANCH   6  12
ATOM     12  C17 <0> d          10.674   2.997   0.063  0.00  0.00    -0.039 A 
ATOM     13  C24 <0> d          11.782   2.631  -0.899  0.00  0.00     0.155 A 
ATOM     14  N4  <0> d          13.007   3.220  -0.346  0.00  0.00    -0.385 N 
ATOM     15  C23 <0> d          12.706   3.836   0.772  0.00  0.00     0.038 A 
ATOM     16  H24 <0> d          13.891   3.161  -0.740  0.00  0.00     0.160 HD
ATOM     17  C18 <0> d          11.258   3.712   1.052  0.00  0.00    -0.005 A 
ATOM     18  C22 <0> d          13.506   4.559   1.699  0.00  0.00     0.030 A 
ATOM     19  C19 <0> d          10.730   4.342   2.268  0.00  0.00     0.014 A 
ATOM     20  C20 <0> d          11.580   5.007   3.084  0.00  0.00     0.001 A 
ATOM     21  C21 <0> d          12.948   5.110   2.797  0.00  0.00     0.002 A 
ENDBRANCH   6  12
ENDBRANCH   5   6
ENDBRANCH   3   5
BRANCH   1  22
ATOM     22  C9  <0> d           5.860  -0.896  -0.058  0.00  0.00     0.124 A 
ATOM     23  C8  <0> d           5.312  -2.305  -0.067  0.00  0.00     0.104 A 
ATOM     24  C7  <0> d           3.783  -2.111  -0.053  0.00  0.00     0.208 A 
ATOM     25  N1  <0> d           3.619  -0.648  -0.037  0.00  0.00    -0.255 N 
ATOM     26  N2  <0> d           4.879  -0.052  -0.048  0.00  0.00    -0.170 NA
BRANCH  24  27
ATOM     27  C25 <0> d           3.179  -2.724   1.184  0.00  0.00     0.240 C 
ATOM     28  O2  <0> d           2.960  -2.036   2.158  0.00  0.00    -0.271 OA
ATOM     29  N5  <0> d           2.882  -4.039   1.208  0.00  0.00    -0.368 N 
ATOM     30  H22 <0> d           3.057  -4.590   0.429  0.00  0.00     0.159 HD
ATOM     31  H23 <0> d           2.494  -4.434   2.004  0.00  0.00     0.159 HD
ENDBRANCH  24  27
BRANCH  25  32
ATOM     32  C4  <0> d           2.400   0.031  -0.021  0.00  0.00     0.053 A 
ATOM     33  C3  <0> d           2.377   1.421  -0.013  0.00  0.00     0.031 A 
ATOM     34  C2  <0> d           1.169   2.090   0.002  0.00  0.00     0.002 A 
ATOM     35  C1  <0> d          -0.017   1.379   0.010  0.00  0.00     0.000 A 
ATOM     36  C6  <0> d           0.002  -0.004   0.002  0.00  0.00     0.002 A 
ATOM     37  C5  <0> d           1.206  -0.680  -0.013  0.00  0.00     0.031 A 
ENDBRANCH  25  32
ENDBRANCH   1  22
TORSDOF 7
