REMARK  5 active torsions:
REMARK  status: ('A' for Active; 'I' for Inactive)
REMARK    1  A    between atoms: C2_2  and  N1_3 
REMARK    2  A    between atoms: C4_5  and  C6_8 
REMARK    3  A    between atoms: C6_8  and  N3_9 
REMARK    4  A    between atoms: C14_17  and  C16_20 
REMARK    5  A    between atoms: C16_20  and  N4_21 
ROOT
ATOM      1  N3  <0> d          -4.094  -3.837  -0.677  0.00  0.00    -0.309 N 
ATOM      2  C7  <0> d          -3.210  -4.744  -1.220  0.00  0.00     0.048 A 
ATOM      3  C8  <0> d          -2.392  -4.394  -2.290  0.00  0.00     0.030 A 
ATOM      4  C9  <0> d          -1.516  -5.320  -2.813  0.00  0.00     0.002 A 
ATOM      5  C10 <0> d          -1.442  -6.602  -2.285  0.00  0.00     0.001 A 
ATOM      6  C11 <0> d          -2.235  -6.969  -1.235  0.00  0.00     0.014 A 
ATOM      7  C12 <0> d          -3.131  -6.044  -0.687  0.00  0.00    -0.009 A 
ATOM      8  C13 <0> d          -3.995  -6.404   0.438  0.00  0.00     0.028 A 
ATOM      9  C14 <0> d          -4.844  -5.466   0.928  0.00  0.00     0.036 A 
ATOM     10  C15 <0> d          -4.880  -4.175   0.360  0.00  0.00     0.256 A 
ATOM     11  O1  <0> d          -5.647  -3.346   0.819  0.00  0.00    -0.267 OA
ENDROOT
BRANCH   1  12
ATOM     12  C6  <0> d          -4.174  -2.485  -1.233  0.00  0.00     0.174 C 
BRANCH  12  13
ATOM     13  C4  <0> d          -3.194  -1.589  -0.520  0.00  0.00    -0.004 A 
ATOM     14  C3  <0> d          -1.907  -1.373  -0.878  0.00  0.00     0.122 A 
ATOM     15  N1  <0> d          -1.372  -0.511   0.012  0.00  0.00    -0.281 N 
ATOM     16  N2  <0> d          -2.361  -0.192   0.952  0.00  0.00    -0.185 NA
ATOM     17  C5  <0> d          -3.455  -0.834   0.628  0.00  0.00     0.149 A 
BRANCH  15  18
ATOM     18  C2  <0> d           0.002  -0.004   0.002  0.00  0.00     0.146 C 
ATOM     19  C1  <0> d          -0.019   1.526   0.010  0.00  0.00     0.028 C 
ENDBRANCH  15  18
ENDBRANCH  12  13
ENDBRANCH   1  12
BRANCH   9  20
ATOM     20  C16 <0> d          -5.748  -5.804   2.086  0.00  0.00     0.273 C 
BRANCH  20  21
ATOM     21  N4  <0> d          -5.114  -5.380   3.341  0.00  0.00    -0.075 N 
ATOM     22  H17 <0> d          -4.233  -5.860   3.451  0.00  0.00     0.274 HD
ATOM     23  H18 <0> d          -4.954  -4.384   3.318  0.00  0.00     0.274 HD
ATOM     24  H19 <0> d          -5.719  -5.606   4.117  0.00  0.00     0.274 HD
ENDBRANCH  20  21
ENDBRANCH   9  20
TORSDOF 5
