REMARK  5 active torsions:
REMARK  status: ('A' for Active; 'I' for Inactive)
REMARK    1  A    between atoms: N1_5  and  C5_7 
REMARK    2  A    between atoms: C11_18  and  C12_19 
REMARK    3  A    between atoms: C15_22  and  O3_29 
REMARK    4  A    between atoms: C16_23  and  O2_25 
REMARK    5  A    between atoms: O2_25  and  C18_26 
ROOT
ATOM      1  C18 <0> d          -2.715   3.294  -4.531  0.00  0.00     0.268 C 
ATOM      2  C19 <0> d          -3.369   4.488  -5.092  0.00  0.00    -0.091 C 
ATOM      3  C20 <0> d          -3.891   5.440  -5.539  0.00  0.00     0.014 C 
ENDROOT
BRANCH   1   4
ATOM      4  O2  <0> d          -3.651   2.216  -4.485  0.00  0.00    -0.337 OA
BRANCH   4   5
ATOM      5  C16 <0> d          -3.204   1.031  -3.990  0.00  0.00     0.103 A 
ATOM      6  C15 <0> d          -4.062  -0.062  -3.915  0.00  0.00     0.101 A 
ATOM      7  C14 <0> d          -3.601  -1.268  -3.410  0.00  0.00     0.040 A 
ATOM      8  C13 <0> d          -2.292  -1.382  -2.980  0.00  0.00     0.011 A 
ATOM      9  C12 <0> d          -1.440  -0.296  -3.054  0.00  0.00    -0.046 A 
ATOM     10  C17 <0> d          -1.894   0.911  -3.553  0.00  0.00     0.047 A 
BRANCH   6  11
ATOM     11  O3  <0> d          -5.349   0.051  -4.339  0.00  0.00    -0.353 OA
ATOM     12  C21 <0> d          -6.172  -1.112  -4.233  0.00  0.00     0.210 C 
ENDBRANCH   6  11
BRANCH   9  13
ATOM     13  C11 <0> d          -0.014  -0.426  -2.585  0.00  0.00     0.066 C 
ATOM     14  C3  <0> d           0.008  -0.810  -1.127  0.00  0.00     0.023 A 
ATOM     15  C2  <0> d           0.002  -0.004   0.002  0.00  0.00     0.062 A 
ATOM     16  C4  <0> d           0.033  -2.116  -0.714  0.00  0.00     0.143 A 
ATOM     17  C1  <0> d          -0.018   1.503   0.010  0.00  0.00     0.073 C 
ATOM     18  N2  <0> d           0.023  -0.778   1.062  0.00  0.00    -0.169 NA
ATOM     19  N1  <0> d           0.033  -2.117   0.636  0.00  0.00    -0.197 N 
ATOM     20  N5  <0> d           0.064  -3.175  -1.620  0.00  0.00    -0.311 N 
ATOM     21  C9  <0> d           0.274  -2.891  -2.923  0.00  0.00     0.224 C 
ATOM     22  H7  <0> d          -0.060  -4.090  -1.322  0.00  0.00     0.170 HD
ATOM     23  O1  <0> d           0.119  -3.767  -3.747  0.00  0.00    -0.273 OA
ATOM     24  C10 <0> d           0.694  -1.524  -3.384  0.00  0.00     0.117 C 
BRANCH  19  25
ATOM     25  C5  <0> d           0.045  -3.246   1.460  0.00  0.00     0.174 A 
ATOM     26  N4  <0> d          -0.426  -4.399   1.015  0.00  0.00    -0.129 NA
ATOM     27  N3  <0> d          -0.429  -5.460   1.737  0.00  0.00    -0.136 NA
ATOM     28  C8  <0> d           0.028  -5.470   2.975  0.00  0.00     0.148 A 
ATOM     29  C7  <0> d           0.538  -4.306   3.535  0.00  0.00     0.050 A 
ATOM     30 Cl1  <0> d          -0.009  -6.937   3.903  0.00  0.00    -0.061 Cl
ATOM     31  C6  <0> d           0.549  -3.159   2.757  0.00  0.00     0.057 A 
ENDBRANCH  19  25
ENDBRANCH   9  13
ENDBRANCH   4   5
ENDBRANCH   1   4
TORSDOF 5
