REMARK  5 active torsions:
REMARK  status: ('A' for Active; 'I' for Inactive)
REMARK    1  A    between atoms: C2_2  and  N1_3 
REMARK    2  A    between atoms: N1_3  and  C3_4 
REMARK    3  A    between atoms: C3_4  and  C4_5 
REMARK    4  A    between atoms: N3_8  and  C8_11 
REMARK    5  A    between atoms: C12_15  and  O1_16 
ROOT
ATOM      1  C4  <0> d          -2.770  -2.503   0.015  0.00  0.00     0.017 A 
ATOM      2  C5  <0> d          -3.533  -2.788   1.152  0.00  0.00     0.061 A 
ATOM      3  N2  <0> d          -4.705  -3.219   0.760  0.00  0.00    -0.176 NA
ATOM      4  N3  <0> d          -4.724  -3.221  -0.641  0.00  0.00    -0.266 N 
ATOM      5  C6  <0> d          -3.527  -2.773  -1.073  0.00  0.00     0.037 A 
ATOM      6  C7  <0> d          -3.108  -2.606  -2.511  0.00  0.00     0.070 C 
ATOM      7  C13 <0> d          -3.084  -2.627   2.581  0.00  0.00     0.073 C 
ENDROOT
BRANCH   4   8
ATOM      8  C8  <0> d          -5.848  -3.632  -1.486  0.00  0.00     0.139 C 
ATOM      9  C12 <0> d          -6.221  -5.096  -1.192  0.00  0.00     0.143 C 
ATOM     10  C11 <0> d          -7.683  -5.085  -0.695  0.00  0.00     0.034 C 
ATOM     11  C10 <0> d          -8.274  -3.779  -1.282  0.00  0.00     0.005 C 
ATOM     12  C9  <0> d          -7.094  -2.784  -1.159  0.00  0.00     0.030 C 
BRANCH   9  13
ATOM     13  O1  <0> d          -5.363  -5.625  -0.179  0.00  0.00    -0.393 OA
ATOM     14  H20 <0> d          -5.549  -6.546   0.051  0.00  0.00     0.210 HD
ENDBRANCH   9  13
ENDBRANCH   4   8
BRANCH   1  15
ATOM     15  C3  <0> d          -1.356  -1.981   0.004  0.00  0.00     0.274 C 
BRANCH  15  16
ATOM     16  N1  <0> d          -1.376  -0.512   0.012  0.00  0.00    -0.071 N 
ATOM     17  H8  <0> d          -1.848  -0.187   0.843  0.00  0.00     0.277 HD
ATOM     18  H24 <0> d          -1.864  -0.178  -0.805  0.00  0.00     0.277 HD
BRANCH  16  19
ATOM     19  C2  <0> d           0.002  -0.004   0.002  0.00  0.00     0.228 C 
ATOM     20  C1  <0> d          -0.019   1.526   0.010  0.00  0.00     0.034 C 
ENDBRANCH  16  19
ENDBRANCH  15  16
ENDBRANCH   1  15
TORSDOF 5
