REMARK  2 active torsions:
REMARK  status: ('A' for Active; 'I' for Inactive)
REMARK       I    between atoms: C2_2  and  N1_4 
REMARK    1  A    between atoms: C6_8  and  C8_10 
REMARK       I    between atoms: C8_10  and  N2_12 
REMARK    2  A    between atoms: N2_12  and  C9_13 
ROOT
ATOM      1  C8  <0> d          -2.136  -4.158  -1.094  0.00  0.00     0.224 C 
ATOM      2  O2  <0> d          -3.225  -4.678  -0.976  0.00  0.00    -0.273 OA
ATOM      3  N2  <0> d          -1.029  -4.923  -1.170  0.00  0.00    -0.352 N 
ATOM      4  H14 <0> d          -0.157  -4.508  -1.264  0.00  0.00     0.163 HD
ENDROOT
BRANCH   3   5
ATOM      5  C9  <0> d          -1.142  -6.383  -1.111  0.00  0.00     0.121 C 
ATOM      6  C14 <0> d          -1.420  -6.927  -2.489  0.00  0.00     0.008 A 
ATOM      7  C13 <0> d          -0.809  -8.021  -3.014  0.00  0.00     0.040 A 
ATOM      8  C15 <0> d          -2.312  -6.435  -3.440  0.00  0.00     0.150 A 
ATOM      9  C12 <0> d           0.226  -8.841  -2.286  0.00  0.00     0.059 C 
ATOM     10  N4  <0> d          -1.296  -8.210  -4.251  0.00  0.00    -0.278 N 
ATOM     11  C11 <0> d           0.150  -8.503  -0.792  0.00  0.00     0.008 C 
ATOM     12  C10 <0> d           0.178  -6.983  -0.611  0.00  0.00     0.030 C 
ATOM     13  N3  <0> d          -2.242  -7.203  -4.500  0.00  0.00    -0.184 NA
ATOM     14  C16 <0> d          -0.910  -9.279  -5.176  0.00  0.00     0.179 C 
ENDBRANCH   3   5
BRANCH   1  15
ATOM     15  C6  <0> d          -2.019  -2.657  -1.154  0.00  0.00     0.096 C 
ATOM     16  C5  <0> d          -3.413  -2.032  -1.047  0.00  0.00     0.017 C 
ATOM     17  C4  <0> d          -3.299  -0.509  -1.143  0.00  0.00     0.021 C 
ATOM     18  C3  <0> d          -2.446   0.009   0.019  0.00  0.00     0.126 C 
ATOM     19  N1  <0> d          -1.156  -0.694   0.009  0.00  0.00    -0.352 N 
ATOM     20  C2  <0> d           0.002  -0.004   0.002  0.00  0.00     0.215 C 
ATOM     21  C7  <0> d          -1.152  -2.163   0.001  0.00  0.00     0.139 C 
ATOM     22  C1  <0> d          -0.018   1.503   0.010  0.00  0.00     0.117 C 
ATOM     23  O1  <0> d           1.060  -0.596  -0.011  0.00  0.00    -0.274 OA
ENDBRANCH   1  15
TORSDOF 2
