REMARK  3 active torsions:
REMARK  status: ('A' for Active; 'I' for Inactive)
REMARK    1  A    between atoms: C3_3  and  S1_9 
REMARK    2  A    between atoms: C6_6  and  N1_7 
REMARK    3  A    between atoms: S1_9  and  N2_12 
ROOT
ATOM      1  S1  <0> d           3.890   2.321  -0.023  0.00  0.00     0.263 S 
ATOM      2  O1  <0> d           4.860   1.966  -0.999  0.00  0.00    -0.200 OA
ATOM      3  O2  <0> d           3.275   3.602   0.009  0.00  0.00    -0.200 OA
ENDROOT
BRANCH   1   4
ATOM      4  C3  <0> d           2.588   1.141  -0.155  0.00  0.00     0.101 A 
ATOM      5  C2  <0> d           2.680   0.112  -1.074  0.00  0.00     0.029 A 
ATOM      6  C1  <0> d           1.662  -0.815  -1.180  0.00  0.00     0.030 A 
ATOM      7  C6  <0> d           0.543  -0.713  -0.363  0.00  0.00     0.027 A 
ATOM      8  C5  <0> d           0.453   0.321   0.560  0.00  0.00     0.054 A 
ATOM      9  C4  <0> d           1.475   1.246   0.661  0.00  0.00     0.059 A 
ATOM     10 Cl1  <0> d           1.363   2.540   1.812  0.00  0.00    -0.083 Cl
BRANCH   7  11
ATOM     11  N1  <0> d          -0.488  -1.649  -0.468  0.00  0.00    -0.399 N 
ATOM     12  H6  <0> d          -0.424  -2.371  -1.113  0.00  0.00     0.156 HD
ATOM     13  H7  <0> d          -1.269  -1.577   0.103  0.00  0.00     0.156 HD
ENDBRANCH   7  11
ENDBRANCH   1   4
BRANCH   1  14
ATOM     14  N2  <0> d           4.602   2.101   1.455  0.00  0.00    -0.297 N 
ATOM     15  C10 <0> d           5.603   1.056   1.640  0.00  0.00     0.125 C 
ATOM     16  C9  <0> d           5.354   0.280   2.946  0.00  0.00     0.145 C 
ATOM     17  C11 <0> d           7.006   1.662   1.810  0.00  0.00     0.029 C 
ATOM     18  O3  <0> d           5.042   1.185   4.006  0.00  0.00    -0.382 OA
ATOM     19  C13 <0> d           6.754  -0.322   3.250  0.00  0.00     0.034 C 
ATOM     20  C8  <0> d           3.913   2.028   3.779  0.00  0.00     0.189 C 
ATOM     21  C7  <0> d           4.225   2.952   2.594  0.00  0.00     0.162 C 
ATOM     22  C12 <0> d           7.736   0.782   2.842  0.00  0.00     0.005 C 
ENDBRANCH   1  14
TORSDOF 3
