REMARK  7 active torsions:
REMARK  status: ('A' for Active; 'I' for Inactive)
REMARK    1  A    between atoms: C2_2  and  C3_3 
REMARK    2  A    between atoms: C3_3  and  C4_4 
REMARK    3  A    between atoms: C3_3  and  N2_19 
REMARK    4  A    between atoms: C4_4  and  C5_5 
REMARK    5  A    between atoms: C4_4  and  N1_11 
REMARK    6  A    between atoms: N1_11  and  C10_13 
REMARK    7  A    between atoms: C10_13  and  C11_14 
ROOT
ATOM      1  C4  <0> d          -1.413  -2.059   0.130  0.00  0.00     0.258 C 
ENDROOT
BRANCH   1   2
ATOM      2  C3  <0> d          -1.433  -0.534   0.013  0.00  0.00     0.218 C 
BRANCH   2   3
ATOM      3  C2  <0> d           0.002  -0.004   0.002  0.00  0.00     0.031 C 
ATOM      4  C1  <0> d          -0.019   1.526   0.010  0.00  0.00     0.007 C 
ENDBRANCH   2   3
BRANCH   2   5
ATOM      5  N2  <0> d          -2.107  -0.147  -1.234  0.00  0.00    -0.073 N 
ATOM      6  H18 <0> d          -3.054  -0.496  -1.227  0.00  0.00     0.274 HD
ATOM      7  H19 <0> d          -2.120   0.859  -1.311  0.00  0.00     0.274 HD
ATOM      8  H20 <0> d          -1.610  -0.539  -2.020  0.00  0.00     0.274 HD
ENDBRANCH   2   5
ENDBRANCH   1   2
BRANCH   1   9
ATOM      9  C5  <0> d          -0.780  -2.649  -1.103  0.00  0.00     0.017 A 
ATOM     10  S1  <0> d           0.951  -2.806  -1.513  0.00  0.00    -0.085 SA
ATOM     11  C8  <0> d           0.763  -3.596  -3.103  0.00  0.00     0.051 A 
ATOM     12  C7  <0> d          -0.586  -3.679  -3.217  0.00  0.00     0.028 A 
ATOM     13 Br1  <0> d           2.098  -4.163  -4.316  0.00  0.00    -0.043 Br
ATOM     14  C6  <0> d          -1.376  -3.194  -2.191  0.00  0.00     0.018 A 
ENDBRANCH   1   9
BRANCH   1  15
ATOM     15  N1  <0> d          -0.636  -2.449   1.314  0.00  0.00    -0.060 N 
ATOM     16  C9  <0> d          -0.617  -3.913   1.427  0.00  0.00     0.271 C 
ATOM     17  H21 <0> d           0.309  -2.106   1.224  0.00  0.00     0.280 HD
BRANCH  15  18
ATOM     18  C10 <0> d          -1.254  -1.873   2.517  0.00  0.00     0.281 C 
BRANCH  18  19
ATOM     19  C11 <0> d          -0.390  -2.170   3.716  0.00  0.00     0.008 A 
ATOM     20  S2  <0> d          -0.442  -3.572   4.819  0.00  0.00    -0.105 SA
ATOM     21  C14 <0> d           0.897  -3.092   5.899  0.00  0.00     0.050 A 
ATOM     22  C13 <0> d           1.283  -1.910   5.359  0.00  0.00     0.008 A 
ATOM     23  C12 <0> d           0.623  -1.438   4.240  0.00  0.00     0.017 A 
ENDBRANCH  18  19
ENDBRANCH  15  18
ENDBRANCH   1  15
TORSDOF 7
