REMARK  5 active torsions:
REMARK  status: ('A' for Active; 'I' for Inactive)
REMARK    1  A    between atoms: C2_2  and  C3_3 
REMARK    2  A    between atoms: C2_2  and  N3_18 
REMARK    3  A    between atoms: C3_3  and  C4_4 
REMARK    4  A    between atoms: C3_3  and  O1_10 
REMARK    5  A    between atoms: O1_10  and  C8_11 
ROOT
ATOM      1  C3  <0> d           0.749  -0.511   1.252  0.00  0.00     0.194 C 
ENDROOT
BRANCH   1   2
ATOM      2  C2  <0> d           0.060   0.009  -0.011  0.00  0.00     0.213 C 
ATOM      3  C1  <0> d           0.047   1.539   0.008  0.00  0.00     0.043 C 
BRANCH   2   4
ATOM      4  N3  <0> d          -1.321  -0.492  -0.057  0.00  0.00    -0.073 N 
ATOM      5  H15 <0> d          -1.775  -0.149  -0.890  0.00  0.00     0.274 HD
ATOM      6  H16 <0> d          -1.312  -1.501  -0.070  0.00  0.00     0.274 HD
ATOM      7  H17 <0> d          -1.822  -0.170   0.757  0.00  0.00     0.274 HD
ENDBRANCH   2   4
ENDBRANCH   1   2
BRANCH   1   8
ATOM      8  C4  <0> d           2.165   0.003   1.299  0.00  0.00     0.009 A 
ATOM      9  C6  <0> d           2.607   1.053   2.028  0.00  0.00     0.123 A 
ATOM     10  N2  <0> d           3.930   1.187   1.798  0.00  0.00    -0.285 N 
ATOM     11  N1  <0> d           4.312   0.191   0.889  0.00  0.00    -0.185 NA
ATOM     12  C7  <0> d           4.810   2.199   2.388  0.00  0.00     0.179 C 
ATOM     13  C5  <0> d           3.253  -0.518   0.591  0.00  0.00     0.150 A 
ENDBRANCH   1   8
BRANCH   1  14
ATOM     14  O1  <0> d           0.761  -1.940   1.234  0.00  0.00    -0.339 OA
BRANCH  14  15
ATOM     15  C8  <0> d          -0.215  -2.574   1.934  0.00  0.00     0.069 A 
ATOM     16  C13 <0> d          -1.232  -1.840   2.529  0.00  0.00     0.038 A 
ATOM     17  C12 <0> d          -2.227  -2.487   3.235  0.00  0.00     0.022 A 
ATOM     18  C11 <0> d          -2.204  -3.865   3.360  0.00  0.00     0.011 A 
ATOM     19  C10 <0> d          -1.188  -4.598   2.773  0.00  0.00     0.022 A 
ATOM     20 Br1  <0> d          -3.563  -4.747   4.335  0.00  0.00    -0.051 Br
ATOM     21  C9  <0> d          -0.194  -3.955   2.061  0.00  0.00     0.038 A 
ENDBRANCH  14  15
ENDBRANCH   1  14
TORSDOF 5
