REMARK  5 active torsions:
REMARK  status: ('A' for Active; 'I' for Inactive)
REMARK    1  A    between atoms: C2_2  and  N1_3 
REMARK    2  A    between atoms: N1_3  and  C3_4 
REMARK    3  A    between atoms: N1_3  and  C5_6 
REMARK    4  A    between atoms: C16_17  and  C17_19 
REMARK    5  A    between atoms: C26_28  and  O1_29 
ROOT
ATOM      1  C5  <0> d          -0.270   4.789   2.314  0.00  0.00     0.030 A 
ATOM      2  C6  <0> d           0.557   3.677   2.220  0.00  0.00     0.031 A 
ATOM      3  C7  <0> d           1.896   3.794   2.535  0.00  0.00     0.032 A 
ATOM      4  C8  <0> d           2.409   5.014   2.956  0.00  0.00     0.035 A 
ATOM      5  C9  <0> d           1.589   6.127   3.058  0.00  0.00    -0.021 A 
ATOM      6  C10 <0> d           0.245   6.005   2.733  0.00  0.00     0.039 A 
ATOM      7  C11 <0> d           2.100   7.459   3.507  0.00  0.00     0.050 C 
ATOM      8  C12 <0> d           2.239   8.416   2.347  0.00  0.00    -0.021 C 
ATOM      9  C13 <0> d           3.291   9.181   2.514  0.00  0.00    -0.029 C 
ATOM     10  C14 <0> d           3.994   8.840   3.814  0.00  0.00     0.035 C 
ATOM     11  C15 <0> d           3.515   7.389   4.113  0.00  0.00     0.028 C 
ATOM     12  C16 <0> d           4.390   6.441   3.288  0.00  0.00     0.124 C 
ATOM     13  N2  <0> d           3.771   5.112   3.276  0.00  0.00    -0.380 N 
ATOM     14  H21 <0> d           4.291   4.320   3.485  0.00  0.00     0.160 HD
ENDROOT
BRANCH  12  15
ATOM     15  C17 <0> d           4.502   6.958   1.876  0.00  0.00     0.009 A 
ATOM     16  C26 <0> d           3.633   6.525   0.916  0.00  0.00     0.074 A 
ATOM     17  C25 <0> d           3.723   6.995  -0.398  0.00  0.00     0.038 A 
ATOM     18  C24 <0> d           4.678   7.896  -0.754  0.00  0.00     0.015 A 
ATOM     19  C23 <0> d           5.589   8.364   0.209  0.00  0.00    -0.025 A 
ATOM     20  C18 <0> d           5.496   7.892   1.543  0.00  0.00    -0.015 A 
ATOM     21  C22 <0> d           6.588   9.294  -0.124  0.00  0.00     0.012 A 
ATOM     22  C19 <0> d           6.412   8.355   2.503  0.00  0.00     0.013 A 
ATOM     23  C20 <0> d           7.366   9.257   2.144  0.00  0.00     0.001 A 
ATOM     24  C21 <0> d           7.454   9.725   0.834  0.00  0.00     0.001 A 
BRANCH  16  25
ATOM     25  O1  <0> d           2.668   5.625   1.241  0.00  0.00    -0.360 OA
ATOM     26  H28 <0> d           1.768   5.934   1.071  0.00  0.00     0.217 HD
ENDBRANCH  16  25
ENDBRANCH  12  15
BRANCH   1  27
ATOM     27  N1  <0> d          -1.627   4.679   1.989  0.00  0.00    -0.382 N 
BRANCH  27  28
ATOM     28  C2  <0> d          -2.173   3.394   1.546  0.00  0.00     0.118 C 
ATOM     29  C1  <0> d          -2.064   3.292   0.023  0.00  0.00     0.026 C 
ENDBRANCH  27  28
BRANCH  27  30
ATOM     30  C3  <0> d          -2.502   5.849   2.094  0.00  0.00     0.118 C 
ATOM     31  C4  <0> d          -3.106   5.911   3.498  0.00  0.00     0.026 C 
ENDBRANCH  27  30
ENDBRANCH   1  27
TORSDOF 5
