REMARK  4 active torsions:
REMARK  status: ('A' for Active; 'I' for Inactive)
REMARK    1  A    between atoms: C4_4  and  C7_7 
REMARK    2  A    between atoms: C7_7  and  S1_8 
REMARK    3  A    between atoms: S1_8  and  C8_9 
REMARK    4  A    between atoms: C12_17  and  C13_18 
ROOT
ATOM      1  C8  <0> d           5.768  -1.229   1.735  0.00  0.00     0.184 A 
ATOM      2  N1  <0> d           5.820  -1.534   0.466  0.00  0.00    -0.182 NA
ATOM      3  S2  <0> d           6.666  -2.980   0.423  0.00  0.00     0.053 SA
ATOM      4  C9  <0> d           6.904  -3.207   2.058  0.00  0.00     0.202 A 
ATOM      5  N2  <0> d           7.471  -4.205   2.701  0.00  0.00    -0.182 NA
ATOM      6  C10 <0> d           7.492  -4.200   4.045  0.00  0.00     0.283 C 
ATOM      7  O1  <0> d           8.125  -5.042   4.663  0.00  0.00    -0.265 OA
ATOM      8  C11 <0> d           6.728  -3.147   4.760  0.00  0.00     0.080 C 
ATOM      9  C12 <0> d           6.259  -3.332   6.050  0.00  0.00     0.030 C 
ATOM     10  C21 <0> d           6.494  -1.878   4.011  0.00  0.00     0.146 C 
ATOM     11  N4  <0> d           6.421  -0.708   4.585  0.00  0.00    -0.282 NA
ATOM     12  N5  <0> d           6.364  -2.067   2.620  0.00  0.00    -0.250 N 
ATOM     13  H15 <0> d           6.268   0.086   4.049  0.00  0.00     0.188 HD
ENDROOT
BRANCH   9  14
ATOM     14  C13 <0> d           5.063  -2.729   6.453  0.00  0.00    -0.027 A 
ATOM     15  C20 <0> d           4.232  -1.734   5.673  0.00  0.00     0.159 A 
ATOM     16  N3  <0> d           3.082  -1.411   6.523  0.00  0.00    -0.385 N 
ATOM     17  C19 <0> d           3.173  -2.074   7.647  0.00  0.00     0.039 A 
ATOM     18  H16 <0> d           2.368  -0.797   6.291  0.00  0.00     0.160 HD
ATOM     19  C14 <0> d           4.391  -2.913   7.657  0.00  0.00    -0.002 A 
ATOM     20  C18 <0> d           2.307  -2.115   8.833  0.00  0.00     0.030 A 
ATOM     21  C15 <0> d           4.660  -3.705   8.794  0.00  0.00     0.014 A 
ATOM     22  C16 <0> d           3.814  -3.692   9.852  0.00  0.00     0.001 A 
ATOM     23  C17 <0> d           2.653  -2.909   9.873  0.00  0.00     0.002 A 
ENDBRANCH   9  14
BRANCH   1  24
ATOM     24  S1  <0> d           4.954   0.234   2.282  0.00  0.00    -0.086 SA
BRANCH  24  25
ATOM     25  C7  <0> d           4.337   0.991   0.753  0.00  0.00     0.121 C 
BRANCH  25  26
ATOM     26  C4  <0> d           3.610   2.269   1.083  0.00  0.00    -0.049 A 
ATOM     27  C3  <0> d           4.299   3.466   1.124  0.00  0.00     0.008 A 
ATOM     28  C2  <0> d           3.632   4.638   1.425  0.00  0.00     0.001 A 
ATOM     29  C1  <0> d           2.274   4.614   1.685  0.00  0.00     0.000 A 
ATOM     30  C6  <0> d           1.585   3.416   1.644  0.00  0.00     0.001 A 
ATOM     31  C5  <0> d           2.252   2.244   1.344  0.00  0.00     0.008 A 
ENDBRANCH  25  26
ENDBRANCH  24  25
ENDBRANCH   1  24
TORSDOF 4
