REMARK  2 active torsions:
REMARK  status: ('A' for Active; 'I' for Inactive)
REMARK    1  A    between atoms: N1_6  and  C7_10 
REMARK    2  A    between atoms: C12_15  and  C13_16 
ROOT
ATOM      1  C7  <0> d           1.034  -3.986  -0.462  0.00  0.00     0.058 A 
ATOM      2  C8  <0> d          -0.098  -4.775  -0.604  0.00  0.00     0.031 A 
ATOM      3  C9  <0> d           0.024  -6.146  -0.718  0.00  0.00     0.002 A 
ATOM      4  C10 <0> d           1.274  -6.743  -0.692  0.00  0.00     0.001 A 
ATOM      5  C11 <0> d           2.409  -5.974  -0.551  0.00  0.00     0.017 A 
ATOM      6  C12 <0> d           2.301  -4.586  -0.441  0.00  0.00     0.029 A 
ENDROOT
BRANCH   1   7
ATOM      7  N1  <0> d           0.912  -2.599  -0.346  0.00  0.00    -0.251 N 
ATOM      8  C4  <0> d           0.989  -1.850  -1.457  0.00  0.00     0.232 C 
ATOM      9  C3  <0> d           0.878  -0.349  -1.398  0.00  0.00     0.113 C 
ATOM     10  O1  <0> d           1.152  -2.392  -2.529  0.00  0.00    -0.273 OA
ATOM     11  C2  <0> d           0.001   0.043  -0.204  0.00  0.00    -0.031 C 
ATOM     12  C1  <0> d          -0.025   1.566  -0.064  0.00  0.00     0.016 C 
ATOM     13  C6  <0> d           0.596  -0.580   1.064  0.00  0.00     0.113 C 
ATOM     14  C14 <0> d          -1.422  -0.478  -0.413  0.00  0.00     0.016 C 
ATOM     15  C5  <0> d           0.723  -2.068   0.871  0.00  0.00     0.232 C 
ATOM     16  O2  <0> d           0.653  -2.800   1.834  0.00  0.00    -0.273 OA
ENDBRANCH   1   7
BRANCH   6  17
ATOM     17  C13 <0> d           3.512  -3.757  -0.298  0.00  0.00     0.106 C 
ATOM     18  S1  <0> d           3.369  -2.079   0.006  0.00  0.00    -0.060 SA
ATOM     19  N2  <0> d           4.731  -4.322  -0.405  0.00  0.00    -0.389 N 
ATOM     20  H12 <0> d           4.812  -5.273  -0.577  0.00  0.00     0.157 HD
ATOM     21  H13 <0> d           5.528  -3.776  -0.310  0.00  0.00     0.157 HD
ENDBRANCH   6  17
TORSDOF 2
