REMARK  10 active torsions:
REMARK  status: ('A' for Active; 'I' for Inactive)
REMARK    1  A    between atoms: C2_2  and  N1_3 
REMARK    2  A    between atoms: N1_3  and  C3_4 
REMARK    3  A    between atoms: N1_3  and  C5_6 
REMARK    4  A    between atoms: C5_6  and  C6_7 
REMARK    5  A    between atoms: C5_6  and  C10_11 
REMARK    6  A    between atoms: C6_7  and  C7_8 
REMARK    7  A    between atoms: C10_11  and  N2_12 
REMARK       I    between atoms: N2_12  and  C11_13 
REMARK       I    between atoms: C11_13  and  N3_15 
REMARK    8  A    between atoms: N3_15  and  C12_16 
REMARK    9  A    between atoms: C12_16  and  C14_18 
REMARK   10  A    between atoms: C14_18  and  N4_19 
ROOT
ATOM      1  N2  <0> d           1.993   1.918   0.747  0.00  0.00    -0.341 N 
ATOM      2  C11 <0> d           2.349   3.176   1.075  0.00  0.00     0.316 C 
ATOM      3  O1  <0> d           3.038   3.377   2.057  0.00  0.00    -0.247 OA
ATOM      4  N3  <0> d           1.942   4.212   0.315  0.00  0.00    -0.337 N 
ATOM      5  H24 <0> d           1.444   1.758  -0.036  0.00  0.00     0.164 HD
ATOM      6  H25 <0> d           1.393   4.052  -0.469  0.00  0.00     0.164 HD
ENDROOT
BRANCH   1   7
ATOM      7  C10 <0> d           2.436   0.793   1.573  0.00  0.00     0.157 C 
BRANCH   7   8
ATOM      8  C5  <0> d           1.820  -0.503   1.042  0.00  0.00     0.206 C 
BRANCH   8   9
ATOM      9  N1  <0> d           0.370  -0.490   1.281  0.00  0.00    -0.066 N 
ATOM     10  H34 <0> d           0.048  -1.433   1.441  0.00  0.00     0.280 HD
BRANCH   9  11
ATOM     11  C2  <0> d           0.076   0.335   2.461  0.00  0.00     0.231 C 
ATOM     12  C1  <0> d           0.641  -0.342   3.711  0.00  0.00     0.034 C 
ENDBRANCH   9  11
BRANCH   9  13
ATOM     13  C3  <0> d          -0.314   0.070   0.109  0.00  0.00     0.231 C 
ATOM     14  C4  <0> d          -0.057  -0.823  -1.107  0.00  0.00     0.034 C 
ENDBRANCH   9  13
ENDBRANCH   8   9
BRANCH   8  15
ATOM     15  C6  <0> d           2.445  -1.698   1.764  0.00  0.00     0.039 C 
BRANCH  15  16
ATOM     16  C7  <0> d           1.889  -2.997   1.177  0.00  0.00    -0.021 C 
ATOM     17  C8  <0> d           2.348  -3.137  -0.276  0.00  0.00     0.009 C 
ATOM     18  C9  <0> d           2.402  -4.186   1.991  0.00  0.00     0.009 C 
ENDBRANCH  15  16
ENDBRANCH   8  15
ENDBRANCH   7   8
ENDBRANCH   1   7
BRANCH   4  19
ATOM     19  C12 <0> d           2.329   5.579   0.671  0.00  0.00     0.100 C 
ATOM     20  C13 <0> d           3.711   5.886   0.090  0.00  0.00     0.034 C 
BRANCH  19  21
ATOM     21  C14 <0> d           1.306   6.564   0.102  0.00  0.00     0.153 C 
BRANCH  21  22
ATOM     22  N4  <0> d           0.008   6.348   0.746  0.00  0.00    -0.350 N 
ATOM     23  C17 <0> d          -0.438   6.949   1.870  0.00  0.00     0.182 A 
ATOM     24  N5  <0> d          -1.636   6.505   2.134  0.00  0.00    -0.361 N 
ATOM     25  C16 <0> d          -1.991   5.606   1.203  0.00  0.00     0.106 A 
ATOM     26  H35 <0> d          -2.183   6.778   2.888  0.00  0.00     0.166 HD
ATOM     27  C15 <0> d          -0.975   5.494   0.326  0.00  0.00     0.108 A 
ENDBRANCH  21  22
ENDBRANCH  19  21
ENDBRANCH   4  19
TORSDOF 10
