REMARK  3 active torsions:
REMARK  status: ('A' for Active; 'I' for Inactive)
REMARK    1  A    between atoms: N1_9  and  C18_23 
REMARK    2  A    between atoms: C8_10  and  C9_12 
REMARK    3  A    between atoms: C18_23  and  C19_24 
ROOT
ATOM      1  C1  <0> d           0.297   1.684  -0.031  0.00  0.00     0.001 A 
ATOM      2  C2  <0> d           1.540   2.297  -0.028  0.00  0.00     0.002 A 
ATOM      3  C3  <0> d           2.696   1.541  -0.029  0.00  0.00     0.030 A 
ATOM      4  C4  <0> d           2.611   0.160  -0.033  0.00  0.00     0.045 A 
ATOM      5  C5  <0> d           1.352  -0.466  -0.040  0.00  0.00     0.058 A 
ATOM      6  C6  <0> d           0.195   0.308  -0.037  0.00  0.00     0.019 A 
ATOM      7  C7  <0> d           1.301  -1.940  -0.054  0.00  0.00     0.258 C 
ATOM      8  O1  <0> d           0.261  -2.516  -0.310  0.00  0.00    -0.267 OA
ATOM      9  N1  <0> d           2.420  -2.641   0.220  0.00  0.00    -0.316 N 
ATOM     10  C8  <0> d           3.660  -1.968   0.607  0.00  0.00     0.224 C 
ATOM     11  N2  <0> d           3.743  -0.648  -0.029  0.00  0.00    -0.364 N 
ATOM     12  H6  <0> d           4.569  -0.345  -0.437  0.00  0.00     0.162 HD
ENDROOT
BRANCH  10  13
ATOM     13  C9  <0> d           3.689  -1.800   2.104  0.00  0.00     0.020 A 
ATOM     14  C14 <0> d           4.899  -1.689   2.768  0.00  0.00     0.112 A 
ATOM     15  C13 <0> d           4.923  -1.528   4.146  0.00  0.00     0.102 A 
ATOM     16  O2  <0> d           6.072  -1.732   2.073  0.00  0.00    -0.347 OA
ATOM     17  C12 <0> d           3.739  -1.490   4.862  0.00  0.00     0.040 A 
ATOM     18  O3  <0> d           6.121  -1.415   4.791  0.00  0.00    -0.348 OA
ATOM     19  C11 <0> d           2.532  -1.606   4.196  0.00  0.00     0.004 A 
ATOM     20  C10 <0> d           2.507  -1.760   2.822  0.00  0.00     0.014 A 
ATOM     21  C17 <0> d           6.862  -0.231   4.539  0.00  0.00     0.178 C 
ATOM     22  C16 <0> d           7.686  -0.366   3.268  0.00  0.00     0.053 C 
ATOM     23  C15 <0> d           6.817  -0.513   2.028  0.00  0.00     0.178 C 
ENDBRANCH  10  13
BRANCH   9  24
ATOM     24  C18 <0> d           2.394  -4.103   0.127  0.00  0.00     0.193 C 
BRANCH  24  25
ATOM     25  C19 <0> d           2.768  -4.524  -1.270  0.00  0.00     0.070 A 
ATOM     26  O4  <0> d           1.914  -4.707  -2.291  0.00  0.00    -0.325 OA
ATOM     27  C22 <0> d           2.598  -5.077  -3.386  0.00  0.00     0.142 A 
ATOM     28  C21 <0> d           3.904  -5.144  -3.070  0.00  0.00     0.027 A 
ATOM     29  C20 <0> d           4.013  -4.787  -1.706  0.00  0.00     0.036 A 
ENDBRANCH  24  25
ENDBRANCH   9  24
TORSDOF 3
