REMARK  8 active torsions:
REMARK  status: ('A' for Active; 'I' for Inactive)
REMARK    1  A    between atoms: C2_2  and  C3_3 
REMARK    2  A    between atoms: C2_2  and  O2_29 
REMARK    3  A    between atoms: C3_3  and  N1_4 
REMARK    4  A    between atoms: N1_4  and  C4_5 
REMARK    5  A    between atoms: N3_13  and  C11_14 
REMARK    6  A    between atoms: C11_14  and  C12_15 
REMARK       I    between atoms: C12_15  and  N4_17 
REMARK    7  A    between atoms: N4_17  and  C13_18 
REMARK    8  A    between atoms: C17_22  and  C19_24 
ROOT
ATOM      1  C4  <0> d           1.341   2.276   0.026  0.00  0.00     0.681 A 
ATOM      2  N2  <0> d           0.063   1.990   0.008  0.00  0.00    -0.190 N 
ATOM      3  C5  <0> d          -0.102   0.643  -0.070  0.00  0.00     0.076 A 
ATOM      4  C6  <0> d          -1.226  -0.185  -0.119  0.00  0.00     0.032 A 
ATOM      5  C7  <0> d          -1.066  -1.550  -0.197  0.00  0.00     0.002 A 
ATOM      6  C8  <0> d           0.202  -2.110  -0.228  0.00  0.00     0.002 A 
ATOM      7  C9  <0> d           1.322  -1.306  -0.180  0.00  0.00     0.032 A 
ATOM      8  C10 <0> d           1.180   0.071  -0.101  0.00  0.00     0.079 A 
ATOM      9  N3  <0> d           2.075   1.127  -0.039  0.00  0.00    -0.172 N 
ATOM     10  H19 <0> d          -0.682   2.798   0.053  0.00  0.00     0.184 HD
ENDROOT
BRANCH   9  11
ATOM     11  C11 <0> d           3.537   1.029  -0.042  0.00  0.00     0.251 C 
BRANCH  11  12
ATOM     12  C12 <0> d           4.040   1.077  -1.462  0.00  0.00     0.241 C 
ATOM     13  O1  <0> d           3.255   1.183  -2.380  0.00  0.00    -0.271 OA
ATOM     14  N4  <0> d           5.362   1.002  -1.711  0.00  0.00    -0.326 N 
ATOM     15  H14 <0> d           6.080   0.994  -0.877  0.00  0.00     0.169 HD
BRANCH  14  16
ATOM     16  C13 <0> d           5.823   0.936  -3.031  0.00  0.00     0.035 A 
ATOM     17  C18 <0> d           7.034   1.522  -3.375  0.00  0.00     0.047 A 
ATOM     18  C17 <0> d           7.487   1.455  -4.678  0.00  0.00     0.071 A 
ATOM     19  C16 <0> d           6.735   0.803  -5.640  0.00  0.00     0.049 A 
ATOM     20  C15 <0> d           5.528   0.218  -5.300  0.00  0.00     0.027 A 
ATOM     21 Cl1  <0> d           7.307   0.720  -7.277  0.00  0.00    -0.083 Cl
ATOM     22  C14 <0> d           5.074   0.278  -3.997  0.00  0.00     0.031 A 
BRANCH  18  23
ATOM     23  C19 <0> d           8.800   2.091  -5.053  0.00  0.00     0.419 C 
ATOM     24  F1  <0> d           9.370   2.684  -3.921  0.00  0.00    -0.166 F 
ATOM     25  F2  <0> d           9.666   1.114  -5.554  0.00  0.00    -0.166 F 
ATOM     26  F3  <0> d           8.583   3.067  -6.032  0.00  0.00    -0.166 F 
ENDBRANCH  18  23
ENDBRANCH  14  16
ENDBRANCH  11  12
ENDBRANCH   9  11
BRANCH   1  27
ATOM     27  N1  <0> d           1.867   3.549   0.100  0.00  0.00    -0.223 N 
ATOM     28  H7  <0> d           2.957   3.694   0.110  0.00  0.00     0.177 HD
BRANCH  27  29
ATOM     29  C3  <0> d           0.973   4.708   0.166  0.00  0.00     0.169 C 
BRANCH  29  30
ATOM     30  C2  <0> d           1.805   5.990   0.240  0.00  0.00     0.132 C 
ATOM     31  C1  <0> d           0.872   7.201   0.309  0.00  0.00     0.041 C 
BRANCH  30  32
ATOM     32  O2  <0> d           2.628   5.957   1.408  0.00  0.00    -0.394 OA
ATOM     33  H18 <0> d           3.367   5.152   1.537  0.00  0.00     0.210 HD
ENDBRANCH  30  32
ENDBRANCH  29  30
ENDBRANCH  27  29
ENDBRANCH   1  27
TORSDOF 8
