REMARK  4 active torsions:
REMARK  status: ('A' for Active; 'I' for Inactive)
REMARK    1  A    between atoms: C10_10  and  N1_11 
REMARK       I    between atoms: N1_11  and  C11_12 
REMARK    2  A    between atoms: C11_12  and  C12_14 
REMARK    3  A    between atoms: C12_14  and  N2_15 
REMARK    4  A    between atoms: C16_20  and  N4_26 
ROOT
ATOM      1  C12 <0> d           6.269   1.814   1.377  0.00  0.00     0.235 C 
ENDROOT
BRANCH   1   2
ATOM      2  C11 <0> d           5.330   1.101   0.438  0.00  0.00     0.236 C 
ATOM      3  N1  <0> d           4.649   0.018   0.860  0.00  0.00    -0.351 N 
ATOM      4  H12 <0> d           4.762  -0.302   1.769  0.00  0.00     0.163 HD
ATOM      5  O1  <0> d           5.189   1.502  -0.698  0.00  0.00    -0.272 OA
BRANCH   3   6
ATOM      6  C10 <0> d           3.736  -0.675  -0.053  0.00  0.00     0.118 C 
ATOM      7  C4  <0> d           2.393   0.006  -0.025  0.00  0.00    -0.029 A 
ATOM      8  C3  <0> d           2.372   1.395  -0.016  0.00  0.00     0.010 A 
ATOM      9  C5  <0> d           1.208  -0.694  -0.013  0.00  0.00    -0.050 A 
ATOM     10  C2  <0> d           1.174   2.078   0.002  0.00  0.00     0.001 A 
ATOM     11  C1  <0> d          -0.017   1.375   0.010  0.00  0.00     0.001 A 
ATOM     12  C6  <0> d           0.002  -0.004   0.002  0.00  0.00     0.007 A 
ATOM     13  C7  <0> d           1.155  -2.199  -0.005  0.00  0.00     0.039 C 
ATOM     14  C8  <0> d           2.493  -2.786  -0.452  0.00  0.00     0.007 C 
ATOM     15  C9  <0> d           3.607  -2.135   0.376  0.00  0.00     0.030 C 
ENDBRANCH   3   6
ENDBRANCH   1   2
BRANCH   1  16
ATOM     16  N2  <0> d           6.883   2.950   0.685  0.00  0.00    -0.299 N 
ATOM     17  C20 <0> d           6.283   4.162   0.723  0.00  0.00     0.261 A 
ATOM     18  C19 <0> d           6.947   5.268   0.015  0.00  0.00     0.061 A 
ATOM     19  O2  <0> d           5.237   4.332   1.322  0.00  0.00    -0.267 OA
ATOM     20  C14 <0> d           8.155   4.991  -0.662  0.00  0.00     0.076 A 
ATOM     21  C18 <0> d           6.414   6.555  -0.004  0.00  0.00     0.022 A 
ATOM     22  N3  <0> d           8.653   3.730  -0.630  0.00  0.00    -0.243 NA
ATOM     23  C15 <0> d           8.805   6.019  -1.348  0.00  0.00     0.068 A 
ATOM     24  C13 <0> d           8.047   2.775   0.007  0.00  0.00     0.213 A 
ATOM     25  C16 <0> d           8.263   7.284  -1.355  0.00  0.00     0.105 A 
ATOM     26  C17 <0> d           7.075   7.553  -0.687  0.00  0.00     0.037 A 
BRANCH  25  27
ATOM     27  N4  <0> d           8.955   8.372  -2.082  0.00  0.00    -0.116 N 
ATOM     28  O3  <0> d           9.989   8.147  -2.665  0.00  0.00    -0.532 OA
ATOM     29  O4  <0> d           8.485   9.486  -2.092  0.00  0.00    -0.532 OA
ENDBRANCH  25  27
ENDBRANCH   1  16
TORSDOF 4
