REMARK  5 active torsions:
REMARK  status: ('A' for Active; 'I' for Inactive)
REMARK    1  A    between atoms: C2_2  and  C3_3 
REMARK    2  A    between atoms: C3_3  and  N1_6 
REMARK    3  A    between atoms: C6_7  and  C7_11 
REMARK    4  A    between atoms: C7_11  and  C8_12 
REMARK    5  A    between atoms: C7_11  and  N6_31 
ROOT
ATOM      1  C7  <0> d           3.628   0.559   0.329  0.00  0.00     0.299 C 
ENDROOT
BRANCH   1   2
ATOM      2  C6  <0> d           2.125   0.543   0.212  0.00  0.00     0.184 A 
ATOM      3  N1  <0> d           1.322   1.608   0.028  0.00  0.00    -0.223 N 
ATOM      4  N4  <0> d           0.111   1.166  -0.018  0.00  0.00    -0.043 NA
ATOM      5  N3  <0> d           0.130  -0.113   0.127  0.00  0.00    -0.023 NA
ATOM      6  N2  <0> d           1.347  -0.510   0.268  0.00  0.00    -0.111 NA
BRANCH   3   7
ATOM      7  C3  <0> d           1.745   3.005  -0.095  0.00  0.00     0.051 C 
ATOM      8  C4  <0> d           2.558   3.403   1.138  0.00  0.00     0.040 C 
ATOM      9  C5  <0> d           2.606   3.168  -1.349  0.00  0.00     0.040 C 
BRANCH   7  10
ATOM     10  C2  <0> d           0.511   3.903  -0.204  0.00  0.00     0.028 C 
ATOM     11  C1  <0> d           0.952   5.362  -0.333  0.00  0.00     0.007 C 
ENDBRANCH   7  10
ENDBRANCH   3   7
ENDBRANCH   1   2
BRANCH   1  12
ATOM     12  C8  <0> d           4.026   0.192   1.736  0.00  0.00     0.049 A 
ATOM     13  C16 <0> d           3.740  -1.098   2.233  0.00  0.00     0.254 A 
ATOM     14  N5  <0> d           4.079  -1.464   3.482  0.00  0.00    -0.322 N 
ATOM     15  O1  <0> d           3.171  -1.900   1.513  0.00  0.00    -0.268 OA
ATOM     16  C15 <0> d           4.723  -0.586   4.327  0.00  0.00     0.051 A 
ATOM     17  H2  <0> d           3.861  -2.386   3.801  0.00  0.00     0.169 HD
ATOM     18  C10 <0> d           5.031   0.712   3.880  0.00  0.00    -0.008 A 
ATOM     19  C14 <0> d           5.075  -0.964   5.619  0.00  0.00    -0.028 A 
ATOM     20  C9  <0> d           4.662   1.099   2.517  0.00  0.00     0.029 A 
ATOM     21  C11 <0> d           5.685   1.607   4.734  0.00  0.00     0.014 A 
ATOM     22  C12 <0> d           6.021   1.213   5.998  0.00  0.00     0.008 A 
ATOM     23  C13 <0> d           5.719  -0.067   6.443  0.00  0.00    -0.054 A 
ATOM     24  C18 <0> d           6.100  -0.479   7.841  0.00  0.00     0.049 C 
ATOM     25  C17 <0> d           4.753  -2.350   6.115  0.00  0.00     0.051 C 
ENDBRANCH   1  12
BRANCH   1  26
ATOM     26  N6  <0> d           4.190  -0.438  -0.605  0.00  0.00    -0.056 N 
ATOM     27  C19 <0> d           5.657  -0.513  -0.440  0.00  0.00     0.236 C 
ATOM     28  C20 <0> d           6.201  -1.633  -1.331  0.00  0.00     0.028 C 
ATOM     29  C21 <0> d           5.861  -1.327  -2.792  0.00  0.00     0.003 C 
ATOM     30  C22 <0> d           4.343  -1.179  -2.934  0.00  0.00     0.028 C 
ATOM     31  C23 <0> d           3.854  -0.072  -1.997  0.00  0.00     0.236 C 
ATOM     32  H33 <0> d           3.784  -1.358  -0.395  0.00  0.00     0.281 HD
ENDBRANCH   1  26
TORSDOF 5
