REMARK  3 active torsions:
REMARK  status: ('A' for Active; 'I' for Inactive)
REMARK    1  A    between atoms: C3_3  and  O1_13 
REMARK    2  A    between atoms: C7_8  and  C8_10 
REMARK    3  A    between atoms: O1_13  and  C11_14 
ROOT
ATOM      1  C1  <0> d           0.041   1.430   0.677  0.00  0.00     0.004 A 
ATOM      2  C2  <0> d           1.226   2.114   0.441  0.00  0.00     0.039 A 
ATOM      3  C3  <0> d           2.405   1.445   0.208  0.00  0.00     0.099 A 
ATOM      4  C4  <0> d           2.436   0.030   0.205  0.00  0.00     0.108 A 
ATOM      5  C5  <0> d           1.213  -0.631   0.450  0.00  0.00     0.038 A 
ATOM      6  C6  <0> d           0.041   0.048   0.681  0.00  0.00     0.021 A 
ATOM      7  S1  <0> d           1.693  -2.337   0.359  0.00  0.00    -0.072 SA
ATOM      8  C7  <0> d           3.328  -2.105   0.033  0.00  0.00     0.080 A 
ATOM      9  N1  <0> d           3.470  -0.812   0.002  0.00  0.00    -0.242 NA
ENDROOT
BRANCH   3  10
ATOM     10  O1  <0> d           3.546   2.146  -0.022  0.00  0.00    -0.343 OA
BRANCH  10  11
ATOM     11  C11 <0> d           3.425   3.566  -0.124  0.00  0.00     0.132 C 
ATOM     12  C15 <0> d           4.589   4.121  -0.951  0.00  0.00     0.060 C 
ATOM     13  C14 <0> d           4.498   5.648  -0.990  0.00  0.00     0.235 C 
ATOM     14  N2  <0> d           4.568   6.181   0.376  0.00  0.00    -0.075 N 
ATOM     15  C13 <0> d           3.416   5.711   1.154  0.00  0.00     0.235 C 
ATOM     16  H14 <0> d           4.561   7.189   0.343  0.00  0.00     0.277 HD
ATOM     17  H19 <0> d           5.420   5.866   0.815  0.00  0.00     0.277 HD
ATOM     18  C12 <0> d           3.466   4.186   1.276  0.00  0.00     0.060 C 
ENDBRANCH  10  11
ENDBRANCH   3  10
BRANCH   8  19
ATOM     19  C8  <0> d           4.387  -3.156  -0.175  0.00  0.00     0.045 A 
ATOM     20  C10 <0> d           4.648  -4.133   0.973  0.00  0.00     0.012 A 
ATOM     21  C9  <0> d           3.925  -4.611  -0.288  0.00  0.00     0.012 A 
ENDBRANCH   8  19
TORSDOF 3
