REMARK  2 active torsions:
REMARK  status: ('A' for Active; 'I' for Inactive)
REMARK    1  A    between atoms: C7_8  and  C20_24 
REMARK    2  A    between atoms: C11_13  and  C14_17 
ROOT
ATOM      1  C1  <0> d          -2.843   5.864  -1.323  0.00  0.00     0.002 A 
ATOM      2  C2  <0> d          -3.394   6.341  -0.148  0.00  0.00     0.002 A 
ATOM      3  C3  <0> d          -3.942   5.464   0.773  0.00  0.00     0.032 A 
ATOM      4  C4  <0> d          -3.934   4.106   0.504  0.00  0.00     0.059 A 
ATOM      5  C5  <0> d          -3.349   3.623  -0.657  0.00  0.00     0.056 A 
ATOM      6  C6  <0> d          -2.816   4.504  -1.583  0.00  0.00     0.031 A 
ATOM      7  N1  <0> d          -3.305   2.244  -0.854  0.00  0.00    -0.373 N 
ATOM      8  C7  <0> d          -2.533   1.387   0.021  0.00  0.00     0.178 C 
ATOM      9  C8  <0> d          -3.022   1.351   1.449  0.00  0.00     0.039 C 
ATOM     10  C9  <0> d          -3.925   2.182   1.995  0.00  0.00     0.022 C 
ATOM     11  N2  <0> d          -4.561   3.183   1.334  0.00  0.00    -0.357 N 
ATOM     12  C10 <0> d          -4.297   2.057   3.464  0.00  0.00     0.067 C 
ATOM     13  C11 <0> d          -4.233   0.591   3.892  0.00  0.00     0.031 C 
ATOM     14  C12 <0> d          -2.799   0.100   3.665  0.00  0.00     0.093 C 
ATOM     15  C13 <0> d          -2.439   0.323   2.227  0.00  0.00     0.160 C 
ATOM     16  O1  <0> d          -1.615  -0.407   1.710  0.00  0.00    -0.293 OA
ATOM     17  H7  <0> d          -3.870   1.809  -1.692  0.00  0.00     0.161 HD
ATOM     18  H8  <0> d          -5.648   3.233   1.491  0.00  0.00     0.166 HD
ENDROOT
BRANCH  13  19
ATOM     19  C14 <0> d          -4.590   0.470   5.351  0.00  0.00    -0.053 A 
ATOM     20  C19 <0> d          -5.652  -0.324   5.739  0.00  0.00     0.010 A 
ATOM     21  C18 <0> d          -5.980  -0.436   7.077  0.00  0.00     0.043 A 
ATOM     22  C17 <0> d          -5.243   0.248   8.029  0.00  0.00     0.116 A 
ATOM     23  C16 <0> d          -4.179   1.043   7.639  0.00  0.00     0.043 A 
ATOM     24  F1  <0> d          -5.563   0.140   9.338  0.00  0.00    -0.206 F 
ATOM     25  C15 <0> d          -3.850   1.149   6.301  0.00  0.00     0.010 A 
ENDBRANCH  13  19
BRANCH   8  26
ATOM     26  C20 <0> d          -1.103   1.863   0.017  0.00  0.00     0.080 A 
ATOM     27  O2  <0> d          -0.702   3.144   0.024  0.00  0.00    -0.325 OA
ATOM     28  C23 <0> d           0.640   3.193   0.012  0.00  0.00     0.142 A 
ATOM     29  C22 <0> d           1.111   1.934   0.002  0.00  0.00     0.027 A 
ATOM     30  C21 <0> d          -0.013   1.076   0.008  0.00  0.00     0.037 A 
ENDBRANCH   8  26
TORSDOF 2
