REMARK  3 active torsions:
REMARK  status: ('A' for Active; 'I' for Inactive)
REMARK    1  A    between atoms: C2_2  and  C12_17 
REMARK    2  A    between atoms: N1_3  and  N2_4 
REMARK       I    between atoms: N2_4  and  C3_5 
REMARK    3  A    between atoms: C3_5  and  C4_7 
ROOT
ATOM      1  N2  <0> d           0.024   0.033   2.342  0.00  0.00    -0.245 N 
ATOM      2  C3  <0> d           0.044  -0.647   3.506  0.00  0.00     0.269 C 
ATOM      3  O1  <0> d           0.060  -1.860   3.499  0.00  0.00    -0.269 OA
ATOM      4  H5  <0> d           0.011   1.003   2.347  0.00  0.00     0.192 HD
ENDROOT
BRANCH   2   5
ATOM      5  C4  <0> d           0.046   0.100   4.815  0.00  0.00     0.246 C 
ATOM      6  O3  <0> d           0.173  -0.827   5.899  0.00  0.00    -0.331 OA
ATOM      7  C11 <0> d          -0.105  -0.353   7.144  0.00  0.00     0.103 A 
ATOM      8  C6  <0> d          -0.819   0.827   7.314  0.00  0.00     0.102 A 
ATOM      9  C10 <0> d           0.327  -1.063   8.254  0.00  0.00     0.040 A 
ATOM     10  O2  <0> d          -1.248   1.542   6.238  0.00  0.00    -0.345 OA
ATOM     11  C7  <0> d          -1.098   1.287   8.592  0.00  0.00     0.039 A 
ATOM     12  C5  <0> d          -1.278   0.857   4.981  0.00  0.00     0.218 C 
ATOM     13  C8  <0> d          -0.666   0.574   9.694  0.00  0.00     0.003 A 
ATOM     14  C9  <0> d           0.047  -0.599   9.525  0.00  0.00     0.003 A 
ENDBRANCH   2   5
BRANCH   1  15
ATOM     15  N1  <0> d           0.022  -0.660   1.125  0.00  0.00    -0.176 NA
ATOM     16  C2  <0> d           0.002  -0.004   0.002  0.00  0.00     0.068 C 
ATOM     17  C1  <0> d          -0.018   1.503   0.010  0.00  0.00     0.074 C 
BRANCH  16  18
ATOM     18  C12 <0> d          -0.000  -0.730  -1.272  0.00  0.00     0.032 A 
ATOM     19  S1  <0> d          -0.025  -0.084  -2.936  0.00  0.00    -0.076 SA
ATOM     20  C15 <0> d          -0.010  -1.638  -3.813  0.00  0.00     0.075 A 
ATOM     21  C14 <0> d           0.005  -2.543  -2.798  0.00  0.00     0.033 A 
ATOM     22 Cl1  <0> d          -0.020  -1.922  -5.525  0.00  0.00    -0.076 Cl
ATOM     23  C13 <0> d           0.011  -2.096  -1.497  0.00  0.00     0.023 A 
ENDBRANCH  16  18
ENDBRANCH   1  15
TORSDOF 3
