REMARK  5 active torsions:
REMARK  status: ('A' for Active; 'I' for Inactive)
REMARK    1  A    between atoms: C2_2  and  N1_3 
REMARK       I    between atoms: N1_3  and  C3_4 
REMARK    2  A    between atoms: C3_4  and  C4_6 
REMARK    3  A    between atoms: C7_10  and  N2_11 
REMARK       I    between atoms: N2_11  and  C8_12 
REMARK    4  A    between atoms: C8_12  and  C9_14 
REMARK    5  A    between atoms: N3_19  and  C13_21 
ROOT
ATOM      1  N2  <0> d          -1.562   5.709   0.942  0.00  0.00    -0.315 N 
ATOM      2  C8  <0> d          -0.352   5.191   0.652  0.00  0.00     0.281 C 
ATOM      3  O2  <0> d           0.633   5.905   0.663  0.00  0.00    -0.265 OA
ATOM      4  H7  <0> d          -2.348   5.140   0.933  0.00  0.00     0.170 HD
ENDROOT
BRANCH   1   5
ATOM      5  C7  <0> d          -1.684   7.053   1.252  0.00  0.00     0.093 A 
ATOM      6  C4  <0> d          -2.833   7.765   1.570  0.00  0.00     0.073 A 
ATOM      7  C5  <0> d          -2.687   9.180   1.863  0.00  0.00    -0.026 A 
ATOM      8  C22 <0> d          -3.849  10.093   2.234  0.00  0.00     0.041 C 
ATOM      9  C6  <0> d          -1.426   9.657   1.782  0.00  0.00    -0.008 A 
ATOM     10  C21 <0> d          -3.292  11.354   2.898  0.00  0.00     0.005 C 
ATOM     11  C20 <0> d          -2.212  11.977   2.010  0.00  0.00     0.005 C 
ATOM     12  C19 <0> d          -0.976  11.066   2.021  0.00  0.00     0.047 C 
ATOM     13  S1  <0> d          -0.440   8.257   1.332  0.00  0.00    -0.075 SA
BRANCH   6  14
ATOM     14  C3  <0> d          -4.145   7.111   1.612  0.00  0.00     0.255 C 
ATOM     15  N1  <0> d          -4.907   7.057   0.501  0.00  0.00    -0.357 N 
ATOM     16  H6  <0> d          -4.587   7.451  -0.326  0.00  0.00     0.162 HD
ATOM     17  O1  <0> d          -4.546   6.617   2.649  0.00  0.00    -0.268 OA
BRANCH  15  18
ATOM     18  C2  <0> d          -6.217   6.404   0.543  0.00  0.00     0.118 C 
ATOM     19  C1  <0> d          -6.870   6.481  -0.839  0.00  0.00     0.026 C 
ENDBRANCH  15  18
ENDBRANCH   6  14
ENDBRANCH   1   5
BRANCH   2  20
ATOM     20  C9  <0> d          -0.222   3.759   0.321  0.00  0.00     0.195 A 
ATOM     21  N4  <0> d          -1.280   2.975   0.305  0.00  0.00    -0.158 NA
ATOM     22  N3  <0> d          -1.200   1.729   0.017  0.00  0.00    -0.244 N 
ATOM     23  C12 <0> d          -0.034   1.108  -0.284  0.00  0.00     0.123 A 
ATOM     24  C11 <0> d           1.133   1.795  -0.305  0.00  0.00     0.076 A 
ATOM     25  C10 <0> d           1.092   3.180   0.002  0.00  0.00     0.209 A 
ATOM     26  O3  <0> d           2.105   3.862   0.001  0.00  0.00    -0.286 OA
BRANCH  22  27
ATOM     27  C13 <0> d          -2.376   0.970   0.019  0.00  0.00     0.058 A 
ATOM     28  C18 <0> d          -2.308  -0.417   0.012  0.00  0.00     0.034 A 
ATOM     29  C17 <0> d          -3.469  -1.164   0.014  0.00  0.00     0.044 A 
ATOM     30  C16 <0> d          -4.701  -0.531   0.023  0.00  0.00     0.116 A 
ATOM     31  C15 <0> d          -4.771   0.852   0.031  0.00  0.00     0.044 A 
ATOM     32  F1  <0> d          -5.836  -1.264   0.026  0.00  0.00    -0.206 F 
ATOM     33  C14 <0> d          -3.612   1.603   0.034  0.00  0.00     0.034 A 
ENDBRANCH  22  27
ENDBRANCH   2  20
TORSDOF 5
