REMARK  3 active torsions:
REMARK  status: ('A' for Active; 'I' for Inactive)
REMARK    1  A    between atoms: C3_3  and  S1_9 
REMARK    2  A    between atoms: S1_9  and  N3_12 
REMARK    3  A    between atoms: N3_12  and  C6_13 
ROOT
ATOM      1  N3  <0> d           1.772  -0.566  -3.258  0.00  0.00    -0.310 N 
ATOM      2  H8  <0> d           2.052   0.346  -3.433  0.00  0.00     0.172 HD
ENDROOT
BRANCH   1   3
ATOM      3  S1  <0> d           0.219  -0.876  -2.775  0.00  0.00     0.263 S 
ATOM      4  O1  <0> d          -0.261  -1.929  -3.600  0.00  0.00    -0.200 OA
ATOM      5  O2  <0> d          -0.438   0.381  -2.685  0.00  0.00    -0.200 OA
BRANCH   3   6
ATOM      6  C3  <0> d           0.301  -1.518  -1.136  0.00  0.00     0.129 A 
ATOM      7  C2  <0> d           0.261  -0.794   0.006  0.00  0.00     0.049 A 
ATOM      8  C1  <0> d           0.139   0.705   0.104  0.00  0.00     0.071 C 
ATOM      9  N2  <0> d           0.356  -1.654   1.042  0.00  0.00    -0.281 N 
ATOM     10  N1  <0> d           0.450  -2.950   0.519  0.00  0.00    -0.178 NA
ATOM     11  H1  <0> d           0.358  -1.417   1.982  0.00  0.00     0.189 HD
ATOM     12  C4  <0> d           0.420  -2.868  -0.786  0.00  0.00     0.076 A 
ATOM     13  C5  <0> d           0.499  -4.026  -1.747  0.00  0.00     0.074 C 
ENDBRANCH   3   6
ENDBRANCH   1   3
BRANCH   1  14
ATOM     14  C6  <0> d           2.725  -1.671  -3.421  0.00  0.00     0.098 C 
ATOM     15  C10 <0> d           4.119  -1.199  -3.008  0.00  0.00     0.064 C 
ATOM     16  C9  <0> d           5.150  -2.302  -3.225  0.00  0.00     0.121 C 
ATOM     17  N4  <0> d           5.085  -2.895  -4.551  0.00  0.00    -0.059 N 
ATOM     18  C11 <0> d           5.022  -3.360  -2.125  0.00  0.00     0.046 C 
ATOM     19  C12 <0> d           6.548  -1.659  -3.071  0.00  0.00     0.046 C 
ATOM     20  C8  <0> d           3.770  -3.222  -5.082  0.00  0.00     0.121 C 
ATOM     21  H12 <0> d           5.653  -3.746  -4.552  0.00  0.00     0.279 HD
ATOM     22  H27 <0> d           5.549  -2.263  -5.209  0.00  0.00     0.279 HD
ATOM     23  C7  <0> d           2.773  -2.080  -4.894  0.00  0.00     0.064 C 
ATOM     24  C13 <0> d           3.925  -3.450  -6.604  0.00  0.00     0.046 C 
ATOM     25  C14 <0> d           3.213  -4.514  -4.485  0.00  0.00     0.046 C 
ENDBRANCH   1  14
TORSDOF 3
