REMARK  5 active torsions:
REMARK  status: ('A' for Active; 'I' for Inactive)
REMARK    1  A    between atoms: C3_3  and  C10_11 
REMARK    2  A    between atoms: C10_11  and  C11_13 
REMARK       I    between atoms: C11_13  and  N2_15 
REMARK    3  A    between atoms: N2_15  and  C12_16 
REMARK    4  A    between atoms: C12_16  and  C13_17 
REMARK    5  A    between atoms: N6_21  and  C14_22 
ROOT
ATOM      1  C11 <0> d          -3.621  -0.848  -0.862  0.00  0.00     0.292 C 
ATOM      2  O2  <0> d          -3.985  -1.349   0.182  0.00  0.00    -0.264 OA
ATOM      3  N2  <0> d          -4.482  -0.736  -1.892  0.00  0.00    -0.347 N 
ATOM      4  H9  <0> d          -4.191  -0.336  -2.727  0.00  0.00     0.163 HD
ENDROOT
BRANCH   1   5
ATOM      5  C10 <0> d          -2.221  -0.358  -1.005  0.00  0.00     0.248 C 
ATOM      6  O1  <0> d          -1.887   0.243  -2.008  0.00  0.00    -0.282 OA
BRANCH   5   7
ATOM      7  C3  <0> d          -1.283  -0.592   0.023  0.00  0.00     0.032 A 
ATOM      8  C2  <0> d          -1.477  -1.435   1.265  0.00  0.00     0.116 A 
ATOM      9  C1  <0> d          -1.772  -2.885   0.876  0.00  0.00     0.037 C 
ATOM     10  N1  <0> d          -0.216  -1.359   2.010  0.00  0.00    -0.381 N 
ATOM     11  C9  <0> d           0.625  -0.606   1.358  0.00  0.00     0.039 A 
ATOM     12  H17 <0> d          -0.037  -1.800   2.855  0.00  0.00     0.160 HD
ATOM     13  C4  <0> d           0.010  -0.099   0.107  0.00  0.00     0.003 A 
ATOM     14  C8  <0> d           2.011  -0.201   1.650  0.00  0.00     0.030 A 
ATOM     15  C5  <0> d           0.776   0.738  -0.733  0.00  0.00     0.014 A 
ATOM     16  C6  <0> d           2.046   1.067  -0.397  0.00  0.00     0.001 A 
ATOM     17  C7  <0> d           2.656   0.605   0.778  0.00  0.00     0.002 A 
ENDBRANCH   5   7
ENDBRANCH   1   5
BRANCH   3  18
ATOM     18  C12 <0> d          -5.859  -1.218  -1.752  0.00  0.00     0.205 C 
BRANCH  18  19
ATOM     19  C13 <0> d          -6.609  -0.976  -3.036  0.00  0.00     0.171 A 
ATOM     20  N6  <0> d          -6.702  -1.827  -4.081  0.00  0.00    -0.197 N 
ATOM     21  N5  <0> d          -7.500  -1.162  -5.029  0.00  0.00    -0.039 NA
ATOM     22  N4  <0> d          -7.805  -0.018  -4.517  0.00  0.00    -0.023 NA
ATOM     23  N3  <0> d          -7.286   0.098  -3.348  0.00  0.00    -0.112 NA
BRANCH  20  24
ATOM     24  C14 <0> d          -6.129  -3.102  -4.195  0.00  0.00     0.062 A 
ATOM     25  C19 <0> d          -6.803  -4.110  -4.871  0.00  0.00     0.032 A 
ATOM     26  C18 <0> d          -6.233  -5.363  -4.987  0.00  0.00     0.002 A 
ATOM     27  C17 <0> d          -4.998  -5.617  -4.420  0.00  0.00     0.000 A 
ATOM     28  C16 <0> d          -4.327  -4.617  -3.741  0.00  0.00     0.002 A 
ATOM     29  C15 <0> d          -4.889  -3.360  -3.627  0.00  0.00     0.032 A 
ENDBRANCH  20  24
ENDBRANCH  18  19
ENDBRANCH   3  18
TORSDOF 5
