REMARK  6 active torsions:
REMARK  status: ('A' for Active; 'I' for Inactive)
REMARK    1  A    between atoms: C4_4  and  O5_23 
REMARK    2  A    between atoms: C9_10  and  O2_12 
REMARK    3  A    between atoms: O2_12  and  C11_13 
REMARK    4  A    between atoms: C11_13  and  C12_14 
REMARK       I    between atoms: C12_14  and  N1_16 
REMARK    5  A    between atoms: N1_16  and  C13_17 
REMARK    6  A    between atoms: C13_17  and  C14_18 
ROOT
ATOM      1  C1  <0> d          -3.460   5.502  11.963  0.00  0.00     0.049 C 
ATOM      2  C2  <0> d          -2.011   5.107  11.831  0.00  0.00    -0.048 C 
ATOM      3  C3  <0> d          -1.197   5.127  12.884  0.00  0.00     0.041 C 
ATOM      4  C4  <0> d           0.243   4.715  12.732  0.00  0.00     0.288 C 
ATOM      5  O1  <0> d           0.721   5.034  11.424  0.00  0.00    -0.316 OA
ATOM      6  C5  <0> d          -0.059   4.667  10.375  0.00  0.00     0.085 A 
ATOM      7  C6  <0> d          -1.453   4.686  10.528  0.00  0.00     0.003 A 
ATOM      8  C7  <0> d          -2.277   4.315   9.472  0.00  0.00     0.017 A 
ATOM      9  C8  <0> d          -1.716   3.929   8.271  0.00  0.00     0.038 A 
ATOM     10  C9  <0> d          -0.335   3.910   8.118  0.00  0.00     0.072 A 
ATOM     11  C10 <0> d           0.494   4.274   9.172  0.00  0.00     0.074 A 
ENDROOT
BRANCH  10  12
ATOM     12  O2  <0> d           0.208   3.528   6.933  0.00  0.00    -0.342 OA
BRANCH  12  13
ATOM     13  C11 <0> d          -0.700   3.161   5.892  0.00  0.00     0.278 C 
BRANCH  13  14
ATOM     14  C12 <0> d           0.079   2.770   4.662  0.00  0.00     0.241 C 
ATOM     15  O3  <0> d           1.291   2.802   4.676  0.00  0.00    -0.271 OA
ATOM     16  N1  <0> d          -0.573   2.384   3.547  0.00  0.00    -0.357 N 
ATOM     17  H12 <0> d          -1.672   2.354   3.535  0.00  0.00     0.162 HD
BRANCH  16  18
ATOM     18  C13 <0> d           0.184   2.003   2.352  0.00  0.00     0.154 C 
BRANCH  18  19
ATOM     19  C14 <0> d          -0.788   1.610   1.237  0.00  0.00     0.139 C 
ATOM     20  O4  <0> d          -1.501   2.772   0.753  0.00  0.00    -0.384 OA
ATOM     21  C17 <0> d          -1.978   2.408  -0.561  0.00  0.00     0.168 C 
ATOM     22  C16 <0> d          -0.811   1.623  -1.201  0.00  0.00     0.029 C 
ATOM     23  C15 <0> d          -0.013   1.086   0.008  0.00  0.00     0.035 C 
ENDBRANCH  18  19
ENDBRANCH  16  18
ENDBRANCH  13  14
ENDBRANCH  12  13
ENDBRANCH  10  12
BRANCH   4  24
ATOM     24  O5  <0> d           0.355   3.307  12.944  0.00  0.00    -0.367 OA
ATOM     25  H21 <0> d           1.337   2.816  12.873  0.00  0.00     0.213 HD
ENDBRANCH   4  24
TORSDOF 6
