REMARK  3 active torsions:
REMARK  status: ('A' for Active; 'I' for Inactive)
REMARK    1  A    between atoms: C5_5  and  C7_7 
REMARK       I    between atoms: C7_7  and  N1_9 
REMARK    2  A    between atoms: C12_16  and  C18_22 
REMARK    3  A    between atoms: C22_26  and  N3_28 
ROOT
ATOM      1  C1  <0> d           0.009  -0.042  -2.635  0.00  0.00     0.002 A 
ATOM      2  C2  <0> d           0.579   0.198  -1.398  0.00  0.00     0.010 A 
ATOM      3  C3  <0> d           0.103   1.209  -0.576  0.00  0.00    -0.028 A 
ATOM      4  C4  <0> d          -0.966   2.014  -0.986  0.00  0.00     0.031 A 
ATOM      5  C5  <0> d          -1.554   1.788  -2.245  0.00  0.00     0.053 A 
ATOM      6  C6  <0> d          -1.047   0.727  -3.074  0.00  0.00     0.019 A 
ATOM      7  N2  <0> d          -1.483   3.030  -0.198  0.00  0.00    -0.282 NA
ATOM      8  C12 <0> d          -0.497   3.563   0.741  0.00  0.00     0.098 C 
ATOM      9  C13 <0> d           0.022   2.431   1.632  0.00  0.00     0.023 C 
ATOM     10  C14 <0> d           0.773   1.410   0.751  0.00  0.00     0.049 C 
ATOM     11  C15 <0> d           2.145   2.018   0.569  0.00  0.00    -0.021 C 
ATOM     12  C16 <0> d           2.386   2.894   1.512  0.00  0.00    -0.029 C 
ATOM     13  C17 <0> d           1.211   2.988   2.465  0.00  0.00     0.034 C 
ATOM     14  H15 <0> d          -1.875   3.765  -0.768  0.00  0.00     0.128 HD
ENDROOT
BRANCH   8  15
ATOM     15  C18 <0> d           0.652   4.166  -0.025  0.00  0.00    -0.037 A 
ATOM     16  C23 <0> d           1.474   5.098   0.581  0.00  0.00     0.046 A 
ATOM     17  C22 <0> d           2.531   5.647  -0.120  0.00  0.00     0.125 A 
ATOM     18  C21 <0> d           2.761   5.272  -1.431  0.00  0.00     0.067 A 
ATOM     19  C20 <0> d           1.935   4.343  -2.039  0.00  0.00     0.027 A 
ATOM     20 Cl1  <0> d           4.084   5.967  -2.314  0.00  0.00    -0.082 Cl
ATOM     21  C19 <0> d           0.881   3.791  -1.336  0.00  0.00     0.011 A 
BRANCH  17  22
ATOM     22  N3  <0> d           3.414   6.640   0.531  0.00  0.00    -0.114 N 
ATOM     23  O3  <0> d           3.212   6.971   1.686  0.00  0.00    -0.532 OA
ATOM     24  O4  <0> d           4.343   7.128  -0.087  0.00  0.00    -0.532 OA
ENDBRANCH  17  22
ENDBRANCH   8  15
BRANCH   5  25
ATOM     25  C7  <0> d          -2.686   2.623  -2.690  0.00  0.00     0.255 C 
ATOM     26  O1  <0> d          -2.596   3.835  -2.659  0.00  0.00    -0.267 OA
ATOM     27  N1  <0> d          -3.819   2.042  -3.131  0.00  0.00    -0.344 N 
ATOM     28  C11 <0> d          -4.915   2.848  -3.691  0.00  0.00     0.152 C 
ATOM     29  C8  <0> d          -3.994   0.582  -3.074  0.00  0.00     0.152 C 
ATOM     30  C10 <0> d          -6.218   2.443  -2.993  0.00  0.00     0.187 C 
ATOM     31  O2  <0> d          -6.371   1.024  -3.069  0.00  0.00    -0.388 OA
ATOM     32  C9  <0> d          -5.344   0.287  -2.401  0.00  0.00     0.187 C 
ENDBRANCH   5  25
TORSDOF 3
