REMARK  3 active torsions:
REMARK  status: ('A' for Active; 'I' for Inactive)
REMARK    1  A    between atoms: C4_4  and  C7_7 
REMARK    2  A    between atoms: N1_14  and  N3_17 
REMARK       I    between atoms: N3_17  and  C13_18 
REMARK    3  A    between atoms: C13_18  and  C14_20 
ROOT
ATOM      1  C7  <0> d           3.566  12.594   1.677  0.00  0.00    -0.001 A 
ATOM      2  C8  <0> d           3.425  13.928   1.489  0.00  0.00     0.065 A 
ATOM      3  S1  <0> d           2.417  14.033   0.022  0.00  0.00    -0.080 SA
ATOM      4  C9  <0> d           2.212  12.301  -0.301  0.00  0.00     0.115 A 
ATOM      5  C10 <0> d           2.929  11.681   0.736  0.00  0.00     0.081 A 
ATOM      6  C11 <0> d           2.931  10.250   0.719  0.00  0.00     0.281 A 
ATOM      7  O1  <0> d           3.526   9.622   1.578  0.00  0.00    -0.265 OA
ATOM      8  N1  <0> d           2.266   9.608  -0.259  0.00  0.00    -0.210 N 
ATOM      9  C12 <0> d           1.602  10.291  -1.226  0.00  0.00     0.237 A 
ATOM     10  N2  <0> d           1.578  11.597  -1.235  0.00  0.00    -0.234 NA
ENDROOT
BRANCH   8  11
ATOM     11  N3  <0> d           2.263   8.207  -0.282  0.00  0.00    -0.255 N 
ATOM     12  C13 <0> d           1.160   7.530   0.095  0.00  0.00     0.270 C 
ATOM     13  O2  <0> d           0.169   8.134   0.456  0.00  0.00    -0.266 OA
ATOM     14  H8  <0> d           3.159   7.661  -0.609  0.00  0.00     0.191 HD
BRANCH  12  15
ATOM     15  C14 <0> d           1.157   6.054   0.071  0.00  0.00     0.034 A 
ATOM     16  C19 <0> d           0.015   5.349   0.462  0.00  0.00     0.026 A 
ATOM     17  C18 <0> d           0.016   3.973   0.437  0.00  0.00    -0.030 A 
ATOM     18  C17 <0> d           1.151   3.283   0.024  0.00  0.00     0.041 A 
ATOM     19  C20 <0> d          -1.214   3.210   0.858  0.00  0.00     0.050 C 
ATOM     20  C16 <0> d           2.289   3.981  -0.366  0.00  0.00     0.031 A 
ATOM     21  N4  <0> d           1.146   1.889   0.001  0.00  0.00    -0.327 N 
ATOM     22  C15 <0> d           2.296   5.358  -0.344  0.00  0.00     0.019 A 
ATOM     23  C22 <0> d          -0.014   1.209   0.009  0.00  0.00     0.222 C 
ATOM     24  H16 <0> d           2.097   1.336  -0.023  0.00  0.00     0.169 HD
ATOM     25  C21 <0> d          -1.333   1.934   0.019  0.00  0.00     0.108 C 
ATOM     26  O3  <0> d           0.002  -0.004   0.002  0.00  0.00    -0.273 OA
ENDBRANCH  12  15
ENDBRANCH   8  11
BRANCH   1  27
ATOM     27  C4  <0> d           4.355  12.072   2.819  0.00  0.00    -0.024 A 
ATOM     28  C3  <0> d           5.638  12.559   3.064  0.00  0.00     0.012 A 
ATOM     29  C2  <0> d           6.368  12.069   4.128  0.00  0.00     0.001 A 
ATOM     30  C1  <0> d           5.828  11.098   4.951  0.00  0.00     0.000 A 
ATOM     31  C6  <0> d           4.555  10.611   4.713  0.00  0.00     0.001 A 
ATOM     32  C5  <0> d           3.814  11.097   3.656  0.00  0.00     0.012 A 
ENDBRANCH   1  27
TORSDOF 3
