REMARK  8 active torsions:
REMARK  status: ('A' for Active; 'I' for Inactive)
REMARK    1  A    between atoms: C9_12  and  C11_14 
REMARK    2  A    between atoms: C11_14  and  C12_15 
REMARK    3  A    between atoms: C11_14  and  N6_39 
REMARK    4  A    between atoms: N5_19  and  C13_20 
REMARK    5  A    between atoms: C18_25  and  C19_26 
REMARK    6  A    between atoms: C18_25  and  N6_39 
REMARK    7  A    between atoms: C25_33  and  C26_34 
REMARK    8  A    between atoms: C25_33  and  N6_39 
ROOT
ATOM      1  C11 <0> d          -0.278  -2.261   4.331  0.00  0.00     0.299 C 
ENDROOT
BRANCH   1   2
ATOM      2  C9  <0> d          -0.559  -1.061   3.465  0.00  0.00     0.049 A 
ATOM      3  C8  <0> d          -0.160   0.224   3.893  0.00  0.00     0.254 A 
ATOM      4  N1  <0> d          -0.391   1.319   3.148  0.00  0.00    -0.322 N 
ATOM      5  O1  <0> d           0.409   0.343   4.964  0.00  0.00    -0.268 OA
ATOM      6  C7  <0> d          -1.032   1.227   1.931  0.00  0.00     0.051 A 
ATOM      7  H1  <0> d          -0.104   2.187   3.473  0.00  0.00     0.169 HD
ATOM      8  C2  <0> d          -1.273   2.360   1.161  0.00  0.00    -0.034 A 
ATOM      9  C6  <0> d          -1.451  -0.032   1.459  0.00  0.00    -0.008 A 
ATOM     10  C1  <0> d          -0.832   3.715   1.651  0.00  0.00     0.050 C 
ATOM     11  C3  <0> d          -1.921   2.239  -0.050  0.00  0.00     0.009 A 
ATOM     12  C4  <0> d          -2.325   0.996  -0.515  0.00  0.00     0.002 A 
ATOM     13  C5  <0> d          -2.101  -0.131   0.224  0.00  0.00     0.014 A 
ATOM     14  C10 <0> d          -1.192  -1.218   2.276  0.00  0.00     0.029 A 
ENDBRANCH   1   2
BRANCH   1  15
ATOM     15  C12 <0> d           1.211  -2.451   4.459  0.00  0.00     0.184 A 
ATOM     16  N5  <0> d           1.957  -3.391   3.849  0.00  0.00    -0.227 N 
ATOM     17  N4  <0> d           3.179  -3.208   4.222  0.00  0.00    -0.044 NA
ATOM     18  N3  <0> d           3.219  -2.211   5.035  0.00  0.00    -0.023 NA
ATOM     19  N2  <0> d           2.031  -1.738   5.192  0.00  0.00    -0.111 NA
BRANCH  16  20
ATOM     20  C13 <0> d           1.473  -4.425   2.931  0.00  0.00     0.113 C 
ATOM     21  C17 <0> d           2.169  -4.285   1.565  0.00  0.00     0.027 C 
ATOM     22  C16 <0> d           2.933  -5.602   1.322  0.00  0.00     0.002 C 
ATOM     23  C15 <0> d           2.190  -6.639   2.201  0.00  0.00     0.002 C 
ATOM     24  C14 <0> d           1.838  -5.823   3.470  0.00  0.00     0.027 C 
ENDBRANCH  16  20
ENDBRANCH   1  15
BRANCH   1  25
ATOM     25  N6  <0> d          -0.846  -2.031   5.676  0.00  0.00    -0.046 N 
ATOM     26  H30 <0> d          -0.289  -1.314   6.155  0.00  0.00     0.282 HD
BRANCH  25  27
ATOM     27  C18 <0> d          -2.242  -1.558   5.561  0.00  0.00     0.275 C 
BRANCH  27  28
ATOM     28  C19 <0> d          -2.671  -0.989   6.889  0.00  0.00    -0.032 A 
ATOM     29  C24 <0> d          -2.443   0.345   7.175  0.00  0.00     0.010 A 
ATOM     30  C23 <0> d          -2.836   0.867   8.393  0.00  0.00     0.024 A 
ATOM     31  C22 <0> d          -3.458   0.056   9.325  0.00  0.00     0.034 A 
ATOM     32  C21 <0> d          -3.686  -1.278   9.038  0.00  0.00     0.024 A 
ATOM     33 Cl1  <0> d          -3.952   0.711  10.855  0.00  0.00    -0.084 Cl
ATOM     34  C20 <0> d          -3.297  -1.798   7.817  0.00  0.00     0.010 A 
ENDBRANCH  27  28
ENDBRANCH  25  27
BRANCH  25  35
ATOM     35  C25 <0> d          -0.800  -3.281   6.464  0.00  0.00     0.301 C 
BRANCH  35  36
ATOM     36  C26 <0> d           0.596  -3.462   7.000  0.00  0.00     0.078 A 
ATOM     37  O2  <0> d           1.550  -4.240   6.462  0.00  0.00    -0.325 OA
ATOM     38  C29 <0> d           2.667  -4.155   7.201  0.00  0.00     0.142 A 
ATOM     39  C28 <0> d           2.433  -3.322   8.232  0.00  0.00     0.027 A 
ATOM     40  C27 <0> d           1.098  -2.876   8.102  0.00  0.00     0.036 A 
ENDBRANCH  35  36
ENDBRANCH  25  35
ENDBRANCH   1  25
TORSDOF 8
