REMARK  6 active torsions:
REMARK  status: ('A' for Active; 'I' for Inactive)
REMARK    1  A    between atoms: C7_7  and  S1_8 
REMARK    2  A    between atoms: S1_8  and  C8_9 
REMARK    3  A    between atoms: C8_9  and  C9_10 
REMARK       I    between atoms: C9_10  and  N1_12 
REMARK    4  A    between atoms: N1_12  and  C10_13 
REMARK    5  A    between atoms: C11_15  and  C13_18 
REMARK    6  A    between atoms: C13_18  and  N3_19 
ROOT
ATOM      1  C9  <0> d          -1.187   1.624   0.017  0.00  0.00     0.233 C 
ATOM      2  O1  <0> d          -1.204   2.837   0.023  0.00  0.00    -0.272 OA
ATOM      3  N1  <0> d          -0.011   0.966   0.007  0.00  0.00    -0.305 N 
ATOM      4  H10 <0> d           0.004  -0.134   0.006  0.00  0.00     0.171 HD
ENDROOT
BRANCH   3   5
ATOM      5  C10 <0> d           1.183   1.677  -0.000  0.00  0.00     0.173 A 
ATOM      6  S2  <0> d           1.429   3.396   0.007  0.00  0.00    -0.062 SA
ATOM      7  C12 <0> d           3.216   3.375  -0.010  0.00  0.00     0.082 A 
ATOM      8  C11 <0> d           3.452   2.041  -0.020  0.00  0.00     0.072 A 
ATOM      9  N2  <0> d           2.420   1.220  -0.009  0.00  0.00    -0.227 NA
BRANCH   8  10
ATOM     10  C13 <0> d           4.861   1.507  -0.037  0.00  0.00     0.332 C 
BRANCH  10  11
ATOM     11  N3  <0> d           5.290   1.213   1.337  0.00  0.00     0.098 N 
ATOM     12  C17 <0> d           6.561   0.473   1.345  0.00  0.00     0.299 C 
ATOM     13  C16 <0> d           6.939   0.137   2.790  0.00  0.00     0.198 C 
ATOM     14  O2  <0> d           7.010   1.344   3.553  0.00  0.00    -0.388 OA
ATOM     15  C15 <0> d           5.789   2.089   3.567  0.00  0.00     0.198 C 
ATOM     16  C14 <0> d           5.399   2.446   2.130  0.00  0.00     0.299 C 
ENDBRANCH  10  11
ENDBRANCH   8  10
ENDBRANCH   3   5
BRANCH   1  17
ATOM     17  C8  <0> d          -2.482   0.853   0.018  0.00  0.00     0.182 C 
BRANCH  17  18
ATOM     18  S1  <0> d          -3.877   2.013   0.031  0.00  0.00    -0.120 SA
BRANCH  18  19
ATOM     19  C7  <0> d          -5.298   0.971   0.033  0.00  0.00     0.006 A 
ATOM     20  C2  <0> d          -6.570   1.528   0.042  0.00  0.00    -0.045 A 
ATOM     21  C1  <0> d          -6.737   3.026   0.050  0.00  0.00     0.049 C 
ATOM     22  C3  <0> d          -7.682   0.709   0.042  0.00  0.00     0.008 A 
ATOM     23  C4  <0> d          -7.529  -0.666   0.034  0.00  0.00     0.001 A 
ATOM     24  C5  <0> d          -6.264  -1.224   0.025  0.00  0.00     0.001 A 
ATOM     25  C6  <0> d          -5.148  -0.411   0.018  0.00  0.00     0.019 A 
ENDBRANCH  18  19
ENDBRANCH  17  18
ENDBRANCH   1  17
TORSDOF 6
