REMARK  3 active torsions:
REMARK  status: ('A' for Active; 'I' for Inactive)
REMARK    1  A    between atoms: C4_4  and  N1_9 
REMARK       I    between atoms: N1_9  and  C8_10 
REMARK    2  A    between atoms: C8_10  and  C9_12 
REMARK    3  A    between atoms: C12_15  and  N2_18 
ROOT
ATOM      1  C9  <0> d           0.272  -4.824  -3.715  0.00  0.00     0.032 A 
ATOM      2  C10 <0> d           0.509  -4.122  -4.900  0.00  0.00     0.019 A 
ATOM      3  C11 <0> d           0.614  -4.803  -6.092  0.00  0.00     0.031 A 
ATOM      4  C12 <0> d           0.484  -6.188  -6.118  0.00  0.00     0.044 A 
ATOM      5  C13 <0> d           0.248  -6.889  -4.940  0.00  0.00     0.031 A 
ATOM      6  C14 <0> d           0.147  -6.215  -3.744  0.00  0.00     0.019 A 
ENDROOT
BRANCH   1   7
ATOM      7  C8  <0> d           0.160  -4.097  -2.435  0.00  0.00     0.256 C 
ATOM      8  N1  <0> d           0.280  -2.755  -2.409  0.00  0.00    -0.323 N 
ATOM      9  H8  <0> d           0.366  -2.260  -3.239  0.00  0.00     0.169 HD
ATOM     10  O1  <0> d          -0.041  -4.710  -1.404  0.00  0.00    -0.267 OA
BRANCH   8  11
ATOM     11  C4  <0> d           0.281  -2.076  -1.186  0.00  0.00     0.035 A 
ATOM     12  C3  <0> d           0.820  -2.679  -0.057  0.00  0.00     0.037 A 
ATOM     13  C2  <0> d           0.820  -2.006   1.150  0.00  0.00    -0.043 A 
ATOM     14  C1  <0> d           1.403  -2.660   2.376  0.00  0.00     0.049 C 
ATOM     15  C7  <0> d           0.279  -0.735   1.234  0.00  0.00     0.017 A 
ATOM     16  C6  <0> d          -0.253  -0.130   0.109  0.00  0.00     0.022 A 
ATOM     17 Br1  <0> d           0.274   0.179   2.889  0.00  0.00    -0.051 Br
ATOM     18  C5  <0> d          -0.256  -0.798  -1.099  0.00  0.00     0.031 A 
ENDBRANCH   8  11
ENDBRANCH   1   7
BRANCH   4  19
ATOM     19  N2  <0> d           0.590  -6.875  -7.329  0.00  0.00    -0.267 N 
ATOM     20  C17 <0> d           1.573  -7.731  -7.670  0.00  0.00     0.331 A 
ATOM     21  N3  <0> d           1.319  -8.187  -8.912  0.00  0.00    -0.317 N 
ATOM     22  O2  <0> d           2.525  -8.040  -6.976  0.00  0.00    -0.246 OA
ATOM     23  C16 <0> d           0.149  -7.591  -9.358  0.00  0.00     0.118 A 
ATOM     24  H1  <0> d           1.862  -8.819  -9.409  0.00  0.00     0.170 HD
ATOM     25  C15 <0> d          -0.296  -6.792  -8.394  0.00  0.00     0.033 A 
ATOM     26  C18 <0> d          -1.542  -5.947  -8.448  0.00  0.00     0.070 C 
ENDBRANCH   4  19
TORSDOF 3
