REMARK  1 active torsions:
REMARK  status: ('A' for Active; 'I' for Inactive)
REMARK    1  A    between atoms: C3_3  and  C7_10 
ROOT
ATOM      1  C1  <0> d           4.102   4.388  -0.060  0.00  0.00     0.073 C 
ATOM      2  C2  <0> d           3.096   3.266  -0.035  0.00  0.00     0.064 A 
ATOM      3  C3  <0> d           1.749   3.392   0.236  0.00  0.00     0.103 A 
ATOM      4  N1  <0> d           1.193   2.104   0.153  0.00  0.00    -0.296 N 
ATOM      5  C4  <0> d          -0.038   1.509   0.298  0.00  0.00     0.107 A 
ATOM      6  C5  <0> d          -0.184   0.194   0.134  0.00  0.00     0.071 A 
ATOM      7  S1  <0> d           1.484  -0.314  -0.253  0.00  0.00    -0.062 SA
ATOM      8  C6  <0> d           2.244   1.291  -0.162  0.00  0.00     0.177 A 
ATOM      9  N2  <0> d           3.350   1.983  -0.269  0.00  0.00    -0.227 NA
ENDROOT
BRANCH   3  10
ATOM     10  C7  <0> d           1.059   4.590   0.540  0.00  0.00     0.123 C 
ATOM     11  S2  <0> d           1.930   6.046   0.763  0.00  0.00    -0.058 SA
ATOM     12  N3  <0> d          -0.284   4.584   0.653  0.00  0.00    -0.388 N 
ATOM     13  H6  <0> d          -0.820   5.515   0.890  0.00  0.00     0.157 HD
ATOM     14  H7  <0> d          -0.844   3.648   0.510  0.00  0.00     0.157 HD
ENDBRANCH   3  10
TORSDOF 1
