REMARK  7 active torsions:
REMARK  status: ('A' for Active; 'I' for Inactive)
REMARK    1  A    between atoms: C2_2  and  C3_3 
REMARK    2  A    between atoms: C2_2  and  N4_23 
REMARK    3  A    between atoms: C9_12  and  C10_13 
REMARK    4  A    between atoms: C9_12  and  N5_33 
REMARK    5  A    between atoms: C12_15  and  O2_21 
REMARK    6  A    between atoms: C14_17  and  O1_19 
REMARK       I    between atoms: N4_23  and  C18_24 
REMARK    7  A    between atoms: C18_24  and  C19_26 
ROOT
ATOM      1  C3  <0> d          -0.135   3.427   2.888  0.00  0.00     0.152 A 
ATOM      2  N1  <0> d           0.396   4.616   2.763  0.00  0.00    -0.133 NA
ATOM      3  N2  <0> d           0.690   4.833   1.528  0.00  0.00    -0.135 NA
ATOM      4  C4  <0> d           0.368   3.794   0.815  0.00  0.00     0.131 A 
ATOM      5  N3  <0> d          -0.180   2.881   1.654  0.00  0.00    -0.317 N 
ATOM      6  C5  <0> d          -0.727   1.578   1.270  0.00  0.00     0.159 C 
ATOM      7  C6  <0> d          -0.013   1.086   0.008  0.00  0.00     0.255 C 
ATOM      8  C7  <0> d          -0.739   3.033  -1.259  0.00  0.00     0.243 C 
ATOM      9  C8  <0> d           0.555   3.598  -0.667  0.00  0.00     0.108 C 
ATOM     10  N5  <0> d          -0.707   1.554  -1.214  0.00  0.00    -0.065 N 
ATOM     11  H37 <0> d          -0.197   1.210  -2.036  0.00  0.00     0.280 HD
ENDROOT
BRANCH   1  12
ATOM     12  C2  <0> d          -0.606   2.787   4.168  0.00  0.00     0.152 C 
ATOM     13  C1  <0> d           0.604   2.331   4.986  0.00  0.00     0.040 C 
BRANCH  12  14
ATOM     14  N4  <0> d          -1.381   3.759   4.943  0.00  0.00    -0.349 N 
ATOM     15  C18 <0> d          -2.304   3.333   5.829  0.00  0.00     0.222 C 
ATOM     16  O3  <0> d          -2.492   2.144   5.984  0.00  0.00    -0.273 OA
ATOM     17  H24 <0> d          -1.231   4.709   4.819  0.00  0.00     0.163 HD
BRANCH  15  18
ATOM     18  C19 <0> d          -3.101   4.332   6.626  0.00  0.00     0.081 C 
ATOM     19  C23 <0> d          -4.071   3.592   7.551  0.00  0.00     0.042 C 
ATOM     20  C22 <0> d          -4.834   4.610   8.402  0.00  0.00     0.235 C 
ATOM     21  N6  <0> d          -3.866   5.381   9.210  0.00  0.00    -0.075 N 
ATOM     22  C21 <0> d          -2.971   6.157   8.325  0.00  0.00     0.235 C 
ATOM     23  C24 <0> d          -4.586   6.293  10.124  0.00  0.00     0.269 C 
ATOM     24  H38 <0> d          -3.302   4.729   9.766  0.00  0.00     0.279 HD
ATOM     25  C20 <0> d          -2.152   5.185   7.473  0.00  0.00     0.042 C 
ENDBRANCH  15  18
ENDBRANCH  12  14
ENDBRANCH   1  12
BRANCH  10  26
ATOM     26  C9  <0> d          -2.080   1.021  -1.247  0.00  0.00     0.273 C 
BRANCH  26  27
ATOM     27  C10 <0> d          -2.687   1.336  -2.590  0.00  0.00    -0.027 A 
ATOM     28  C15 <0> d          -2.529   0.454  -3.642  0.00  0.00     0.045 A 
ATOM     29  C14 <0> d          -3.086   0.742  -4.880  0.00  0.00     0.071 A 
ATOM     30  C13 <0> d          -3.800   1.916  -5.061  0.00  0.00     0.073 A 
ATOM     31  C12 <0> d          -3.958   2.799  -4.004  0.00  0.00     0.071 A 
ATOM     32  C11 <0> d          -3.403   2.504  -2.767  0.00  0.00     0.045 A 
BRANCH  29  33
ATOM     33  O1  <0> d          -2.930  -0.126  -5.914  0.00  0.00    -0.356 OA
ATOM     34  C16 <0> d          -3.530   0.235  -7.160  0.00  0.00     0.210 C 
ENDBRANCH  29  33
BRANCH  31  35
ATOM     35  O2  <0> d          -4.657   3.951  -4.179  0.00  0.00    -0.356 OA
ATOM     36  C17 <0> d          -5.204   4.187  -5.478  0.00  0.00     0.210 C 
ENDBRANCH  31  35
ENDBRANCH  26  27
ENDBRANCH  10  26
TORSDOF 7
