REMARK  4 active torsions:
REMARK  status: ('A' for Active; 'I' for Inactive)
REMARK    1  A    between atoms: C3_3  and  N1_8 
REMARK    2  A    between atoms: N1_8  and  C7_9 
REMARK    3  A    between atoms: C8_10  and  C12_16 
REMARK    4  A    between atoms: C10_12  and  N3_15 
REMARK       I    between atoms: C12_16  and  N4_18 
ROOT
ATOM      1  C7  <0> d           4.861   1.452  -0.253  0.00  0.00     0.143 A 
ATOM      2  C8  <0> d           5.989   2.175   0.172  0.00  0.00     0.079 A 
ATOM      3  C9  <0> d           7.127   1.471   0.581  0.00  0.00     0.051 A 
ATOM      4  C10 <0> d           7.089   0.082   0.549  0.00  0.00     0.044 A 
ATOM      5  C11 <0> d           5.935  -0.558   0.116  0.00  0.00     0.148 A 
ATOM      6  N2  <0> d           4.874   0.129  -0.260  0.00  0.00    -0.240 NA
ENDROOT
BRANCH   1   7
ATOM      7  N1  <0> d           3.724   2.131  -0.663  0.00  0.00    -0.340 N 
ATOM      8  H5  <0> d           3.732   3.099  -0.722  0.00  0.00     0.167 HD
BRANCH   7   9
ATOM      9  C3  <0> d           2.566   1.420  -0.990  0.00  0.00     0.034 A 
ATOM     10  C2  <0> d           1.317   1.943  -0.680  0.00  0.00     0.029 A 
ATOM     11  C1  <0> d           0.174   1.238  -1.004  0.00  0.00     0.003 A 
ATOM     12  C6  <0> d           0.272   0.013  -1.638  0.00  0.00     0.018 A 
ATOM     13  C5  <0> d           1.514  -0.511  -1.948  0.00  0.00     0.008 A 
ATOM     14  C4  <0> d           2.661   0.189  -1.626  0.00  0.00     0.047 A 
ATOM     15  I1  <0> d           1.656  -2.368  -2.908  0.00  0.00    -0.045 I 
ENDBRANCH   7   9
ENDBRANCH   1   7
BRANCH   2  16
ATOM     16  C12 <0> d           5.973   3.649   0.185  0.00  0.00     0.253 C 
ATOM     17  O1  <0> d           4.914   4.246   0.199  0.00  0.00    -0.268 OA
ATOM     18  N4  <0> d           7.134   4.335   0.183  0.00  0.00    -0.366 N 
ATOM     19  H10 <0> d           7.979   3.858   0.173  0.00  0.00     0.159 HD
ATOM     20  H11 <0> d           7.124   5.305   0.192  0.00  0.00     0.159 HD
ENDBRANCH   2  16
BRANCH   4  21
ATOM     21  N3  <0> d           8.205  -0.664   0.949  0.00  0.00    -0.398 N 
ATOM     22  H8  <0> d           9.008  -0.212   1.251  0.00  0.00     0.156 HD
ATOM     23  H9  <0> d           8.174  -1.634   0.925  0.00  0.00     0.156 HD
ENDBRANCH   4  21
TORSDOF 4
