REMARK  7 active torsions:
REMARK  status: ('A' for Active; 'I' for Inactive)
REMARK    1  A    between atoms: C3_3  and  O1_8 
REMARK    2  A    between atoms: O1_8  and  C7_9 
REMARK    3  A    between atoms: C7_9  and  C12_15 
REMARK       I    between atoms: C12_15  and  N3_17 
REMARK    4  A    between atoms: N3_17  and  C13_18 
REMARK    5  A    between atoms: C13_18  and  C14_19 
REMARK    6  A    between atoms: C14_19  and  N4_20 
REMARK    7  A    between atoms: N4_20  and  C15_21 
ROOT
ATOM      1  C7  <0> d           0.107  -0.769  -3.583  0.00  0.00     0.151 C 
ATOM      2  C8  <0> d          -1.100  -1.642  -3.940  0.00  0.00     0.076 C 
ATOM      3  C9  <0> d          -0.893  -2.244  -5.332  0.00  0.00     0.235 C 
ATOM      4  N2  <0> d          -0.757  -1.166  -6.319  0.00  0.00    -0.075 N 
ATOM      5  C10 <0> d           0.439  -0.368  -6.024  0.00  0.00     0.235 C 
ATOM      6  C11 <0> d           0.283   0.306  -4.659  0.00  0.00     0.076 C 
ATOM      7  H11 <0> d          -0.674  -1.566  -7.242  0.00  0.00     0.277 HD
ATOM      8  H27 <0> d          -1.573  -0.574  -6.283  0.00  0.00     0.277 HD
ENDROOT
BRANCH   1   9
ATOM      9  O1  <0> d          -0.113  -0.145  -2.316  0.00  0.00    -0.328 OA
BRANCH   9  10
ATOM     10  C3  <0> d          -0.222  -0.963  -1.236  0.00  0.00     0.094 A 
ATOM     11  C2  <0> d          -0.501  -0.439   0.018  0.00  0.00     0.063 A 
ATOM     12  C1  <0> d          -0.684   1.048   0.181  0.00  0.00     0.073 C 
ATOM     13  N1  <0> d          -0.603  -1.228   1.069  0.00  0.00    -0.263 NA
ATOM     14  C6  <0> d          -0.457  -2.535   0.973  0.00  0.00     0.117 A 
ATOM     15  C5  <0> d          -0.177  -3.130  -0.242  0.00  0.00     0.022 A 
ATOM     16  C4  <0> d          -0.056  -2.337  -1.372  0.00  0.00     0.040 A 
ENDBRANCH   9  10
ENDBRANCH   1   9
BRANCH   1  17
ATOM     17  C12 <0> d           1.347  -1.623  -3.515  0.00  0.00     0.253 C 
ATOM     18  O2  <0> d           1.380  -2.690  -4.090  0.00  0.00    -0.270 OA
ATOM     19  N3  <0> d           2.418  -1.200  -2.816  0.00  0.00    -0.357 N 
ATOM     20  H16 <0> d           2.419  -0.317  -2.416  0.00  0.00     0.162 HD
BRANCH  19  21
ATOM     21  C13 <0> d           3.583  -2.076  -2.660  0.00  0.00     0.142 C 
BRANCH  21  22
ATOM     22  C14 <0> d           4.651  -1.361  -1.830  0.00  0.00     0.139 C 
BRANCH  22  23
ATOM     23  N4  <0> d           5.815  -2.236  -1.674  0.00  0.00    -0.388 N 
ATOM     24  H21 <0> d           5.815  -3.120  -2.074  0.00  0.00     0.159 HD
BRANCH  23  25
ATOM     25  C15 <0> d           6.926  -1.798  -0.949  0.00  0.00     0.028 A 
ATOM     26  C20 <0> d           8.031  -2.627  -0.800  0.00  0.00     0.029 A 
ATOM     27  C19 <0> d           9.130  -2.189  -0.087  0.00  0.00     0.002 A 
ATOM     28  C18 <0> d           9.126  -0.931   0.487  0.00  0.00     0.000 A 
ATOM     29  C17 <0> d           8.026  -0.106   0.346  0.00  0.00     0.002 A 
ATOM     30  C16 <0> d           6.926  -0.535  -0.370  0.00  0.00     0.029 A 
ENDBRANCH  23  25
ENDBRANCH  22  23
ENDBRANCH  21  22
ENDBRANCH  19  21
ENDBRANCH   1  17
TORSDOF 7
