REMARK  6 active torsions:
REMARK  status: ('A' for Active; 'I' for Inactive)
REMARK    1  A    between atoms: C2_2  and  C4_4 
REMARK    2  A    between atoms: C4_4  and  C5_5 
REMARK    3  A    between atoms: C4_4  and  N3_20 
REMARK    4  A    between atoms: C5_5  and  N1_6 
REMARK    5  A    between atoms: N1_6  and  S1_7 
REMARK    6  A    between atoms: S1_7  and  C6_10 
ROOT
ATOM      1  N1  <0> d          -1.967  -0.329   2.333  0.00  0.00    -0.313 N 
ATOM      2  H11 <0> d          -1.234  -0.953   2.446  0.00  0.00     0.172 HD
ENDROOT
BRANCH   1   3
ATOM      3  C5  <0> d          -2.475  -0.030   0.991  0.00  0.00     0.165 C 
BRANCH   3   4
ATOM      4  C4  <0> d          -1.454  -0.485  -0.053  0.00  0.00     0.209 C 
BRANCH   4   5
ATOM      5  C2  <0> d          -0.201   0.388   0.045  0.00  0.00     0.010 C 
ATOM      6  C1  <0> d          -0.593   1.860  -0.088  0.00  0.00     0.011 C 
ATOM      7  C3  <0> d           0.474   0.160   1.400  0.00  0.00     0.011 C 
ENDBRANCH   4   5
BRANCH   4   8
ATOM      8  N3  <0> d          -2.036  -0.356  -1.396  0.00  0.00    -0.065 N 
ATOM      9  C18 <0> d          -1.021  -0.691  -2.402  0.00  0.00     0.235 C 
ATOM     10  C17 <0> d          -1.597  -0.481  -3.803  0.00  0.00     0.028 C 
ATOM     11  C16 <0> d          -2.819  -1.385  -3.988  0.00  0.00     0.003 C 
ATOM     12  C15 <0> d          -3.840  -1.078  -2.888  0.00  0.00     0.028 C 
ATOM     13  C14 <0> d          -3.180  -1.266  -1.520  0.00  0.00     0.235 C 
ATOM     14  H28 <0> d          -2.347   0.593  -1.537  0.00  0.00     0.280 HD
ENDBRANCH   4   8
ENDBRANCH   3   4
ENDBRANCH   1   3
BRANCH   1  15
ATOM     15  S1  <0> d          -2.646   0.400   3.656  0.00  0.00     0.258 S 
ATOM     16  O1  <0> d          -1.963  -0.108   4.794  0.00  0.00    -0.201 OA
ATOM     17  O2  <0> d          -2.713   1.789   3.365  0.00  0.00    -0.201 OA
BRANCH  15  18
ATOM     18  C6  <0> d          -4.309  -0.171   3.770  0.00  0.00     0.080 A 
ATOM     19  C11 <0> d          -4.603  -1.308   4.502  0.00  0.00     0.035 A 
ATOM     20  C10 <0> d          -5.904  -1.749   4.592  0.00  0.00    -0.021 A 
ATOM     21  C9  <0> d          -6.931  -1.071   3.947  0.00  0.00     0.041 A 
ATOM     22  C12 <0> d          -6.546  -2.922   5.297  0.00  0.00     0.144 A 
ATOM     23  C8  <0> d          -6.627   0.070   3.208  0.00  0.00     0.031 A 
ATOM     24  N2  <0> d          -8.151  -1.708   4.182  0.00  0.00    -0.326 N 
ATOM     25  C7  <0> d          -5.323   0.512   3.123  0.00  0.00     0.027 A 
ATOM     26  C13 <0> d          -8.016  -2.796   4.959  0.00  0.00     0.226 A 
ATOM     27  H17 <0> d          -8.999  -1.400   3.824  0.00  0.00     0.169 HD
ATOM     28  O3  <0> d          -8.905  -3.537   5.322  0.00  0.00    -0.273 OA
ENDBRANCH  15  18
ENDBRANCH   1  15
TORSDOF 6
