REMARK  6 active torsions:
REMARK  status: ('A' for Active; 'I' for Inactive)
REMARK    1  A    between atoms: C5_5  and  C8_11 
REMARK    2  A    between atoms: C7_7  and  N1_8 
REMARK    3  A    between atoms: C8_11  and  C9_13 
REMARK    4  A    between atoms: C9_13  and  N3_24 
REMARK    5  A    between atoms: C10_14  and  N2_15 
REMARK    6  A    between atoms: N2_15  and  C11_16 
ROOT
ATOM      1  C9  <0> d           2.033   3.763   0.050  0.00  0.00     0.124 C 
ATOM      2  C10 <0> d           2.947   3.850  -0.999  0.00  0.00     0.113 C 
ATOM      3  S1  <0> d           2.859   2.713  -2.341  0.00  0.00    -0.030 SA
ENDROOT
BRANCH   1   4
ATOM      4  C8  <0> d           2.024   4.746   1.060  0.00  0.00     0.212 C 
ATOM      5  O3  <0> d           1.680   5.886   0.798  0.00  0.00    -0.285 OA
BRANCH   4   6
ATOM      6  C5  <0> d           2.432   4.394   2.438  0.00  0.00     0.019 A 
ATOM      7  C4  <0> d           2.886   3.106   2.728  0.00  0.00     0.016 A 
ATOM      8  C3  <0> d           3.270   2.786   4.013  0.00  0.00     0.010 A 
ATOM      9  C2  <0> d           3.195   3.735   5.017  0.00  0.00    -0.029 A 
ATOM     10  C1  <0> d           3.611   3.377   6.421  0.00  0.00     0.050 C 
ATOM     11  C7  <0> d           2.740   5.012   4.738  0.00  0.00     0.109 A 
ATOM     12  C6  <0> d           2.358   5.346   3.455  0.00  0.00     0.052 A 
BRANCH  11  13
ATOM     13  N1  <0> d           2.663   6.021   5.819  0.00  0.00    -0.115 N 
ATOM     14  O1  <0> d           2.390   7.178   5.553  0.00  0.00    -0.532 OA
ATOM     15  O2  <0> d           2.872   5.694   6.973  0.00  0.00    -0.532 OA
ENDBRANCH  11  13
ENDBRANCH   4   6
ENDBRANCH   1   4
BRANCH   1  16
ATOM     16  N3  <0> d           1.140   2.717   0.099  0.00  0.00    -0.327 N 
ATOM     17  C21 <0> d          -0.158   2.969  -0.004  0.00  0.00     0.097 A 
ATOM     18  C20 <0> d          -1.080   1.944   0.042  0.00  0.00     0.018 A 
ATOM     19  C19 <0> d          -0.635   0.638   0.191  0.00  0.00     0.003 A 
ATOM     20  C18 <0> d           0.729   0.410   0.301  0.00  0.00     0.018 A 
ATOM     21  C17 <0> d           1.597   1.481   0.248  0.00  0.00     0.097 A 
ENDBRANCH   1  16
BRANCH   2  22
ATOM     22  N2  <0> d           3.914   4.820  -0.986  0.00  0.00    -0.346 N 
ATOM     23  H7  <0> d           4.022   5.387  -0.206  0.00  0.00     0.167 HD
BRANCH  22  24
ATOM     24  C11 <0> d           4.745   4.994  -2.097  0.00  0.00     0.072 A 
ATOM     25  C16 <0> d           6.119   5.131  -1.926  0.00  0.00     0.142 A 
ATOM     26  C15 <0> d           6.937   5.303  -3.027  0.00  0.00     0.044 A 
ATOM     27  F1  <0> d           6.652   5.097  -0.685  0.00  0.00    -0.204 F 
ATOM     28  C14 <0> d           6.391   5.337  -4.297  0.00  0.00     0.003 A 
ATOM     29  C13 <0> d           5.025   5.201  -4.470  0.00  0.00     0.002 A 
ATOM     30  C12 <0> d           4.202   5.025  -3.375  0.00  0.00     0.033 A 
ENDBRANCH  22  24
ENDBRANCH   2  22
TORSDOF 6
