REMARK  4 active torsions:
REMARK  status: ('A' for Active; 'I' for Inactive)
REMARK    1  A    between atoms: C3_4  and  C6_9 
REMARK    2  A    between atoms: C4_5  and  O1_7 
REMARK       I    between atoms: C6_9  and  N3_11 
REMARK    3  A    between atoms: C9_14  and  C12_17 
REMARK       I    between atoms: C12_17  and  N4_19 
REMARK    4  A    between atoms: N4_19  and  C13_20 
ROOT
ATOM      1  C6  <0> d           0.039  -3.291  -1.527  0.00  0.00     0.259 C 
ATOM      2  O2  <0> d          -0.071  -2.307  -0.822  0.00  0.00    -0.267 OA
ATOM      3  N3  <0> d           0.133  -3.155  -2.865  0.00  0.00    -0.348 N 
ATOM      4  C7  <0> d           0.230  -1.822  -3.476  0.00  0.00     0.127 C 
ATOM      5  C8  <0> d          -0.865  -1.686  -4.539  0.00  0.00     0.034 C 
ATOM      6  C9  <0> d          -0.751  -2.844  -5.533  0.00  0.00     0.081 C 
ATOM      7  C10 <0> d          -0.953  -4.171  -4.799  0.00  0.00     0.034 C 
ATOM      8  C11 <0> d           0.146  -4.335  -3.739  0.00  0.00     0.127 C 
ENDROOT
BRANCH   1   9
ATOM      9  C3  <0> d           0.071  -4.632  -0.920  0.00  0.00     0.103 A 
ATOM     10  C2  <0> d           0.877  -5.687  -1.302  0.00  0.00     0.133 A 
ATOM     11  N1  <0> d           0.595  -6.723  -0.496  0.00  0.00    -0.282 N 
ATOM     12  C1  <0> d           1.223  -8.045  -0.554  0.00  0.00     0.179 C 
ATOM     13  N2  <0> d          -0.401  -6.330   0.404  0.00  0.00    -0.147 NA
ATOM     14  C4  <0> d          -0.719  -5.083   0.166  0.00  0.00     0.200 A 
BRANCH  14  15
ATOM     15  O1  <0> d          -1.646  -4.353   0.839  0.00  0.00    -0.337 OA
ATOM     16  C5  <0> d          -2.334  -5.004   1.908  0.00  0.00     0.211 C 
ENDBRANCH  14  15
ENDBRANCH   1   9
BRANCH   6  17
ATOM     17  C12 <0> d          -1.806  -2.695  -6.599  0.00  0.00     0.222 C 
ATOM     18  O3  <0> d          -2.572  -1.755  -6.567  0.00  0.00    -0.273 OA
ATOM     19  N4  <0> d          -1.897  -3.605  -7.589  0.00  0.00    -0.348 N 
ATOM     20  H18 <0> d          -1.284  -4.356  -7.615  0.00  0.00     0.163 HD
BRANCH  19  21
ATOM     21  C13 <0> d          -2.922  -3.460  -8.626  0.00  0.00     0.166 C 
ATOM     22  C16 <0> d          -4.215  -4.061  -8.126  0.00  0.00     0.208 C 
ATOM     23  S1  <0> d          -4.950  -4.755  -9.463  0.00  0.00    -0.090 SA
ATOM     24  O4  <0> d          -4.636  -4.045  -6.988  0.00  0.00    -0.283 OA
ATOM     25  C15 <0> d          -3.678  -4.490 -10.757  0.00  0.00     0.085 C 
ATOM     26  C14 <0> d          -2.434  -4.139  -9.907  0.00  0.00     0.044 C 
ENDBRANCH  19  21
ENDBRANCH   6  17
TORSDOF 4
