REMARK  3 active torsions:
REMARK  status: ('A' for Active; 'I' for Inactive)
REMARK    1  A    between atoms: C7_7  and  N1_8 
REMARK       I    between atoms: N1_8  and  C8_9 
REMARK    2  A    between atoms: C8_9  and  C9_11 
REMARK    3  A    between atoms: N3_13  and  C13_18 
ROOT
ATOM      1  C9  <0> d          -3.916   5.153  -0.602  0.00  0.00     0.122 C 
ATOM      2  N2  <0> d          -2.997   5.801   0.044  0.00  0.00    -0.168 NA
ATOM      3  N3  <0> d          -2.982   7.200   0.071  0.00  0.00    -0.232 N 
ATOM      4  C10 <0> d          -4.098   7.898  -0.218  0.00  0.00     0.240 C 
ATOM      5  O2  <0> d          -4.083   9.110  -0.184  0.00  0.00    -0.272 OA
ATOM      6  C11 <0> d          -5.364   7.166  -0.585  0.00  0.00     0.111 C 
ATOM      7  C12 <0> d          -5.005   5.885  -1.339  0.00  0.00     0.076 C 
ENDROOT
BRANCH   1   8
ATOM      8  C8  <0> d          -3.896   3.686  -0.611  0.00  0.00     0.268 C 
ATOM      9  N1  <0> d          -2.924   3.021   0.046  0.00  0.00    -0.351 N 
ATOM     10  H15 <0> d          -2.146   3.579   0.588  0.00  0.00     0.163 HD
ATOM     11  O1  <0> d          -4.756   3.069  -1.210  0.00  0.00    -0.266 OA
BRANCH   9  12
ATOM     12  C7  <0> d          -2.904   1.556   0.038  0.00  0.00     0.088 C 
ATOM     13  C2  <0> d          -2.164   1.050   1.278  0.00  0.00     0.004 C 
ATOM     14  C1  <0> d          -2.880   1.543   2.537  0.00  0.00     0.012 C 
ATOM     15  C3  <0> d          -0.729   1.579   1.267  0.00  0.00     0.006 C 
ATOM     16  C4  <0> d          -0.013   1.086   0.008  0.00  0.00     0.001 C 
ATOM     17  C5  <0> d          -0.753   1.593  -1.232  0.00  0.00     0.002 C 
ATOM     18  C6  <0> d          -2.188   1.063  -1.221  0.00  0.00     0.025 C 
ENDBRANCH   9  12
ENDBRANCH   1   8
BRANCH   3  19
ATOM     19  C13 <0> d          -1.749   7.910   0.420  0.00  0.00     0.128 C 
ATOM     20  C16 <0> d          -1.310   7.505   1.848  0.00  0.00     0.167 C 
ATOM     21  S1  <0> d           0.523   7.614   1.753  0.00  0.00     0.146 S 
ATOM     22  C15 <0> d           0.711   8.053  -0.026  0.00  0.00     0.142 C 
ATOM     23  O3  <0> d           1.075   6.322   1.972  0.00  0.00    -0.228 OA
ATOM     24  O4  <0> d           0.963   8.706   2.548  0.00  0.00    -0.228 OA
ATOM     25  C14 <0> d          -0.648   7.547  -0.589  0.00  0.00     0.043 C 
ENDBRANCH   3  19
TORSDOF 3
