REMARK  4 active torsions:
REMARK  status: ('A' for Active; 'I' for Inactive)
REMARK    1  A    between atoms: C4_4  and  N2_10 
REMARK    2  A    between atoms: N2_10  and  C9_11 
REMARK    3  A    between atoms: C9_11  and  C11_13 
REMARK    4  A    between atoms: C11_13  and  N3_14 
ROOT
ATOM      1  N2  <0> d          -2.802  -2.743   0.111  0.00  0.00     0.094 N 
ATOM      2  H18 <0> d          -2.846  -3.687   0.467  0.00  0.00     0.316 HD
ENDROOT
BRANCH   1   3
ATOM      3  C4  <0> d          -1.420  -2.247   0.103  0.00  0.00     0.228 C 
ATOM      4  C3  <0> d          -1.421  -0.725   0.274  0.00  0.00     0.068 C 
ATOM      5  C2  <0> d           0.023  -0.224   0.343  0.00  0.00     0.185 C 
ATOM      6  C1  <0> d           0.027   1.297   0.514  0.00  0.00     0.040 C 
ATOM      7  N1  <0> d           0.706  -0.845   1.484  0.00  0.00    -0.071 N 
ATOM      8  C6  <0> d           0.775  -2.299   1.292  0.00  0.00     0.241 C 
ATOM      9  C7  <0> d           2.067  -0.302   1.593  0.00  0.00     0.270 C 
ATOM     10  H32 <0> d           0.197  -0.642   2.331  0.00  0.00     0.279 HD
ATOM     11  C5  <0> d          -0.640  -2.880   1.260  0.00  0.00     0.040 C 
ATOM     12  C8  <0> d          -1.349  -2.575   2.581  0.00  0.00     0.014 C 
ENDBRANCH   1   3
BRANCH   1  13
ATOM     13  C9  <0> d          -3.400  -2.657  -1.228  0.00  0.00     0.245 C 
ATOM     14  C10 <0> d          -3.027  -3.903  -2.034  0.00  0.00     0.044 C 
BRANCH  13  15
ATOM     15  C11 <0> d          -4.922  -2.568  -1.102  0.00  0.00     0.307 C 
BRANCH  15  16
ATOM     16  N3  <0> d          -5.277  -1.428  -0.247  0.00  0.00     0.094 N 
ATOM     17  C15 <0> d          -5.120  -0.158  -0.971  0.00  0.00     0.298 C 
ATOM     18  C14 <0> d          -5.442   1.004  -0.027  0.00  0.00     0.198 C 
ATOM     19  O1  <0> d          -6.763   0.837   0.493  0.00  0.00    -0.388 OA
ATOM     20  C13 <0> d          -6.952  -0.389   1.204  0.00  0.00     0.198 C 
ATOM     21  C12 <0> d          -6.645  -1.565   0.273  0.00  0.00     0.298 C 
ENDBRANCH  15  16
ENDBRANCH  13  15
ENDBRANCH   1  13
TORSDOF 4
