REMARK  2 active torsions:
REMARK  status: ('A' for Active; 'I' for Inactive)
REMARK    1  A    between atoms: N1_9  and  S1_10 
REMARK    2  A    between atoms: S1_10  and  C9_13 
ROOT
ATOM      1  S1  <0> d           5.086  -0.369  -0.050  0.00  0.00     0.265 S 
ATOM      2  O1  <0> d           5.830  -1.440  -0.613  0.00  0.00    -0.200 OA
ATOM      3  O2  <0> d           5.108   0.944  -0.595  0.00  0.00    -0.200 OA
ENDROOT
BRANCH   1   4
ATOM      4  N1  <0> d           3.501  -0.849  -0.036  0.00  0.00    -0.271 N 
ATOM      5  C4  <0> d           2.405   0.014  -0.021  0.00  0.00     0.051 A 
ATOM      6  C3  <0> d           2.377   1.411  -0.013  0.00  0.00     0.031 A 
ATOM      7  C5  <0> d           1.206  -0.682  -0.013  0.00  0.00    -0.029 A 
ATOM      8  C2  <0> d           1.174   2.082   0.002  0.00  0.00     0.002 A 
ATOM      9  C1  <0> d          -0.017   1.378   0.010  0.00  0.00     0.001 A 
ATOM     10  C6  <0> d           0.002  -0.004   0.002  0.00  0.00     0.009 A 
ATOM     11  C7  <0> d           1.510  -2.163  -0.023  0.00  0.00     0.062 A 
ATOM     12  C8  <0> d           3.046  -2.241  -0.038  0.00  0.00     0.146 A 
ENDBRANCH   1   4
BRANCH   1  13
ATOM     13  C9  <0> d           5.602  -0.226   1.629  0.00  0.00     0.081 A 
ATOM     14  C14 <0> d           6.153  -1.311   2.288  0.00  0.00     0.046 A 
ATOM     15  C13 <0> d           6.555  -1.179   3.595  0.00  0.00     0.038 A 
ATOM     16  C12 <0> d           6.421   0.021   4.310  0.00  0.00     0.052 A 
ATOM     17  S2  <0> d           7.292  -2.277   4.781  0.00  0.00    -0.027 SA
ATOM     18  C11 <0> d           5.853   1.103   3.617  0.00  0.00     0.032 A 
ATOM     19  N2  <0> d           6.867  -0.006   5.621  0.00  0.00    -0.316 N 
ATOM     20  C10 <0> d           5.456   0.972   2.308  0.00  0.00     0.027 A 
ATOM     21  C15 <0> d           7.392  -1.130   6.146  0.00  0.00     0.289 A 
ATOM     22  H1  <0> d           6.801   0.794   6.166  0.00  0.00     0.170 HD
ATOM     23  O3  <0> d           7.825  -1.317   7.268  0.00  0.00    -0.260 OA
ENDBRANCH   1  13
TORSDOF 2
