REMARK  4 active torsions:
REMARK  status: ('A' for Active; 'I' for Inactive)
REMARK    1  A    between atoms: C2_2  and  C13_21 
REMARK    2  A    between atoms: N1_5  and  C5_9 
REMARK    3  A    between atoms: C5_9  and  C6_10 
REMARK    4  A    between atoms: C6_10  and  N3_11 
ROOT
ATOM      1  C1  <0> d          -0.019   1.526   0.010  0.00  0.00     0.054 C 
ATOM      2  C2  <0> d           0.002  -0.004   0.002  0.00  0.00     0.140 A 
ATOM      3  C3  <0> d          -1.403  -0.557   0.139  0.00  0.00     0.260 A 
ATOM      4  O1  <0> d          -2.332  -0.392  -0.621  0.00  0.00    -0.270 OA
ATOM      5  N1  <0> d          -1.403  -1.272   1.282  0.00  0.00    -0.266 N 
ATOM      6  C4  <0> d          -0.206  -1.247   1.879  0.00  0.00     0.326 A 
ATOM      7  O2  <0> d           0.040  -1.819   2.924  0.00  0.00    -0.247 OA
ATOM      8  N2  <0> d           0.695  -0.520   1.195  0.00  0.00    -0.321 N 
ATOM      9  H4  <0> d           1.621  -0.365   1.440  0.00  0.00     0.165 HD
ENDROOT
BRANCH   5  10
ATOM     10  C5  <0> d          -2.569  -1.986   1.805  0.00  0.00     0.159 C 
BRANCH  10  11
ATOM     11  C6  <0> d          -2.585  -3.413   1.252  0.00  0.00     0.176 C 
BRANCH  11  12
ATOM     12  N3  <0> d          -3.752  -4.127   1.775  0.00  0.00    -0.216 N 
ATOM     13  N5  <0> d          -3.800  -4.882   2.955  0.00  0.00    -0.149 NA
ATOM     14  C12 <0> d          -5.016  -5.359   3.079  0.00  0.00     0.158 A 
ATOM     15  N4  <0> d          -5.764  -4.938   1.996  0.00  0.00    -0.256 N 
ATOM     16  C11 <0> d          -5.619  -6.175   4.071  0.00  0.00     0.053 A 
ATOM     17  C7  <0> d          -4.973  -4.184   1.206  0.00  0.00     0.350 A 
ATOM     18  C8  <0> d          -7.082  -5.310   1.885  0.00  0.00     0.103 A 
ATOM     19  O3  <0> d          -5.304  -3.648   0.162  0.00  0.00    -0.244 OA
ATOM     20  C9  <0> d          -7.658  -6.083   2.822  0.00  0.00     0.018 A 
ATOM     21  C10 <0> d          -6.920  -6.528   3.938  0.00  0.00     0.005 A 
ENDBRANCH  11  12
ENDBRANCH  10  11
ENDBRANCH   5  10
BRANCH   2  22
ATOM     22  C13 <0> d           0.657  -0.517  -1.255  0.00  0.00    -0.021 A 
ATOM     23  C18 <0> d           2.023  -0.727  -1.285  0.00  0.00     0.013 A 
ATOM     24  C17 <0> d           2.624  -1.202  -2.436  0.00  0.00     0.043 A 
ATOM     25  C16 <0> d           1.859  -1.457  -3.561  0.00  0.00     0.116 A 
ATOM     26  C15 <0> d           0.491  -1.242  -3.531  0.00  0.00     0.043 A 
ATOM     27  F1  <0> d           2.446  -1.917  -4.688  0.00  0.00    -0.206 F 
ATOM     28  C14 <0> d          -0.108  -0.772  -2.378  0.00  0.00     0.013 A 
ENDBRANCH   2  22
TORSDOF 4
