REMARK  5 active torsions:
REMARK  status: ('A' for Active; 'I' for Inactive)
REMARK    1  A    between atoms: N1_2  and  C3_4 
REMARK    2  A    between atoms: C6_7  and  N2_10 
REMARK    3  A    between atoms: N2_10  and  C9_11 
REMARK       I    between atoms: N3_13  and  C10_14 
REMARK    4  A    between atoms: C10_14  and  C11_16 
REMARK    5  A    between atoms: C14_19  and  O2_23 
ROOT
ATOM      1  C9  <0> d           2.403  -2.741  -0.136  0.00  0.00     0.179 C 
ATOM      2  S1  <0> d           3.877  -1.870  -0.146  0.00  0.00    -0.040 SA
ATOM      3  N3  <0> d           2.414  -4.084  -0.244  0.00  0.00    -0.299 N 
ATOM      4  C10 <0> d           3.585  -4.742  -0.360  0.00  0.00     0.257 C 
ATOM      5  O1  <0> d           4.631  -4.123  -0.367  0.00  0.00    -0.267 OA
ATOM      6  H12 <0> d           1.579  -4.578  -0.239  0.00  0.00     0.171 HD
ENDROOT
BRANCH   1   7
ATOM      7  N2  <0> d           1.233  -2.083  -0.020  0.00  0.00    -0.333 N 
ATOM      8  H11 <0> d           0.404  -2.580   0.066  0.00  0.00     0.168 HD
BRANCH   7   9
ATOM      9  C6  <0> d           1.213  -0.682  -0.024  0.00  0.00     0.034 A 
ATOM     10  C5  <0> d           2.012   0.021  -0.915  0.00  0.00     0.032 A 
ATOM     11  C4  <0> d           1.992   1.402  -0.920  0.00  0.00     0.031 A 
ATOM     12  C3  <0> d           1.173   2.087  -0.032  0.00  0.00     0.029 A 
ATOM     13  C8  <0> d           0.373   1.384   0.859  0.00  0.00     0.031 A 
ATOM     14  C7  <0> d           0.393   0.003   0.863  0.00  0.00     0.032 A 
BRANCH  12  15
ATOM     15  N1  <0> d           1.153   3.486  -0.036  0.00  0.00    -0.390 N 
ATOM     16  C1  <0> d           1.996   4.228  -0.977  0.00  0.00     0.149 C 
ATOM     17  C2  <0> d           0.289   4.209   0.900  0.00  0.00     0.149 C 
ENDBRANCH  12  15
ENDBRANCH   7   9
ENDBRANCH   1   7
BRANCH   4  18
ATOM     18  C11 <0> d           3.596  -6.212  -0.479  0.00  0.00     0.033 A 
ATOM     19  C16 <0> d           4.809  -6.896  -0.599  0.00  0.00     0.039 A 
ATOM     20  C15 <0> d           4.815  -8.269  -0.710  0.00  0.00     0.045 A 
ATOM     21  C14 <0> d           3.616  -8.974  -0.703  0.00  0.00     0.085 A 
ATOM     22 Br1  <0> d           6.455  -9.196  -0.873  0.00  0.00    -0.048 Br
ATOM     23  C13 <0> d           2.408  -8.297  -0.583  0.00  0.00     0.039 A 
ATOM     24  C12 <0> d           2.394  -6.926  -0.466  0.00  0.00     0.020 A 
BRANCH  21  25
ATOM     25  O2  <0> d           3.626 -10.327  -0.812  0.00  0.00    -0.355 OA
ATOM     26  C17 <0> d           2.360 -10.988  -0.797  0.00  0.00     0.210 C 
ENDBRANCH  21  25
ENDBRANCH   4  18
TORSDOF 5
