REMARK  3 active torsions:
REMARK  status: ('A' for Active; 'I' for Inactive)
REMARK    1  A    between atoms: C2_2  and  C3_3 
REMARK    2  A    between atoms: C2_2  and  N2_9 
REMARK    3  A    between atoms: C8_10  and  N4_15 
ROOT
ATOM      1  N2  <0> d           0.711  -0.489   1.189  0.00  0.00    -0.243 N 
ATOM      2  C8  <0> d           1.833  -1.254   1.194  0.00  0.00     0.137 A 
ATOM      3  C9  <0> d           2.166  -1.484   2.494  0.00  0.00     0.075 A 
ATOM      4  C10 <0> d           1.220  -0.841   3.298  0.00  0.00     0.162 A 
ATOM      5  N3  <0> d           0.354  -0.242   2.521  0.00  0.00    -0.181 NA
ATOM      6 Br1  <0> d           3.645  -2.492   3.104  0.00  0.00    -0.045 Br
ENDROOT
BRANCH   1   7
ATOM      7  C2  <0> d           0.002  -0.004   0.002  0.00  0.00     0.160 C 
ATOM      8  C1  <0> d          -0.019   1.526   0.010  0.00  0.00     0.041 C 
BRANCH   7   9
ATOM      9  C3  <0> d          -1.412  -0.526   0.013  0.00  0.00     0.058 A 
ATOM     10  N1  <0> d          -1.704  -1.629  -0.648  0.00  0.00    -0.263 NA
ATOM     11  C7  <0> d          -2.926  -2.125  -0.662  0.00  0.00     0.117 A 
ATOM     12  C6  <0> d          -3.954  -1.493   0.012  0.00  0.00     0.019 A 
ATOM     13  C5  <0> d          -3.685  -0.328   0.714  0.00  0.00     0.003 A 
ATOM     14  C4  <0> d          -2.388   0.161   0.710  0.00  0.00     0.029 A 
ENDBRANCH   7   9
ENDBRANCH   1   7
BRANCH   2  15
ATOM     15  N4  <0> d           2.518  -1.719   0.073  0.00  0.00    -0.383 N 
ATOM     16  H10 <0> d           2.199  -1.500  -0.816  0.00  0.00     0.157 HD
ATOM     17  H11 <0> d           3.315  -2.261   0.183  0.00  0.00     0.157 HD
ENDBRANCH   2  15
TORSDOF 3
