REMARK  7 active torsions:
REMARK  status: ('A' for Active; 'I' for Inactive)
REMARK    1  A    between atoms: C2_2  and  N1_3 
REMARK    2  A    between atoms: N1_3  and  C3_4 
REMARK    3  A    between atoms: N1_3  and  C5_6 
REMARK    4  A    between atoms: C5_6  and  C7_8 
REMARK    5  A    between atoms: C7_8  and  N2_9 
REMARK       I    between atoms: N2_9  and  C8_10 
REMARK    6  A    between atoms: C8_10  and  C9_12 
REMARK       I    between atoms: C9_12  and  N3_14 
REMARK    7  A    between atoms: N3_14  and  C10_15 
ROOT
ATOM      1  N2  <0> d          -3.405  -2.147  -0.912  0.00  0.00    -0.351 N 
ATOM      2  C8  <0> d          -4.678  -2.393  -1.279  0.00  0.00     0.309 C 
ATOM      3  O1  <0> d          -5.429  -2.968  -0.518  0.00  0.00    -0.262 OA
ATOM      4  H17 <0> d          -2.826  -1.624  -1.488  0.00  0.00     0.162 HD
ENDROOT
BRANCH   2   5
ATOM      5  C9  <0> d          -5.166  -1.956  -2.621  0.00  0.00     0.313 C 
ATOM      6  O2  <0> d          -4.393  -1.463  -3.417  0.00  0.00    -0.262 OA
ATOM      7  N3  <0> d          -6.464  -2.108  -2.949  0.00  0.00    -0.319 N 
ATOM      8  H18 <0> d          -7.096  -2.436  -2.289  0.00  0.00     0.169 HD
BRANCH   7   9
ATOM      9  C10 <0> d          -6.901  -1.795  -4.239  0.00  0.00     0.041 A 
ATOM     10  C15 <0> d          -8.018  -2.428  -4.768  0.00  0.00    -0.034 A 
ATOM     11  C14 <0> d          -8.451  -2.112  -6.041  0.00  0.00     0.028 A 
ATOM     12  C16 <0> d          -8.761  -3.454  -3.952  0.00  0.00     0.050 C 
ATOM     13  C13 <0> d          -7.766  -1.174  -6.793  0.00  0.00     0.011 A 
ATOM     14  C12 <0> d          -6.649  -0.546  -6.270  0.00  0.00     0.021 A 
ATOM     15 Br1  <0> d          -8.357  -0.750  -8.539  0.00  0.00    -0.051 Br
ATOM     16  C11 <0> d          -6.215  -0.854  -4.996  0.00  0.00     0.031 A 
ENDBRANCH   7   9
ENDBRANCH   2   5
BRANCH   1  17
ATOM     17  C7  <0> d          -2.894  -2.671   0.358  0.00  0.00     0.155 C 
BRANCH  17  18
ATOM     18  C5  <0> d          -1.477  -2.146   0.593  0.00  0.00     0.201 C 
ATOM     19  C6  <0> d          -0.978  -2.619   1.960  0.00  0.00     0.042 C 
BRANCH  18  20
ATOM     20  N1  <0> d          -1.487  -0.677   0.557  0.00  0.00    -0.066 N 
ATOM     21  H25 <0> d          -1.875  -0.365  -0.320  0.00  0.00     0.280 HD
BRANCH  20  22
ATOM     22  C2  <0> d          -2.305  -0.166   1.665  0.00  0.00     0.231 C 
ATOM     23  C1  <0> d          -2.418   1.356   1.555  0.00  0.00     0.034 C 
ENDBRANCH  20  22
BRANCH  20  24
ATOM     24  C3  <0> d          -0.113  -0.175   0.690  0.00  0.00     0.231 C 
ATOM     25  C4  <0> d           0.707  -0.603  -0.529  0.00  0.00     0.034 C 
ENDBRANCH  20  24
ENDBRANCH  18  20
ENDBRANCH  17  18
ENDBRANCH   1  17
TORSDOF 7
