REMARK  5 active torsions:
REMARK  status: ('A' for Active; 'I' for Inactive)
REMARK    1  A    between atoms: C4_4  and  N5_12 
REMARK    2  A    between atoms: N5_12  and  C8_13 
REMARK    3  A    between atoms: C8_13  and  C9_14 
REMARK    4  A    between atoms: C9_14  and  C10_15 
REMARK    5  A    between atoms: C9_14  and  N6_23 
ROOT
ATOM      1  C9  <0> d           0.129   2.376  -5.077  0.00  0.00     0.243 C 
ENDROOT
BRANCH   1   2
ATOM      2  C8  <0> d           0.309   0.859  -5.158  0.00  0.00     0.159 C 
BRANCH   2   3
ATOM      3  N5  <0> d          -0.903   0.253  -5.714  0.00  0.00    -0.372 N 
ATOM      4  H9  <0> d          -1.625   0.817  -6.035  0.00  0.00     0.161 HD
BRANCH   3   5
ATOM      5  C4  <0> d          -1.019  -1.122  -5.782  0.00  0.00     0.141 A 
ATOM      6  C3  <0> d          -2.188  -1.723  -6.289  0.00  0.00     0.083 A 
ATOM      7  C2  <0> d          -3.410  -1.240  -6.803  0.00  0.00     0.069 A 
ATOM      8  C6  <0> d          -2.248  -3.130  -6.334  0.00  0.00     0.163 A 
ATOM      9  C1  <0> d          -3.794   0.210  -6.947  0.00  0.00     0.073 C 
ATOM     10  N4  <0> d          -4.153  -2.260  -7.128  0.00  0.00    -0.175 NA
ATOM     11  N3  <0> d          -3.466  -3.449  -6.857  0.00  0.00    -0.256 N 
ATOM     12  C7  <0> d          -3.970  -4.805  -7.091  0.00  0.00     0.182 C 
ATOM     13  N2  <0> d          -1.204  -3.832  -5.898  0.00  0.00    -0.222 NA
ATOM     14  C5  <0> d          -0.134  -3.225  -5.433  0.00  0.00     0.237 A 
ATOM     15  N1  <0> d          -0.031  -1.909  -5.371  0.00  0.00    -0.224 NA
ENDBRANCH   3   5
ENDBRANCH   2   3
ENDBRANCH   1   2
BRANCH   1  16
ATOM     16  C10 <0> d          -0.077   2.933  -6.463  0.00  0.00     0.034 A 
ATOM     17  C15 <0> d          -1.338   3.332  -6.867  0.00  0.00     0.045 A 
ATOM     18  C14 <0> d          -1.526   3.848  -8.137  0.00  0.00     0.024 A 
ATOM     19 Cl1  <0> d          -2.683   3.193  -5.779  0.00  0.00    -0.084 Cl
ATOM     20  C13 <0> d          -0.456   3.954  -9.006  0.00  0.00     0.005 A 
ATOM     21  C12 <0> d           0.804   3.550  -8.605  0.00  0.00     0.043 A 
ATOM     22  C11 <0> d           0.994   3.039  -7.333  0.00  0.00     0.126 A 
ATOM     23  F1  <0> d           2.225   2.644  -6.940  0.00  0.00    -0.205 F 
ENDBRANCH   1  16
BRANCH   1  24
ATOM     24  N6  <0> d           1.327   2.980  -4.480  0.00  0.00    -0.061 N 
ATOM     25  C19 <0> d           1.216   4.450  -4.523  0.00  0.00     0.236 C 
ATOM     26  C18 <0> d           1.296   4.957  -3.068  0.00  0.00     0.029 C 
ATOM     27  C17 <0> d           2.016   3.797  -2.332  0.00  0.00     0.029 C 
ATOM     28  C16 <0> d           1.447   2.558  -3.068  0.00  0.00     0.236 C 
ATOM     29  H23 <0> d           2.147   2.687  -4.991  0.00  0.00     0.280 HD
ENDBRANCH   1  24
TORSDOF 5
