REMARK  6 active torsions:
REMARK  status: ('A' for Active; 'I' for Inactive)
REMARK    1  A    between atoms: C3_3  and  C5_6 
REMARK    2  A    between atoms: N1_10  and  C9_11 
REMARK    3  A    between atoms: C9_11  and  C10_12 
REMARK    4  A    between atoms: C10_12  and  C11_13 
REMARK       I    between atoms: C11_13  and  N2_15 
REMARK    5  A    between atoms: N2_15  and  C12_16 
REMARK    6  A    between atoms: C13_17  and  C16_21 
REMARK       I    between atoms: C16_21  and  N3_23 
ROOT
ATOM      1  C11 <0> d           0.539  -2.021   1.341  0.00  0.00     0.224 C 
ATOM      2  O1  <0> d           0.176  -2.627   0.354  0.00  0.00    -0.273 OA
ATOM      3  N2  <0> d           0.960  -2.696   2.429  0.00  0.00    -0.320 N 
ATOM      4  H15 <0> d           1.289  -2.146   3.323  0.00  0.00     0.169 HD
ENDROOT
BRANCH   1   5
ATOM      5  C10 <0> d           0.518  -0.514   1.349  0.00  0.00     0.131 C 
BRANCH   5   6
ATOM      6  C9  <0> d           0.002  -0.004   0.002  0.00  0.00     0.245 C 
BRANCH   6   7
ATOM      7  N1  <0> d          -0.018   1.465   0.010  0.00  0.00    -0.062 N 
ATOM      8  C5  <0> d          -0.744   1.991  -1.165  0.00  0.00     0.228 C 
ATOM      9  C6  <0> d          -0.013   3.309  -1.524  0.00  0.00     0.040 C 
ATOM     10  C7  <0> d           1.464   2.939  -1.229  0.00  0.00     0.030 C 
ATOM     11  C8  <0> d           1.351   2.012  -0.000  0.00  0.00     0.236 C 
ATOM     12  H20 <0> d          -0.531   1.771   0.934  0.00  0.00     0.280 HD
BRANCH   8  13
ATOM     13  C3  <0> d          -2.183   2.268  -0.812  0.00  0.00     0.013 A 
ATOM     14  C2  <0> d          -3.300   2.046  -1.547  0.00  0.00     0.017 A 
ATOM     15  C1  <0> d          -4.530   2.382  -1.014  0.00  0.00     0.008 A 
ATOM     16  C4  <0> d          -4.583   2.925   0.227  0.00  0.00     0.050 A 
ATOM     17  S1  <0> d          -2.858   2.968   0.685  0.00  0.00    -0.104 SA
ENDBRANCH   8  13
ENDBRANCH   6   7
ENDBRANCH   5   6
ENDBRANCH   1   5
BRANCH   3  18
ATOM     18  C12 <0> d           0.979  -4.082   2.421  0.00  0.00     0.092 A 
ATOM     19  S2  <0> d           0.507  -5.157   1.149  0.00  0.00    -0.083 SA
ATOM     20  C15 <0> d           0.838  -6.718   1.940  0.00  0.00     0.053 A 
ATOM     21  C14 <0> d           1.291  -6.359   3.155  0.00  0.00     0.027 A 
ATOM     22  C13 <0> d           1.375  -4.946   3.436  0.00  0.00     0.066 A 
BRANCH  22  23
ATOM     23  C16 <0> d           1.854  -4.446   4.728  0.00  0.00     0.252 C 
ATOM     24  O2  <0> d           1.912  -3.248   4.933  0.00  0.00    -0.268 OA
ATOM     25  N3  <0> d           2.230  -5.313   5.689  0.00  0.00    -0.366 N 
ATOM     26  H18 <0> d           2.590  -4.938   6.658  0.00  0.00     0.159 HD
ATOM     27  H19 <0> d           2.178  -6.396   5.503  0.00  0.00     0.159 HD
ENDBRANCH  22  23
ENDBRANCH   3  18
TORSDOF 6
