REMARK  3 active torsions:
REMARK  status: ('A' for Active; 'I' for Inactive)
REMARK    1  A    between atoms: C3_3  and  C10_13 
REMARK    2  A    between atoms: C4_5  and  C5_7 
REMARK    3  A    between atoms: C14_17  and  N3_19 
ROOT
ATOM      1  C1  <0> d          -0.030   1.501  -0.105  0.00  0.00     0.059 C 
ATOM      2  C2  <0> d          -0.003  -0.005  -0.050  0.00  0.00     0.010 A 
ATOM      3  C3  <0> d          -1.035  -0.893   0.093  0.00  0.00     0.081 A 
ATOM      4  N1  <0> d          -0.712  -2.178   0.108  0.00  0.00    -0.244 NA
ATOM      5  C4  <0> d           0.531  -2.568  -0.008  0.00  0.00     0.082 A 
ATOM      6  S1  <0> d           1.383  -1.125  -0.161  0.00  0.00    -0.077 SA
ENDROOT
BRANCH   3   7
ATOM      7  C10 <0> d          -2.442  -0.441   0.225  0.00  0.00    -0.004 A 
ATOM      8  C15 <0> d          -3.286  -1.043   1.156  0.00  0.00     0.050 A 
ATOM      9  C14 <0> d          -4.592  -0.615   1.278  0.00  0.00     0.103 A 
ATOM     10  C13 <0> d          -5.067   0.403   0.471  0.00  0.00     0.036 A 
ATOM     11  C12 <0> d          -4.235   1.001  -0.459  0.00  0.00     0.003 A 
ATOM     12  C11 <0> d          -2.926   0.585  -0.585  0.00  0.00     0.014 A 
BRANCH   9  13
ATOM     13  N3  <0> d          -5.488  -1.249   2.271  0.00  0.00    -0.116 N 
ATOM     14  O1  <0> d          -6.634  -0.878   2.375  0.00  0.00    -0.532 OA
ATOM     15  O2  <0> d          -5.074  -2.139   2.977  0.00  0.00    -0.532 OA
ENDBRANCH   9  13
ENDBRANCH   3   7
BRANCH   5  16
ATOM     16  C5  <0> d           1.071  -3.975  -0.011  0.00  0.00     0.071 C 
ATOM     17  C9  <0> d           2.056  -4.147   1.147  0.00  0.00     0.243 C 
ATOM     18  N2  <0> d           2.586  -5.516   1.145  0.00  0.00    -0.074 N 
ATOM     19  C8  <0> d           3.342  -5.756  -0.091  0.00  0.00     0.232 C 
ATOM     20  H11 <0> d           1.821  -6.172   1.202  0.00  0.00     0.277 HD
ATOM     21  H18 <0> d           3.194  -5.642   1.940  0.00  0.00     0.277 HD
ATOM     22  C7  <0> d           2.405  -5.646  -1.296  0.00  0.00     0.028 C 
ATOM     23  C6  <0> d           1.794  -4.243  -1.334  0.00  0.00     0.015 C 
ENDBRANCH   5  16
TORSDOF 3
