REMARK  4 active torsions:
REMARK  status: ('A' for Active; 'I' for Inactive)
REMARK    1  A    between atoms: C7_9  and  C8_11 
REMARK    2  A    between atoms: C10_13  and  C17_24 
REMARK       I    between atoms: N4_15  and  C11_16 
REMARK    3  A    between atoms: C11_16  and  C12_18 
REMARK    4  A    between atoms: C12_18  and  N5_31 
ROOT
ATOM      1  C8  <0> d          -1.022   1.814  -6.101  0.00  0.00     0.188 A 
ATOM      2  C9  <0> d          -0.271   1.035  -7.199  0.00  0.00     0.097 A 
ATOM      3  C10 <0> d           0.673   0.139  -6.430  0.00  0.00     0.067 A 
ATOM      4  N3  <0> d           0.524   0.341  -5.167  0.00  0.00    -0.173 NA
ATOM      5  N4  <0> d          -0.437   1.300  -4.853  0.00  0.00    -0.224 N 
ATOM      6  C11 <0> d          -0.778   1.690  -3.608  0.00  0.00     0.266 C 
ATOM      7  O1  <0> d          -1.632   2.537  -3.451  0.00  0.00    -0.270 OA
ENDROOT
BRANCH   1   8
ATOM      8  C7  <0> d          -0.768   3.293  -6.236  0.00  0.00     0.130 A 
ATOM      9  N1  <0> d          -1.735   4.250  -6.266  0.00  0.00    -0.341 N 
ATOM     10  C5  <0> d          -1.102   5.470  -6.397  0.00  0.00     0.062 A 
ATOM     11  H1  <0> d          -2.722   4.098  -6.205  0.00  0.00     0.167 HD
ATOM     12  C4  <0> d           0.274   5.189  -6.450  0.00  0.00     0.085 A 
ATOM     13  C6  <0> d          -1.542   6.784  -6.481  0.00  0.00     0.032 A 
ATOM     14  C3  <0> d           1.185   6.239  -6.588  0.00  0.00     0.034 A 
ATOM     15  N2  <0> d           0.406   3.841  -6.347  0.00  0.00    -0.231 NA
ATOM     16  C2  <0> d           0.733   7.526  -6.668  0.00  0.00     0.002 A 
ATOM     17  C1  <0> d          -0.625   7.804  -6.616  0.00  0.00     0.002 A 
ENDBRANCH   1   8
BRANCH   6  18
ATOM     18  C12 <0> d          -0.099   1.073  -2.413  0.00  0.00     0.339 C 
BRANCH  18  19
ATOM     19  N5  <0> d          -0.747   1.577  -1.182  0.00  0.00    -0.059 N 
ATOM     20  C13 <0> d          -2.126   1.054  -1.087  0.00  0.00     0.261 C 
ATOM     21  C14 <0> d          -2.780   1.621   0.176  0.00  0.00     0.195 C 
ATOM     22  O2  <0> d          -1.995   1.262   1.316  0.00  0.00    -0.388 OA
ATOM     23  C15 <0> d          -0.644   1.729   1.256  0.00  0.00     0.195 C 
ATOM     24  C16 <0> d           0.031   1.163   0.004  0.00  0.00     0.261 C 
ATOM     25  H23 <0> d          -0.780   2.603  -1.218  0.00  0.00     0.280 HD
ENDBRANCH  18  19
ENDBRANCH   6  18
BRANCH   3  26
ATOM     26  C17 <0> d           1.618  -0.819  -7.033  0.00  0.00    -0.010 A 
ATOM     27  C22 <0> d           2.444  -1.597  -6.218  0.00  0.00     0.015 A 
ATOM     28  C21 <0> d           3.326  -2.491  -6.788  0.00  0.00     0.020 A 
ATOM     29  C20 <0> d           3.394  -2.618  -8.165  0.00  0.00     0.011 A 
ATOM     30  C19 <0> d           2.578  -1.849  -8.979  0.00  0.00     0.020 A 
ATOM     31 Br1  <0> d           4.607  -3.845  -8.939  0.00  0.00    -0.051 Br
ATOM     32  C18 <0> d           1.688  -0.956  -8.421  0.00  0.00     0.015 A 
ENDBRANCH   3  26
TORSDOF 4
