REMARK  4 active torsions:
REMARK  status: ('A' for Active; 'I' for Inactive)
REMARK    1  A    between atoms: C2_2  and  N1_3 
REMARK    2  A    between atoms: N1_3  and  C3_4 
REMARK       I    between atoms: N1_3  and  C15_23 
REMARK    3  A    between atoms: C4_6  and  C6_9 
REMARK    4  A    between atoms: C7_10  and  C12_18 
REMARK       I    between atoms: C12_18  and  N5_20 
ROOT
ATOM      1  C6  <0> d           5.324  -1.070  -3.167  0.00  0.00     0.177 A 
ATOM      2  C7  <0> d           4.824  -2.469  -3.466  0.00  0.00     0.061 A 
ATOM      3  C8  <0> d           5.646  -3.503  -3.190  0.00  0.00     0.024 A 
ATOM      4  N3  <0> d           6.887  -3.295  -2.660  0.00  0.00    -0.332 N 
ATOM      5  C9  <0> d           7.380  -2.082  -2.377  0.00  0.00     0.174 A 
ATOM      6  S2  <0> d           8.954  -1.962  -1.713  0.00  0.00    -0.041 SA
ATOM      7  N4  <0> d           6.677  -0.954  -2.596  0.00  0.00    -0.352 N 
ATOM      8  C10 <0> d           7.727  -4.463  -2.386  0.00  0.00     0.158 C 
ATOM      9  C11 <0> d           5.187  -4.910  -3.472  0.00  0.00     0.069 C 
ATOM     10  H8  <0> d           7.054  -0.086  -2.384  0.00  0.00     0.163 HD
ENDROOT
BRANCH   1  11
ATOM     11  C4  <0> d           4.358  -0.426  -2.207  0.00  0.00     0.071 A 
ATOM     12  N2  <0> d           3.092  -0.232  -2.529  0.00  0.00    -0.226 NA
ATOM     13  C3  <0> d           2.255   0.330  -1.685  0.00  0.00     0.175 A 
ATOM     14  S1  <0> d           3.218   0.644  -0.341  0.00  0.00    -0.062 SA
ATOM     15  C5  <0> d           4.750  -0.019  -0.975  0.00  0.00     0.083 A 
BRANCH  13  16
ATOM     16  N1  <0> d           0.904   0.605  -1.862  0.00  0.00    -0.297 N 
ATOM     17  C15 <0> d           0.285   0.233  -3.000  0.00  0.00     0.221 C 
ATOM     18  O2  <0> d           0.879  -0.427  -3.826  0.00  0.00    -0.273 OA
ATOM     19  C16 <0> d          -1.146   0.638  -3.246  0.00  0.00     0.117 C 
BRANCH  16  20
ATOM     20  C2  <0> d           0.153   1.298  -0.812  0.00  0.00     0.130 C 
ATOM     21  C1  <0> d           0.279   2.810  -1.010  0.00  0.00     0.027 C 
ENDBRANCH  16  20
ENDBRANCH  13  16
ENDBRANCH   1  11
BRANCH   2  22
ATOM     22  C12 <0> d           3.536  -2.683  -4.015  0.00  0.00     0.253 C 
ATOM     23  O1  <0> d           2.558  -2.692  -3.290  0.00  0.00    -0.268 OA
ATOM     24  N5  <0> d           3.393  -2.878  -5.341  0.00  0.00    -0.357 N 
ATOM     25  C13 <0> d           2.053  -2.975  -5.927  0.00  0.00     0.152 C 
ATOM     26  C14 <0> d           4.576  -2.993  -6.197  0.00  0.00     0.152 C 
ENDBRANCH   2  22
TORSDOF 4
