REMARK  3 active torsions:
REMARK  status: ('A' for Active; 'I' for Inactive)
REMARK    1  A    between atoms: C6_6  and  N1_7 
REMARK    2  A    between atoms: N2_11  and  S1_12 
REMARK    3  A    between atoms: S1_12  and  C10_15 
ROOT
ATOM      1  C1  <0> d          -0.019   1.415   0.159  0.00  0.00     0.031 A 
ATOM      2  C2  <0> d           1.174   2.107   0.102  0.00  0.00     0.033 A 
ATOM      3  C3  <0> d           2.379   1.418   0.038  0.00  0.00     0.051 A 
ATOM      4  C4  <0> d           2.389   0.032   0.034  0.00  0.00    -0.028 A 
ATOM      5  C5  <0> d           1.191  -0.661   0.089  0.00  0.00     0.038 A 
ATOM      6  C6  <0> d          -0.012   0.026   0.152  0.00  0.00     0.026 A 
ATOM      7  C7  <0> d           3.677  -0.746  -0.024  0.00  0.00     0.042 C 
ATOM      8  C8  <0> d           4.805   0.125  -0.577  0.00  0.00     0.026 C 
ATOM      9  C9  <0> d           4.847   1.442   0.209  0.00  0.00     0.142 C 
ATOM     10  N2  <0> d           3.578   2.144  -0.024  0.00  0.00    -0.271 N 
ENDROOT
BRANCH  10  11
ATOM     11  S1  <0> d           3.562   3.767  -0.356  0.00  0.00     0.271 S 
ATOM     12  O1  <0> d           4.889   4.118  -0.726  0.00  0.00    -0.199 OA
ATOM     13  O2  <0> d           2.448   3.997  -1.206  0.00  0.00    -0.199 OA
BRANCH  11  14
ATOM     14  C10 <0> d           3.223   4.605   1.157  0.00  0.00     0.122 A 
ATOM     15  S2  <0> d           1.648   5.072   1.854  0.00  0.00    -0.064 SA
ATOM     16  C13 <0> d           2.251   5.843   3.347  0.00  0.00     0.075 A 
ATOM     17  C12 <0> d           3.594   5.701   3.213  0.00  0.00     0.033 A 
ATOM     18 Cl1  <0> d           1.354   6.586   4.634  0.00  0.00    -0.076 Cl
ATOM     19  C11 <0> d           4.091   5.066   2.090  0.00  0.00     0.035 A 
ENDBRANCH  11  14
ENDBRANCH  10  11
BRANCH   6  20
ATOM     20  N1  <0> d          -1.219  -0.680   0.208  0.00  0.00    -0.399 N 
ATOM     21  H4  <0> d          -2.061  -0.199   0.253  0.00  0.00     0.156 HD
ATOM     22  H5  <0> d          -1.215  -1.650   0.203  0.00  0.00     0.156 HD
ENDBRANCH   6  20
TORSDOF 3
