REMARK  2 active torsions:
REMARK  status: ('A' for Active; 'I' for Inactive)
REMARK    1  A    between atoms: N1_5  and  C5_7 
REMARK    2  A    between atoms: C11_18  and  C12_19 
ROOT
ATOM      1  C12 <0> d           0.593   1.154  -2.470  0.00  0.00    -0.040 A 
ATOM      2  C13 <0> d           1.885   1.349  -2.014  0.00  0.00     0.010 A 
ATOM      3  C14 <0> d           2.413   2.622  -1.956  0.00  0.00     0.023 A 
ATOM      4  C15 <0> d           1.642   3.715  -2.358  0.00  0.00     0.044 A 
ATOM      5  C16 <0> d           0.339   3.510  -2.816  0.00  0.00     0.023 A 
ATOM      6  C17 <0> d          -0.175   2.232  -2.874  0.00  0.00     0.010 A 
ATOM      7  C18 <0> d           2.185   5.038  -2.299  0.00  0.00     0.099 C 
ATOM      8  N6  <0> d           2.615   6.089  -2.252  0.00  0.00    -0.191 NA
ENDROOT
BRANCH   1   9
ATOM      9  C11 <0> d           0.021  -0.239  -2.531  0.00  0.00     0.119 C 
ATOM     10  C3  <0> d           0.020  -0.819  -1.151  0.00  0.00     0.033 A 
ATOM     11  C2  <0> d          -0.011  -0.004   0.002  0.00  0.00     0.063 A 
ATOM     12  C4  <0> d           0.046  -2.107  -0.746  0.00  0.00     0.160 A 
ATOM     13  C1  <0> d          -0.047   1.502   0.010  0.00  0.00     0.073 C 
ATOM     14  N2  <0> d           0.003  -0.767   1.057  0.00  0.00    -0.155 NA
ATOM     15  N1  <0> d           0.035  -2.095   0.633  0.00  0.00    -0.042 N 
ATOM     16  N5  <0> d           0.075  -3.288  -1.446  0.00  0.00    -0.310 N 
ATOM     17  C9  <0> d           0.137  -3.608  -2.704  0.00  0.00     0.232 C 
ATOM     18  H8  <0> d           0.041  -4.064  -0.866  0.00  0.00     0.170 HD
ATOM     19  O1  <0> d           0.249  -4.795  -2.923  0.00  0.00    -0.272 OA
ATOM     20  C10 <0> d           0.093  -2.755  -3.910  0.00  0.00     0.178 C 
ATOM     21  S1  <0> d           0.978  -1.203  -3.705  0.00  0.00    -0.145 SA
BRANCH  15  22
ATOM     22  C5  <0> d           0.057  -3.217   1.460  0.00  0.00     0.750 A 
ATOM     23  N4  <0> d          -0.030  -4.421   0.917  0.00  0.00    -0.073 NA
ATOM     24  C8  <0> d          -0.006  -5.507   1.672  0.00  0.00     0.138 A 
ATOM     25  C7  <0> d           0.099  -5.371   3.048  0.00  0.00     0.040 A 
ATOM     26  C6  <0> d           0.181  -4.095   3.583  0.00  0.00     0.138 A 
ATOM     27  N3  <0> d           0.158  -3.052   2.769  0.00  0.00    -0.073 NA
ENDBRANCH  15  22
ENDBRANCH   1   9
TORSDOF 2
