REMARK  4 active torsions:
REMARK  status: ('A' for Active; 'I' for Inactive)
REMARK    1  A    between atoms: C5_5  and  N1_8 
REMARK    2  A    between atoms: C9_10  and  C12_14 
REMARK    3  A    between atoms: C13_16  and  C14_19 
REMARK    4  A    between atoms: N5_31  and  C22_32 
ROOT
ATOM      1  C12 <0> d           0.508  -7.426   1.303  0.00  0.00     0.261 A 
ATOM      2  N2  <0> d           0.180  -8.766   0.789  0.00  0.00    -0.344 N 
ATOM      3  C13 <0> d           1.348  -9.290   0.265  0.00  0.00     0.163 A 
ATOM      4  N3  <0> d           2.331  -8.459   0.390  0.00  0.00    -0.113 NA
ATOM      5  O2  <0> d           1.908  -7.265   1.028  0.00  0.00    -0.228 OA
ATOM      6  H15 <0> d          -0.688  -9.198   0.814  0.00  0.00     0.164 HD
ENDROOT
BRANCH   3   7
ATOM      7  C14 <0> d           1.459 -10.628  -0.356  0.00  0.00     0.014 A 
ATOM      8  C19 <0> d           2.683 -11.065  -0.856  0.00  0.00     0.047 A 
ATOM      9  C18 <0> d           2.786 -12.323  -1.432  0.00  0.00     0.063 A 
ATOM     10  C17 <0> d           1.657 -13.142  -1.521  0.00  0.00     0.065 A 
ATOM     11  N4  <0> d           4.016 -12.756  -1.923  0.00  0.00    -0.317 N 
ATOM     12  C16 <0> d           0.434 -12.696  -1.026  0.00  0.00     0.033 A 
ATOM     13  N5  <0> d           1.743 -14.403  -2.102  0.00  0.00    -0.304 N 
ATOM     14  C15 <0> d           0.334 -11.452  -0.448  0.00  0.00     0.018 A 
ATOM     15  C21 <0> d           2.920 -14.847  -2.586  0.00  0.00     0.316 A 
ATOM     16  C20 <0> d           4.126 -13.974  -2.491  0.00  0.00     0.314 A 
ATOM     17  O4  <0> d           2.998 -15.947  -3.094  0.00  0.00    -0.262 OA
ATOM     18  O3  <0> d           5.196 -14.356  -2.921  0.00  0.00    -0.262 OA
ATOM     19  H3  <0> d           4.793 -12.181  -1.856  0.00  0.00     0.169 HD
BRANCH  13  20
ATOM     20  C22 <0> d           0.551 -15.250  -2.188  0.00  0.00     0.085 C 
ATOM     21  C23 <0> d           0.306 -15.639  -3.647  0.00  0.00     0.032 C 
ATOM     22  C24 <0> d           0.762 -16.514  -1.351  0.00  0.00     0.032 C 
ENDBRANCH  13  20
ENDBRANCH   3   7
BRANCH   1  23
ATOM     23  C9  <0> d          -0.307  -6.359   0.570  0.00  0.00     0.064 C 
ATOM     24  C8  <0> d           0.145  -4.940   0.980  0.00  0.00     0.141 C 
ATOM     25  N1  <0> d           0.046  -4.130  -0.240  0.00  0.00    -0.318 N 
ATOM     26  C11 <0> d          -0.033  -4.904  -1.335  0.00  0.00     0.225 C 
ATOM     27  C10 <0> d           0.007  -6.365  -0.944  0.00  0.00     0.114 C 
ATOM     28  O1  <0> d          -0.122  -4.492  -2.473  0.00  0.00    -0.273 OA
BRANCH  25  29
ATOM     29  C5  <0> d           0.029  -2.731  -0.259  0.00  0.00     0.037 A 
ATOM     30  C4  <0> d           0.053  -2.051  -1.470  0.00  0.00     0.030 A 
ATOM     31  C3  <0> d           0.036  -0.670  -1.486  0.00  0.00     0.009 A 
ATOM     32  C2  <0> d          -0.005   0.036  -0.297  0.00  0.00    -0.062 A 
ATOM     33  C1  <0> d          -0.023   1.542  -0.318  0.00  0.00     0.048 C 
ATOM     34  C7  <0> d          -0.023  -0.638   0.910  0.00  0.00     0.009 A 
ATOM     35  C6  <0> d          -0.011  -2.019   0.933  0.00  0.00     0.030 A 
ENDBRANCH  25  29
ENDBRANCH   1  23
TORSDOF 4
