REMARK  5 active torsions:
REMARK  status: ('A' for Active; 'I' for Inactive)
REMARK    1  A    between atoms: C5_5  and  C8_8 
REMARK    2  A    between atoms: C8_8  and  O1_9 
REMARK    3  A    between atoms: O1_9  and  C9_10 
REMARK    4  A    between atoms: C10_11  and  O5_27 
REMARK    5  A    between atoms: C12_13  and  C15_17 
ROOT
ATOM      1  C9  <0> d          -0.826   3.881   3.071  0.00  0.00     0.119 A 
ATOM      2  C10 <0> d          -0.695   3.209   1.855  0.00  0.00     0.103 A 
ATOM      3  C11 <0> d          -0.369   3.908   0.711  0.00  0.00     0.051 A 
ATOM      4  C12 <0> d          -0.163   5.295   0.776  0.00  0.00    -0.031 A 
ATOM      5  C13 <0> d          -0.290   5.962   2.004  0.00  0.00     0.033 A 
ATOM      6  C14 <0> d          -0.617   5.254   3.139  0.00  0.00     0.048 A 
ATOM      7 Br1  <0> d          -0.788   6.153   4.794  0.00  0.00    -0.048 Br
ENDROOT
BRANCH   4   8
ATOM      8  C15 <0> d           0.184   6.043  -0.432  0.00  0.00     0.034 C 
ATOM      9  C16 <0> d          -0.458   7.234  -0.715  0.00  0.00     0.101 A 
ATOM     10  C19 <0> d           0.012   8.125  -1.794  0.00  0.00     0.265 A 
ATOM     11  C17 <0> d          -1.646   7.669   0.044  0.00  0.00     0.265 A 
ATOM     12  N2  <0> d          -0.664   9.271  -2.013  0.00  0.00    -0.275 N 
ATOM     13  O4  <0> d           0.983   7.833  -2.468  0.00  0.00    -0.267 OA
ATOM     14  C18 <0> d          -1.734   9.605  -1.279  0.00  0.00     0.329 A 
ATOM     15  H14 <0> d          -0.369   9.868  -2.719  0.00  0.00     0.173 HD
ATOM     16  N1  <0> d          -2.216   8.847  -0.285  0.00  0.00    -0.275 N 
ATOM     17  O3  <0> d          -2.298  10.653  -1.528  0.00  0.00    -0.246 OA
ATOM     18  H13 <0> d          -2.996   9.149   0.207  0.00  0.00     0.173 HD
ATOM     19  O2  <0> d          -2.096   6.987   0.946  0.00  0.00    -0.267 OA
ENDBRANCH   4   8
BRANCH   2  20
ATOM     20  O5  <0> d          -0.896   1.866   1.795  0.00  0.00    -0.353 OA
ATOM     21  C20 <0> d          -0.751   1.244   0.517  0.00  0.00     0.210 C 
ENDBRANCH   2  20
BRANCH   1  22
ATOM     22  O1  <0> d          -1.153   3.191   4.193  0.00  0.00    -0.342 OA
BRANCH  22  23
ATOM     23  C8  <0> d          -0.074   2.666   4.969  0.00  0.00     0.214 C 
BRANCH  23  24
ATOM     24  C5  <0> d          -0.626   1.936   6.167  0.00  0.00    -0.034 A 
ATOM     25  C4  <0> d          -0.915   0.587   6.081  0.00  0.00     0.010 A 
ATOM     26  C3  <0> d          -1.421  -0.083   7.180  0.00  0.00     0.007 A 
ATOM     27  C2  <0> d          -1.637   0.597   8.364  0.00  0.00    -0.062 A 
ATOM     28  C1  <0> d          -2.189  -0.133   9.562  0.00  0.00     0.048 C 
ATOM     29  C7  <0> d          -1.347   1.946   8.450  0.00  0.00     0.007 A 
ATOM     30  C6  <0> d          -0.837   2.614   7.353  0.00  0.00     0.010 A 
ENDBRANCH  23  24
ENDBRANCH  22  23
ENDBRANCH   1  22
TORSDOF 5
