REMARK  4 active torsions:
REMARK  status: ('A' for Active; 'I' for Inactive)
REMARK    1  A    between atoms: C4_7  and  N1_8 
REMARK    2  A    between atoms: C8_13  and  C9_15 
REMARK       I    between atoms: C9_15  and  N3_17 
REMARK    3  A    between atoms: N3_17  and  C10_18 
REMARK    4  A    between atoms: C10_18  and  C11_19 
ROOT
ATOM      1  C9  <0> d           1.147   1.655  -0.000  0.00  0.00     0.267 C 
ATOM      2  O4  <0> d           1.130   2.872   0.007  0.00  0.00    -0.266 OA
ATOM      3  N3  <0> d          -0.011   0.966   0.007  0.00  0.00    -0.355 N 
ATOM      4  H12 <0> d           0.004  -0.134   0.006  0.00  0.00     0.162 HD
ENDROOT
BRANCH   1   5
ATOM      5  C8  <0> d           2.427   0.939  -0.016  0.00  0.00     0.122 C 
ATOM      6  C7  <0> d           3.715   1.720  -0.030  0.00  0.00     0.076 C 
ATOM      7  C6  <0> d           4.780   0.962   0.771  0.00  0.00     0.111 C 
ATOM      8  C5  <0> d           4.787  -0.483   0.339  0.00  0.00     0.240 C 
ATOM      9  N1  <0> d           3.636  -1.074  -0.037  0.00  0.00    -0.232 N 
ATOM     10  O3  <0> d           5.824  -1.110   0.330  0.00  0.00    -0.272 OA
ATOM     11  N2  <0> d           2.435  -0.358  -0.023  0.00  0.00    -0.168 NA
BRANCH   9  12
ATOM     12  C4  <0> d           3.643  -2.476  -0.462  0.00  0.00     0.128 C 
ATOM     13  C1  <0> d           2.736  -3.297   0.471  0.00  0.00     0.043 C 
ATOM     14  C2  <0> d           2.512  -4.693  -0.177  0.00  0.00     0.142 C 
ATOM     15  S1  <0> d           2.296  -4.214  -1.943  0.00  0.00     0.146 S 
ATOM     16  O1  <0> d           0.912  -4.027  -2.205  0.00  0.00    -0.228 OA
ATOM     17  O2  <0> d           3.048  -5.101  -2.759  0.00  0.00    -0.228 OA
ATOM     18  C3  <0> d           3.127  -2.574  -1.918  0.00  0.00     0.167 C 
ENDBRANCH   9  12
ENDBRANCH   1   5
BRANCH   3  19
ATOM     19  C10 <0> d          -1.290   1.681   0.017  0.00  0.00     0.132 C 
BRANCH  19  20
ATOM     20  C11 <0> d          -2.439   0.671   0.017  0.00  0.00    -0.023 C 
ATOM     21  C16 <0> d          -3.774   1.418   0.028  0.00  0.00     0.015 C 
ATOM     22  C15 <0> d          -4.923   0.408   0.028  0.00  0.00    -0.013 C 
ATOM     23  C14 <0> d          -4.837  -0.464  -1.227  0.00  0.00     0.009 C 
ATOM     24  C17 <0> d          -4.825  -0.477   1.272  0.00  0.00     0.009 C 
ATOM     25  C13 <0> d          -3.501  -1.210  -1.237  0.00  0.00    -0.013 C 
ATOM     26  C12 <0> d          -2.352  -0.201  -1.237  0.00  0.00     0.015 C 
ATOM     27  C19 <0> d          -3.402  -2.096   0.007  0.00  0.00     0.009 C 
ATOM     28  C18 <0> d          -3.489  -1.224   1.261  0.00  0.00    -0.013 C 
ATOM     29  C20 <0> d          -2.340  -0.214   1.261  0.00  0.00     0.015 C 
ENDBRANCH  19  20
ENDBRANCH   3  19
TORSDOF 4
