REMARK  5 active torsions:
REMARK  status: ('A' for Active; 'I' for Inactive)
REMARK    1  A    between atoms: N1_2  and  C2_3 
REMARK       I    between atoms: N1_2  and  C9_10 
REMARK    2  A    between atoms: C2_3  and  C3_4 
REMARK    3  A    between atoms: C9_10  and  C10_12 
REMARK    4  A    between atoms: C10_12  and  N2_13 
REMARK       I    between atoms: N2_13  and  C11_14 
REMARK       I    between atoms: C11_14  and  N3_16 
REMARK    5  A    between atoms: N3_16  and  C12_17 
ROOT
ATOM      1  N2  <0> d          -0.036  -0.858  -3.588  0.00  0.00    -0.334 N 
ATOM      2  C11 <0> d          -0.042  -0.401  -4.856  0.00  0.00     0.321 C 
ATOM      3  O2  <0> d          -0.052   0.795  -5.072  0.00  0.00    -0.247 OA
ATOM      4  N3  <0> d          -0.036  -1.271  -5.886  0.00  0.00    -0.307 N 
ATOM      5  H13 <0> d          -0.029  -1.812  -3.416  0.00  0.00     0.164 HD
ATOM      6  H14 <0> d           0.054  -2.222  -5.717  0.00  0.00     0.170 HD
ENDROOT
BRANCH   1   7
ATOM      7  C10 <0> d          -0.042   0.088  -2.469  0.00  0.00     0.227 C 
BRANCH   7   8
ATOM      8  C9  <0> d          -0.034  -0.673  -1.169  0.00  0.00     0.237 C 
ATOM      9  N1  <0> d          -0.038  -0.006   0.003  0.00  0.00    -0.351 N 
ATOM     10  C1  <0> d          -0.049   1.459   0.011  0.00  0.00     0.153 C 
ATOM     11  O1  <0> d          -0.025  -1.886  -1.175  0.00  0.00    -0.272 OA
BRANCH   9  12
ATOM     12  C2  <0> d          -0.030  -0.746   1.267  0.00  0.00     0.164 C 
BRANCH  12  13
ATOM     13  C3  <0> d          -1.448  -1.010   1.703  0.00  0.00    -0.040 A 
ATOM     14  C8  <0> d          -2.091  -2.165   1.298  0.00  0.00     0.009 A 
ATOM     15  C7  <0> d          -3.391  -2.410   1.701  0.00  0.00     0.001 A 
ATOM     16  C6  <0> d          -4.050  -1.496   2.502  0.00  0.00     0.000 A 
ATOM     17  C5  <0> d          -3.409  -0.339   2.902  0.00  0.00     0.001 A 
ATOM     18  C4  <0> d          -2.108  -0.096   2.502  0.00  0.00     0.009 A 
ENDBRANCH  12  13
ENDBRANCH   9  12
ENDBRANCH   7   8
ENDBRANCH   1   7
BRANCH   4  19
ATOM     19  C12 <0> d          -0.161  -0.803  -7.196  0.00  0.00     0.066 A 
ATOM     20  C17 <0> d           0.352  -1.559  -8.273  0.00  0.00     0.093 A 
ATOM     21  C16 <0> d           0.207  -1.064  -9.592  0.00  0.00    -0.005 A 
ATOM     22  N4  <0> d           0.963  -2.729  -8.065  0.00  0.00    -0.258 NA
ATOM     23  C15 <0> d          -0.430   0.169  -9.807  0.00  0.00     0.014 A 
ATOM     24  C20 <0> d           0.714  -1.822 -10.665  0.00  0.00     0.015 A 
ATOM     25  C14 <0> d          -0.910   0.879  -8.748  0.00  0.00     0.003 A 
ATOM     26  C13 <0> d          -0.780   0.401  -7.447  0.00  0.00     0.032 A 
ATOM     27  C19 <0> d           1.337  -3.003 -10.381  0.00  0.00     0.020 A 
ATOM     28  C18 <0> d           1.441  -3.435  -9.060  0.00  0.00     0.117 A 
ENDBRANCH   4  19
TORSDOF 5
