REMARK  7 active torsions:
REMARK  status: ('A' for Active; 'I' for Inactive)
REMARK    1  A    between atoms: N1_7  and  C9_12 
REMARK    2  A    between atoms: C9_12  and  C10_13 
REMARK    3  A    between atoms: C10_13  and  C11_14 
REMARK       I    between atoms: C11_14  and  N2_16 
REMARK    4  A    between atoms: N2_16  and  C12_17 
REMARK    5  A    between atoms: C12_17  and  C13_18 
REMARK    6  A    between atoms: C13_18  and  C14_19 
REMARK    7  A    between atoms: C13_18  and  N3_24 
ROOT
ATOM      1  C11 <0> d          -1.688   3.360  -4.769  0.00  0.00     0.219 C 
ATOM      2  O2  <0> d          -2.448   2.753  -5.493  0.00  0.00    -0.274 OA
ATOM      3  N2  <0> d          -1.085   2.729  -3.742  0.00  0.00    -0.359 N 
ATOM      4  H12 <0> d          -0.396   3.280  -3.086  0.00  0.00     0.162 HD
ENDROOT
BRANCH   1   5
ATOM      5  C10 <0> d          -1.416   4.821  -5.019  0.00  0.00     0.123 C 
BRANCH   5   6
ATOM      6  C9  <0> d          -2.218   5.289  -6.236  0.00  0.00     0.141 C 
BRANCH   6   7
ATOM      7  N1  <0> d          -1.954   6.709  -6.479  0.00  0.00    -0.316 N 
ATOM      8  C5  <0> d          -2.792   7.622  -5.845  0.00  0.00     0.054 A 
ATOM      9  C4  <0> d          -2.936   8.928  -6.309  0.00  0.00     0.028 A 
ATOM     10  C6  <0> d          -3.504   7.228  -4.717  0.00  0.00     0.031 A 
ATOM     11  C3  <0> d          -3.776   9.818  -5.660  0.00  0.00     0.021 A 
ATOM     12  S1  <0> d          -2.037   9.434  -7.740  0.00  0.00    -0.118 SA
ATOM     13  C2  <0> d          -4.485   9.412  -4.551  0.00  0.00     0.002 A 
ATOM     14  C1  <0> d          -4.343   8.120  -4.078  0.00  0.00     0.002 A 
ATOM     15  C8  <0> d          -0.540   8.406  -7.650  0.00  0.00     0.182 C 
ATOM     16  C7  <0> d          -0.939   7.001  -7.288  0.00  0.00     0.234 C 
ATOM     17  O1  <0> d          -0.301   6.084  -7.760  0.00  0.00    -0.272 OA
ENDBRANCH   6   7
ENDBRANCH   5   6
ENDBRANCH   1   5
BRANCH   3  18
ATOM     18  C12 <0> d          -1.350   1.309  -3.499  0.00  0.00     0.161 C 
BRANCH  18  19
ATOM     19  C13 <0> d          -0.681   0.882  -2.191  0.00  0.00     0.245 C 
BRANCH  19  20
ATOM     20  C14 <0> d          -0.903  -0.592  -1.970  0.00  0.00     0.015 A 
ATOM     21  S2  <0> d          -2.384  -1.440  -1.446  0.00  0.00    -0.104 SA
ATOM     22  C17 <0> d          -1.740  -3.105  -1.461  0.00  0.00     0.050 A 
ATOM     23  C16 <0> d          -0.458  -2.905  -1.852  0.00  0.00     0.008 A 
ATOM     24  C15 <0> d          -0.029  -1.618  -2.113  0.00  0.00     0.017 A 
ENDBRANCH  19  20
BRANCH  19  25
ATOM     25  N3  <0> d          -1.265   1.638  -1.074  0.00  0.00    -0.061 N 
ATOM     26  C21 <0> d          -0.669   1.219   0.221  0.00  0.00     0.236 C 
ATOM     27  C20 <0> d          -0.942   2.401   1.175  0.00  0.00     0.029 C 
ATOM     28  C19 <0> d          -1.117   3.630   0.254  0.00  0.00     0.029 C 
ATOM     29  C18 <0> d          -0.934   3.082  -1.178  0.00  0.00     0.236 C 
ATOM     30  H26 <0> d          -2.346   1.444  -1.127  0.00  0.00     0.280 HD
ENDBRANCH  19  25
ENDBRANCH  18  19
ENDBRANCH   3  18
TORSDOF 7
