REMARK  6 active torsions:
REMARK  status: ('A' for Active; 'I' for Inactive)
REMARK    1  A    between atoms: C2_2  and  C3_3 
REMARK    2  A    between atoms: C2_2  and  O3_15 
REMARK    3  A    between atoms: C3_3  and  N1_4 
REMARK    4  A    between atoms: N1_4  and  C5_6 
REMARK    5  A    between atoms: C5_6  and  C6_7 
REMARK    6  A    between atoms: C8_10  and  C9_12 
ROOT
ATOM      1  C5  <0> d          -2.784  -2.516   0.016  0.00  0.00     0.294 C 
ENDROOT
BRANCH   1   2
ATOM      2  N1  <0> d          -1.414  -1.998   0.126  0.00  0.00    -0.067 N 
ATOM      3  C4  <0> d          -0.848  -2.382   1.426  0.00  0.00     0.270 C 
ATOM      4  H14 <0> d          -0.848  -2.385  -0.615  0.00  0.00     0.279 HD
BRANCH   2   5
ATOM      5  C3  <0> d          -1.433  -0.534   0.013  0.00  0.00     0.265 C 
BRANCH   5   6
ATOM      6  C2  <0> d           0.002  -0.004   0.002  0.00  0.00     0.140 C 
ATOM      7  C1  <0> d          -0.019   1.526   0.010  0.00  0.00     0.041 C 
BRANCH   6   8
ATOM      8  O3  <0> d           0.671  -0.465  -1.174  0.00  0.00    -0.394 OA
ATOM      9  H13 <0> d           1.588  -0.167  -1.247  0.00  0.00     0.210 HD
ENDBRANCH   6   8
ENDBRANCH   5   6
ENDBRANCH   2   5
ENDBRANCH   1   2
BRANCH   1  10
ATOM     10  C6  <0> d          -2.753  -4.022   0.008  0.00  0.00     0.068 A 
ATOM     11  N2  <0> d          -2.555  -4.668  -1.109  0.00  0.00    -0.237 NA
ATOM     12  C8  <0> d          -2.529  -5.996  -1.079  0.00  0.00     0.174 A 
ATOM     13  S1  <0> d          -2.819  -6.315   0.653  0.00  0.00    -0.073 SA
ATOM     14  C7  <0> d          -2.937  -4.716   1.167  0.00  0.00     0.081 A 
BRANCH  12  15
ATOM     15  C9  <0> d          -2.322  -6.948  -2.178  0.00  0.00     0.236 C 
ATOM     16  O1  <0> d          -2.337  -8.151  -1.957  0.00  0.00    -0.642 OA
ATOM     17  O2  <0> d          -2.136  -6.537  -3.316  0.00  0.00    -0.642 OA
ENDBRANCH  12  15
ENDBRANCH   1  10
TORSDOF 6
