REMARK  7 active torsions:
REMARK  status: ('A' for Active; 'I' for Inactive)
REMARK    1  A    between atoms: C6_7  and  N2_8 
REMARK    2  A    between atoms: N2_8  and  O1_9 
REMARK    3  A    between atoms: O1_9  and  C7_10 
REMARK    4  A    between atoms: C7_10  and  C8_11 
REMARK       I    between atoms: C8_11  and  N3_13 
REMARK    5  A    between atoms: N3_13  and  C9_14 
REMARK    6  A    between atoms: C9_14  and  C10_15 
REMARK    7  A    between atoms: C10_15  and  O3_16 
ROOT
ATOM      1  C1  <0> d           0.022   1.504   0.008  0.00  0.00     0.052 C 
ATOM      2  C2  <0> d           0.021  -0.003   0.001  0.00  0.00    -0.016 C 
ATOM      3  C3  <0> d          -0.078  -0.667  -1.167  0.00  0.00     0.127 C 
ATOM      4  N1  <0> d          -0.148  -1.999  -1.281  0.00  0.00    -0.245 NA
ATOM      5  C4  <0> d          -0.090  -2.801  -0.263  0.00  0.00     0.128 C 
ATOM      6  C5  <0> d           0.198  -2.226   1.111  0.00  0.00     0.203 C 
ATOM      7  C6  <0> d           0.131  -0.718   1.229  0.00  0.00     0.089 C 
ATOM      8  C12 <0> d          -0.821  -2.838   2.033  0.00  0.00     0.245 C 
ATOM      9  O4  <0> d          -1.230  -2.220   2.993  0.00  0.00    -0.272 OA
ATOM     10  N4  <0> d          -1.275  -4.083   1.781  0.00  0.00    -0.273 N 
ATOM     11  C13 <0> d          -0.930  -4.761   0.673  0.00  0.00     0.332 C 
ATOM     12  O5  <0> d          -1.187  -5.946   0.596  0.00  0.00    -0.246 OA
ATOM     13  N5  <0> d          -0.302  -4.151  -0.358  0.00  0.00    -0.290 N 
ATOM     14  C14 <0> d           0.136  -4.907  -1.534  0.00  0.00     0.162 C 
ATOM     15  C15 <0> d          -2.174  -4.718   2.747  0.00  0.00     0.164 C 
ENDROOT
BRANCH   7  16
ATOM     16  N2  <0> d           0.168  -0.114   2.379  0.00  0.00    -0.136 NA
BRANCH  16  17
ATOM     17  O1  <0> d          -0.027   1.287   2.449  0.00  0.00    -0.247 OA
BRANCH  17  18
ATOM     18  C7  <0> d           0.040   1.818   3.774  0.00  0.00     0.306 C 
BRANCH  18  19
ATOM     19  C8  <0> d          -0.181   3.308   3.731  0.00  0.00     0.243 C 
ATOM     20  O2  <0> d          -0.376   3.861   2.669  0.00  0.00    -0.271 OA
ATOM     21  N3  <0> d          -0.161   4.026   4.871  0.00  0.00    -0.357 N 
ATOM     22  H8  <0> d          -0.005   3.583   5.720  0.00  0.00     0.162 HD
BRANCH  21  23
ATOM     23  C9  <0> d          -0.375   5.474   4.828  0.00  0.00     0.148 C 
BRANCH  23  24
ATOM     24  C10 <0> d          -0.304   6.042   6.247  0.00  0.00     0.186 C 
BRANCH  24  25
ATOM     25  O3  <0> d           1.017   5.871   6.763  0.00  0.00    -0.394 OA
ATOM     26  C11 <0> d           1.193   6.370   8.090  0.00  0.00     0.201 C 
ENDBRANCH  24  25
ENDBRANCH  23  24
ENDBRANCH  21  23
ENDBRANCH  18  19
ENDBRANCH  17  18
ENDBRANCH  16  17
ENDBRANCH   7  16
TORSDOF 7
