REMARK  3 active torsions:
REMARK  status: ('A' for Active; 'I' for Inactive)
REMARK    1  A    between atoms: C2_2  and  N1_4 
REMARK    2  A    between atoms: N2_10  and  N3_11 
REMARK       I    between atoms: N3_11  and  C9_12 
REMARK       I    between atoms: C9_12  and  N4_14 
REMARK    3  A    between atoms: C10_15  and  O2_16 
ROOT
ATOM      1  N1  <0> d          -1.440  -0.471   0.002  0.00  0.00    -0.373 N 
ATOM      2  C4  <0> d          -2.275  -0.486   1.202  0.00  0.00     0.163 A 
ATOM      3  C5  <0> d          -3.470  -1.399   0.877  0.00  0.00     0.213 A 
ATOM      4  C6  <0> d          -3.199  -1.845  -0.544  0.00  0.00     0.004 A 
ATOM      5  C7  <0> d          -3.883  -2.651  -1.377  0.00  0.00     0.048 A 
ATOM      6  C8  <0> d          -3.362  -2.903  -2.725  0.00  0.00     0.111 A 
ATOM      7  N2  <0> d          -4.015  -3.688  -3.559  0.00  0.00    -0.168 NA
ATOM      8  C10 <0> d          -2.101  -2.267  -3.132  0.00  0.00     0.098 A 
ATOM      9  C11 <0> d          -1.438  -1.462  -2.269  0.00  0.00     0.069 A 
ATOM     10  C12 <0> d          -1.946  -1.214  -0.963  0.00  0.00     0.042 A 
ATOM     11  O3  <0> d          -3.501  -2.520   1.762  0.00  0.00    -0.228 OA
ENDROOT
BRANCH   7  12
ATOM     12  N3  <0> d          -3.469  -4.044  -4.672  0.00  0.00    -0.228 N 
ATOM     13  C9  <0> d          -4.179  -4.743  -5.579  0.00  0.00     0.334 C 
ATOM     14  O1  <0> d          -3.665  -5.078  -6.628  0.00  0.00    -0.246 OA
ATOM     15  N4  <0> d          -5.461  -5.071  -5.323  0.00  0.00    -0.351 N 
ATOM     16  H13 <0> d          -5.872  -4.804  -4.486  0.00  0.00     0.160 HD
ATOM     17  H14 <0> d          -5.973  -5.575  -5.975  0.00  0.00     0.160 HD
ATOM     18  H12 <0> d          -2.546  -3.808  -4.857  0.00  0.00     0.194 HD
ENDBRANCH   7  12
BRANCH   8  19
ATOM     19  O2  <0> d          -1.601  -2.486  -4.373  0.00  0.00    -0.358 OA
ATOM     20  H16 <0> d          -1.017  -1.784  -4.691  0.00  0.00     0.217 HD
ENDBRANCH   8  19
BRANCH   1  21
ATOM     21  C2  <0> d          -0.190   0.285  -0.116  0.00  0.00     0.076 C 
ATOM     22  C1  <0> d          -0.473   1.774   0.093  0.00  0.00     0.032 C 
ATOM     23  C3  <0> d           0.801  -0.199   0.944  0.00  0.00     0.032 C 
ENDBRANCH   1  21
TORSDOF 3
