REMARK  3 active torsions:
REMARK  status: ('A' for Active; 'I' for Inactive)
REMARK       I    between atoms: N1_4  and  C7_9 
REMARK    1  A    between atoms: C7_9  and  C8_11 
REMARK    2  A    between atoms: C10_13  and  S1_17 
REMARK    3  A    between atoms: S1_17  and  N3_20 
ROOT
ATOM      1  C8  <0> d           1.297   1.928  -0.121  0.00  0.00     0.104 A 
ATOM      2  C9  <0> d           1.451   3.297  -0.071  0.00  0.00     0.062 A 
ATOM      3  C10 <0> d           2.783   3.548   0.276  0.00  0.00     0.097 A 
ATOM      4  C11 <0> d           3.404   2.354   0.428  0.00  0.00     0.116 A 
ATOM      5  N2  <0> d           2.511   1.362   0.195  0.00  0.00    -0.355 N 
ATOM      6  C12 <0> d           2.792  -0.074   0.264  0.00  0.00     0.156 C 
ENDROOT
BRANCH   1   7
ATOM      7  C7  <0> d           0.062   1.206  -0.445  0.00  0.00     0.270 C 
ATOM      8  N1  <0> d          -0.883   1.795  -1.205  0.00  0.00    -0.342 N 
ATOM      9  C3  <0> d          -2.192   1.156  -1.417  0.00  0.00     0.157 C 
ATOM     10  C4  <0> d          -0.639   3.098  -1.843  0.00  0.00     0.157 C 
ATOM     11  C2  <0> d          -2.481   1.134  -2.922  0.00  0.00     0.136 C 
ATOM     12  C1  <0> d          -1.501   0.186  -3.617  0.00  0.00     0.041 C 
ATOM     13  O1  <0> d          -2.326   2.453  -3.451  0.00  0.00    -0.378 OA
ATOM     14  C5  <0> d          -1.002   2.979  -3.332  0.00  0.00     0.136 C 
ATOM     15  C6  <0> d          -0.941   4.362  -3.983  0.00  0.00     0.041 C 
ATOM     16  O2  <0> d          -0.108   0.074  -0.033  0.00  0.00    -0.266 OA
ENDBRANCH   1   7
BRANCH   3  17
ATOM     17  S1  <0> d           3.521   5.135   0.478  0.00  0.00     0.259 S 
ATOM     18  O3  <0> d           4.916   4.964   0.270  0.00  0.00    -0.201 OA
ATOM     19  O4  <0> d           2.742   6.045  -0.286  0.00  0.00    -0.201 OA
BRANCH  17  20
ATOM     20  N3  <0> d           3.329   5.566   2.066  0.00  0.00    -0.320 N 
ATOM     21  C13 <0> d           3.993   4.794   3.119  0.00  0.00     0.159 C 
ATOM     22  H18 <0> d           2.576   6.323   2.330  0.00  0.00     0.171 HD
ENDBRANCH  17  20
ENDBRANCH   3  17
TORSDOF 3
