REMARK  8 active torsions:
REMARK  status: ('A' for Active; 'I' for Inactive)
REMARK    1  A    between atoms: C7_7  and  C11_14 
REMARK    2  A    between atoms: C11_14  and  N2_15 
REMARK    3  A    between atoms: N2_15  and  C12_16 
REMARK    4  A    between atoms: N2_15  and  S1_20 
REMARK    5  A    between atoms: C12_16  and  C13_17 
REMARK    6  A    between atoms: C13_17  and  C14_18 
REMARK    7  A    between atoms: C14_18  and  O2_19 
REMARK    8  A    between atoms: S1_20  and  C15_23 
ROOT
ATOM      1  N2  <0> d           0.969   3.077   1.552  0.00  0.00    -0.302 N 
ENDROOT
BRANCH   1   2
ATOM      2  C11 <0> d           0.798   2.695   0.148  0.00  0.00     0.179 C 
BRANCH   2   3
ATOM      3  C7  <0> d           0.658   1.198   0.048  0.00  0.00     0.029 A 
ATOM      4  C6  <0> d          -0.575   0.634   0.026  0.00  0.00     0.028 A 
ATOM      5  C5  <0> d          -0.677  -0.823  -0.072  0.00  0.00    -0.009 A 
ATOM      6  C4  <0> d          -1.921  -1.461  -0.099  0.00  0.00     0.014 A 
ATOM      7  C9  <0> d           0.504  -1.586  -0.139  0.00  0.00     0.045 A 
ATOM      8  C3  <0> d          -1.982  -2.823  -0.191  0.00  0.00     0.007 A 
ATOM      9  C2  <0> d          -0.819  -3.579  -0.258  0.00  0.00    -0.060 A 
ATOM     10  C1  <0> d          -0.911  -5.080  -0.360  0.00  0.00     0.048 C 
ATOM     11  C10 <0> d           0.417  -2.971  -0.232  0.00  0.00     0.037 A 
ATOM     12  N1  <0> d           1.728  -0.952  -0.112  0.00  0.00    -0.322 N 
ATOM     13  C8  <0> d           1.811   0.387  -0.022  0.00  0.00     0.253 A 
ATOM     14  H1  <0> d           2.541  -1.480  -0.158  0.00  0.00     0.169 HD
ATOM     15  O1  <0> d           2.910   0.914  -0.001  0.00  0.00    -0.268 OA
ENDBRANCH   2   3
ENDBRANCH   1   2
BRANCH   1  16
ATOM     16  C12 <0> d           2.295   3.010   2.173  0.00  0.00     0.138 C 
BRANCH  16  17
ATOM     17  C13 <0> d           3.097   4.258   1.797  0.00  0.00     0.046 C 
BRANCH  17  18
ATOM     18  C14 <0> d           4.481   4.189   2.446  0.00  0.00     0.165 C 
BRANCH  18  19
ATOM     19  O2  <0> d           5.230   5.354   2.095  0.00  0.00    -0.401 OA
ATOM     20  H17 <0> d           6.120   5.378   2.472  0.00  0.00     0.209 HD
ENDBRANCH  18  19
ENDBRANCH  17  18
ENDBRANCH  16  17
ENDBRANCH   1  16
BRANCH   1  21
ATOM     21  S1  <0> d          -0.335   3.583   2.438  0.00  0.00     0.264 S 
ATOM     22  O3  <0> d          -1.494   3.204   1.707  0.00  0.00    -0.200 OA
ATOM     23  O4  <0> d          -0.106   3.162   3.775  0.00  0.00    -0.200 OA
BRANCH  21  24
ATOM     24  C15 <0> d          -0.303   5.345   2.451  0.00  0.00     0.117 A 
ATOM     25  C20 <0> d           0.391   6.034   3.480  0.00  0.00     0.120 A 
ATOM     26  C19 <0> d           0.399   7.494   3.457  0.00  0.00     0.098 A 
ATOM     27  N3  <0> d           1.073   5.546   4.515  0.00  0.00    -0.190 NA
ATOM     28  C18 <0> d          -0.295   8.156   2.411  0.00  0.00     0.035 A 
ATOM     29  N4  <0> d           1.088   8.006   4.474  0.00  0.00    -0.191 NA
ATOM     30  C17 <0> d          -0.941   7.436   1.464  0.00  0.00     0.011 A 
ATOM     31  C16 <0> d          -0.945   6.042   1.484  0.00  0.00    -0.036 A 
ATOM     32  C21 <0> d          -1.681   5.292   0.403  0.00  0.00     0.050 C 
ATOM     33  S2  <0> d           1.615   6.786   5.305  0.00  0.00     0.117 SA
ENDBRANCH  21  24
ENDBRANCH   1  21
TORSDOF 8
