REMARK  6 active torsions:
REMARK  status: ('A' for Active; 'I' for Inactive)
REMARK    1  A    between atoms: C6_6  and  C7_7 
REMARK    2  A    between atoms: C8_8  and  C12_15 
REMARK    3  A    between atoms: C12_15  and  C13_16 
REMARK    4  A    between atoms: C13_16  and  C14_17 
REMARK    5  A    between atoms: C13_16  and  N3_19 
REMARK    6  A    between atoms: C14_17  and  O1_18 
ROOT
ATOM      1  C7  <0> d          -1.273  -0.762   0.005  0.00  0.00     0.093 A 
ATOM      2  C8  <0> d          -1.527  -1.895  -0.694  0.00  0.00     0.050 A 
ATOM      3  N1  <0> d          -2.827  -2.289  -0.398  0.00  0.00    -0.302 N 
ATOM      4  C9  <0> d          -3.694  -3.304  -0.741  0.00  0.00     0.106 A 
ATOM      5  C10 <0> d          -4.923  -3.354  -0.229  0.00  0.00     0.071 A 
ATOM      6  S1  <0> d          -4.946  -1.908   0.818  0.00  0.00    -0.062 SA
ATOM      7  C11 <0> d          -3.292  -1.348   0.484  0.00  0.00     0.177 A 
ATOM      8  N2  <0> d          -2.375  -0.456   0.721  0.00  0.00    -0.221 NA
ENDROOT
BRANCH   2   9
ATOM      9  C12 <0> d          -0.574  -2.599  -1.625  0.00  0.00     0.095 C 
BRANCH   9  10
ATOM     10  C13 <0> d          -0.646  -1.957  -3.011  0.00  0.00     0.212 C 
BRANCH  10  11
ATOM     11  C14 <0> d           0.410  -2.588  -3.921  0.00  0.00     0.197 C 
BRANCH  11  12
ATOM     12  O1  <0> d           0.421  -1.910  -5.179  0.00  0.00    -0.399 OA
ATOM     13  H12 <0> d           1.069  -2.258  -5.808  0.00  0.00     0.209 HD
ENDBRANCH  11  12
ENDBRANCH  10  11
BRANCH  10  14
ATOM     14  N3  <0> d          -1.981  -2.177  -3.584  0.00  0.00    -0.073 N 
ATOM     15  H13 <0> d          -2.154  -3.168  -3.663  0.00  0.00     0.274 HD
ATOM     16  H14 <0> d          -2.677  -1.760  -2.984  0.00  0.00     0.274 HD
ATOM     17  H15 <0> d          -2.028  -1.753  -4.498  0.00  0.00     0.274 HD
ENDBRANCH  10  14
ENDBRANCH   9  10
ENDBRANCH   2   9
BRANCH   1  18
ATOM     18  C6  <0> d          -0.003   0.005  -0.010  0.00  0.00    -0.005 A 
ATOM     19  C1  <0> d          -0.027   1.396  -0.091  0.00  0.00     0.015 A 
ATOM     20  C2  <0> d           1.157   2.104  -0.104  0.00  0.00     0.020 A 
ATOM     21  C3  <0> d           2.367   1.435  -0.038  0.00  0.00     0.011 A 
ATOM     22  C4  <0> d           2.396   0.054   0.043  0.00  0.00     0.020 A 
ATOM     23 Br1  <0> d           3.986   2.412  -0.057  0.00  0.00    -0.051 Br
ATOM     24  C5  <0> d           1.218  -0.664   0.056  0.00  0.00     0.015 A 
ENDBRANCH   1  18
TORSDOF 6
