REMARK  7 active torsions:
REMARK  status: ('A' for Active; 'I' for Inactive)
REMARK    1  A    between atoms: N1_2  and  C3_4 
REMARK    2  A    between atoms: N2_7  and  C7_9 
REMARK    3  A    between atoms: C7_9  and  C8_10 
REMARK    4  A    between atoms: C10_12  and  C12_15 
REMARK    5  A    between atoms: C13_16  and  C14_17 
REMARK    6  A    between atoms: C14_17  and  C15_18 
REMARK    7  A    between atoms: C15_18  and  O1_19 
ROOT
ATOM      1  C8  <0> d          -4.166  -4.044  -1.637  0.00  0.00     0.012 A 
ATOM      2  C9  <0> d          -4.779  -3.826  -2.821  0.00  0.00     0.037 A 
ATOM      3  C10 <0> d          -6.104  -4.226  -2.981  0.00  0.00     0.025 A 
ATOM      4  C11 <0> d          -6.734  -4.827  -1.924  0.00  0.00     0.070 A 
ATOM      5  S1  <0> d          -5.449  -4.840  -0.685  0.00  0.00    -0.103 SA
ENDROOT
BRANCH   1   6
ATOM      6  C7  <0> d          -2.756  -3.706  -1.226  0.00  0.00     0.318 C 
BRANCH   6   7
ATOM      7  N2  <0> d          -2.726  -2.360  -0.637  0.00  0.00     0.095 N 
ATOM      8  C5  <0> d          -2.964  -1.326  -1.667  0.00  0.00     0.275 C 
ATOM      9  C4  <0> d          -2.122  -0.097  -1.276  0.00  0.00     0.065 C 
ATOM     10  C3  <0> d          -1.376  -0.512   0.012  0.00  0.00     0.217 C 
ATOM     11  C6  <0> d          -1.390  -2.060  -0.058  0.00  0.00     0.305 C 
BRANCH  10  12
ATOM     12  N1  <0> d           0.002  -0.004   0.002  0.00  0.00    -0.073 N 
ATOM     13  C1  <0> d          -0.018   1.465   0.010  0.00  0.00     0.269 C 
ATOM     14  C2  <0> d           0.713  -0.491   1.192  0.00  0.00     0.269 C 
ATOM     15  H23 <0> d           0.474  -0.330  -0.828  0.00  0.00     0.279 HD
ENDBRANCH  10  12
ENDBRANCH   6   7
ENDBRANCH   1   6
BRANCH   3  16
ATOM     16  C12 <0> d          -6.790  -4.014  -4.219  0.00  0.00    -0.066 C 
ATOM     17  C13 <0> d          -7.353  -3.840  -5.235  0.00  0.00    -0.099 C 
BRANCH  17  18
ATOM     18  C14 <0> d          -8.059  -3.622  -6.508  0.00  0.00     0.120 C 
BRANCH  18  19
ATOM     19  C15 <0> d          -9.488  -4.156  -6.397  0.00  0.00     0.176 C 
BRANCH  19  20
ATOM     20  O1  <0> d         -10.173  -3.944  -7.634  0.00  0.00    -0.400 OA
ATOM     21  H22 <0> d         -11.087  -4.259  -7.636  0.00  0.00     0.209 HD
ENDBRANCH  19  20
ENDBRANCH  18  19
ENDBRANCH  17  18
ENDBRANCH   3  16
TORSDOF 7
