REMARK  7 active torsions:
REMARK  status: ('A' for Active; 'I' for Inactive)
REMARK    1  A    between atoms: C2_2  and  N1_3 
REMARK    2  A    between atoms: N1_3  and  C3_4 
REMARK    3  A    between atoms: N1_3  and  C5_6 
REMARK    4  A    between atoms: C6_8  and  N6_23 
REMARK    5  A    between atoms: C8_10  and  N4_12 
REMARK    6  A    between atoms: C10_14  and  N5_18 
REMARK    7  A    between atoms: C11_15  and  O1_17 
ROOT
ATOM      1  C5  <0> d           2.077  -0.701   1.140  0.00  0.00     0.728 A 
ATOM      2  N2  <0> d           2.729  -0.455   0.014  0.00  0.00    -0.045 NA
ATOM      3  C6  <0> d           4.043  -0.646  -0.070  0.00  0.00     0.144 A 
ATOM      4  C7  <0> d           4.732  -1.112   1.047  0.00  0.00     0.101 A 
ATOM      5  C8  <0> d           4.014  -1.360   2.212  0.00  0.00     0.148 A 
ATOM      6  N3  <0> d           2.701  -1.140   2.223  0.00  0.00    -0.045 NA
ENDROOT
BRANCH   5   7
ATOM      7  N4  <0> d           4.657  -1.824   3.349  0.00  0.00    -0.361 N 
ATOM      8  C12 <0> d           6.109  -2.002   3.499  0.00  0.00     0.158 C 
ATOM      9  C11 <0> d           6.358  -2.561   4.915  0.00  0.00     0.168 C 
ATOM     10  C10 <0> d           4.995  -3.206   5.277  0.00  0.00     0.236 C 
ATOM     11  C9  <0> d           3.999  -2.228   4.605  0.00  0.00     0.160 C 
BRANCH   9  12
ATOM     12  O1  <0> d           7.394  -3.545   4.896  0.00  0.00    -0.392 OA
ATOM     13  H18 <0> d           8.267  -3.193   4.675  0.00  0.00     0.210 HD
ENDBRANCH   9  12
BRANCH  10  14
ATOM     14  N5  <0> d           4.797  -3.240   6.732  0.00  0.00    -0.063 N 
ATOM     15  C16 <0> d           5.778  -4.153   7.359  0.00  0.00     0.235 C 
ATOM     16  C15 <0> d           5.066  -4.842   8.537  0.00  0.00     0.029 C 
ATOM     17  C14 <0> d           3.623  -4.289   8.516  0.00  0.00     0.029 C 
ATOM     18  C13 <0> d           3.460  -3.801   7.055  0.00  0.00     0.235 C 
ATOM     19  H29 <0> d           4.888  -2.313   7.119  0.00  0.00     0.280 HD
ENDBRANCH  10  14
ENDBRANCH   5   7
BRANCH   3  20
ATOM     20  N6  <0> d           4.717  -0.386  -1.253  0.00  0.00    -0.383 N 
ATOM     21  H27 <0> d           4.231  -0.062  -2.027  0.00  0.00     0.157 HD
ATOM     22  H28 <0> d           5.675  -0.528  -1.306  0.00  0.00     0.157 HD
ENDBRANCH   3  20
BRANCH   1  23
ATOM     23  N1  <0> d           0.711  -0.489   1.189  0.00  0.00    -0.215 N 
BRANCH  23  24
ATOM     24  C2  <0> d           0.002  -0.004   0.002  0.00  0.00     0.137 C 
ATOM     25  C1  <0> d          -0.019   1.526   0.010  0.00  0.00     0.027 C 
ENDBRANCH  23  24
BRANCH  23  26
ATOM     26  C3  <0> d          -0.028  -0.750   2.427  0.00  0.00     0.137 C 
ATOM     27  C4  <0> d          -0.511  -2.202   2.437  0.00  0.00     0.027 C 
ENDBRANCH  23  26
ENDBRANCH   1  23
TORSDOF 7
