REMARK  7 active torsions:
REMARK  status: ('A' for Active; 'I' for Inactive)
REMARK    1  A    between atoms: C6_6  and  C8_8 
REMARK    2  A    between atoms: C8_8  and  N2_35 
REMARK    3  A    between atoms: C11_11  and  C14_14 
REMARK    4  A    between atoms: C11_11  and  O4_32 
REMARK    5  A    between atoms: C21_21  and  C22_23 
REMARK       I    between atoms: C22_23  and  N1_25 
REMARK    6  A    between atoms: N1_25  and  C23_26 
REMARK    7  A    between atoms: C23_26  and  C24_27 
ROOT
ATOM      1  C14 <0> d          -2.945   1.622  -2.394  0.00  0.00    -0.023 A 
ATOM      2  C15 <0> d          -2.599   2.860  -2.920  0.00  0.00     0.013 A 
ATOM      3  C16 <0> d          -3.269   3.375  -4.009  0.00  0.00     0.039 A 
ATOM      4  C17 <0> d          -4.310   2.655  -4.585  0.00  0.00     0.086 A 
ATOM      5  C18 <0> d          -4.659   1.403  -4.045  0.00  0.00     0.001 A 
ATOM      6  C19 <0> d          -3.964   0.897  -2.944  0.00  0.00     0.024 A 
ATOM      7  C20 <0> d          -5.769   0.915  -4.862  0.00  0.00     0.057 A 
ATOM      8  C21 <0> d          -5.997   1.873  -5.798  0.00  0.00     0.144 A 
ATOM      9  O1  <0> d          -5.131   2.893  -5.625  0.00  0.00    -0.304 OA
ENDROOT
BRANCH   1  10
ATOM     10  C11 <0> d          -2.194   1.077  -1.207  0.00  0.00     0.088 C 
ATOM     11  C10 <0> d          -0.752   1.593  -1.232  0.00  0.00     0.071 C 
ATOM     12  C9  <0> d          -0.013   1.086   0.008  0.00  0.00     0.238 C 
ATOM     13  N2  <0> d          -0.701   1.589   1.216  0.00  0.00    -0.067 N 
ATOM     14  C13 <0> d          -2.071   1.038   1.287  0.00  0.00     0.238 C 
ATOM     15  H33 <0> d          -0.756   2.613   1.166  0.00  0.00     0.280 HD
ATOM     16  C12 <0> d          -2.872   1.544   0.085  0.00  0.00     0.071 C 
BRANCH  13  17
ATOM     17  C8  <0> d           0.059   1.209   2.425  0.00  0.00     0.273 C 
BRANCH  17  18
ATOM     18  C6  <0> d          -0.538   1.914   3.615  0.00  0.00    -0.032 A 
ATOM     19  C5  <0> d          -0.080   3.167   3.977  0.00  0.00     0.009 A 
ATOM     20  C4  <0> d          -0.630   3.816   5.067  0.00  0.00     0.001 A 
ATOM     21  C3  <0> d          -1.633   3.208   5.799  0.00  0.00     0.007 A 
ATOM     22  C2  <0> d          -2.088   1.953   5.440  0.00  0.00    -0.061 A 
ATOM     23  C1  <0> d          -3.181   1.290   6.238  0.00  0.00     0.048 C 
ATOM     24  C7  <0> d          -1.540   1.306   4.348  0.00  0.00     0.015 A 
ENDBRANCH  17  18
ENDBRANCH  13  17
BRANCH  10  25
ATOM     25  O4  <0> d          -2.192  -0.351  -1.256  0.00  0.00    -0.385 OA
ATOM     26  H32 <0> d          -3.074  -0.747  -1.243  0.00  0.00     0.211 HD
ENDBRANCH  10  25
ENDBRANCH   1  10
BRANCH   8  27
ATOM     27  C22 <0> d          -7.031   1.807  -6.840  0.00  0.00     0.275 C 
ATOM     28  O2  <0> d          -7.764   0.839  -6.910  0.00  0.00    -0.265 OA
ATOM     29  N1  <0> d          -7.167   2.820  -7.719  0.00  0.00    -0.353 N 
ATOM     30  H23 <0> d          -6.582   3.592  -7.663  0.00  0.00     0.162 HD
BRANCH  29  31
ATOM     31  C23 <0> d          -8.198   2.755  -8.758  0.00  0.00     0.155 C 
BRANCH  31  32
ATOM     32  C24 <0> d          -8.139   4.021  -9.615  0.00  0.00     0.139 C 
ATOM     33  O3  <0> d          -8.416   5.175  -8.803  0.00  0.00    -0.384 OA
ATOM     34  C27 <0> d          -9.124   6.117  -9.636  0.00  0.00     0.168 C 
ATOM     35  C26 <0> d         -10.086   5.221 -10.458  0.00  0.00     0.029 C 
ATOM     36  C25 <0> d          -9.219   3.963 -10.712  0.00  0.00     0.035 C 
ENDBRANCH  31  32
ENDBRANCH  29  31
ENDBRANCH   8  27
TORSDOF 7
