REMARK  3 active torsions:
REMARK  status: ('A' for Active; 'I' for Inactive)
REMARK    1  A    between atoms: C3_3  and  S2_6 
REMARK    2  A    between atoms: S2_6  and  N1_9 
REMARK    3  A    between atoms: N2_12  and  C9_15 
ROOT
ATOM      1  N1  <0> d           4.471   2.105   1.552  0.00  0.00    -0.303 N 
ATOM      2  C5  <0> d           4.237   3.359   2.283  0.00  0.00     0.155 C 
ATOM      3  C6  <0> d           3.451   3.042   3.561  0.00  0.00     0.143 C 
ATOM      4  N2  <0> d           4.115   1.930   4.257  0.00  0.00    -0.378 N 
ATOM      5  C7  <0> d           4.349   0.677   3.526  0.00  0.00     0.143 C 
ATOM      6  C8  <0> d           5.130   0.992   2.249  0.00  0.00     0.155 C 
ENDROOT
BRANCH   4   7
ATOM      7  C9  <0> d           4.517   2.063   5.590  0.00  0.00     0.032 A 
ATOM      8  C14 <0> d           5.033   0.970   6.271  0.00  0.00     0.061 A 
ATOM      9  C13 <0> d           5.435   1.109   7.589  0.00  0.00     0.073 A 
ATOM     10  C12 <0> d           5.312   2.340   8.233  0.00  0.00     0.107 A 
ATOM     11  N3  <0> d           5.982   0.225   8.520  0.00  0.00    -0.300 N 
ATOM     12  C11 <0> d           4.791   3.427   7.548  0.00  0.00     0.042 A 
ATOM     13  O4  <0> d           5.773   2.180   9.499  0.00  0.00    -0.259 OA
ATOM     14  C10 <0> d           4.395   3.290   6.233  0.00  0.00     0.032 A 
ATOM     15  C15 <0> d           6.173   0.910   9.665  0.00  0.00     0.370 A 
ATOM     16  O3  <0> d           6.637   0.448  10.690  0.00  0.00    -0.238 OA
ATOM     17  H1  <0> d           6.188  -0.711   8.370  0.00  0.00     0.171 HD
ENDBRANCH   4   7
BRANCH   1  18
ATOM     18  S2  <0> d           3.995   1.948  -0.026  0.00  0.00     0.267 S 
ATOM     19  O1  <0> d           4.806   0.929  -0.595  0.00  0.00    -0.200 OA
ATOM     20  O2  <0> d           3.932   3.261  -0.564  0.00  0.00    -0.200 OA
BRANCH  18  21
ATOM     21  C3  <0> d           2.345   1.329  -0.013  0.00  0.00     0.120 A 
ATOM     22  C2  <0> d           1.176   2.015   0.006  0.00  0.00     0.033 A 
ATOM     23  C1  <0> d          -0.014   1.313   0.013  0.00  0.00     0.009 A 
ATOM     24  C4  <0> d           0.023  -0.042  -0.000  0.00  0.00     0.051 A 
ATOM     25  S1  <0> d           1.779  -0.364  -0.023  0.00  0.00    -0.088 SA
ENDBRANCH  18  21
ENDBRANCH   1  18
TORSDOF 3
