REMARK  5 active torsions:
REMARK  status: ('A' for Active; 'I' for Inactive)
REMARK    1  A    between atoms: C5_5  and  C7_10 
REMARK       I    between atoms: C7_10  and  N2_12 
REMARK    2  A    between atoms: N2_12  and  C8_13 
REMARK    3  A    between atoms: C8_13  and  C10_15 
REMARK    4  A    between atoms: C14_19  and  S1_21 
REMARK    5  A    between atoms: S1_21  and  N3_24 
ROOT
ATOM      1  C8  <0> d           0.304  -6.346   1.186  0.00  0.00     0.114 C 
ATOM      2  C9  <0> d           1.772  -6.729   0.992  0.00  0.00     0.037 C 
ENDROOT
BRANCH   1   3
ATOM      3  N2  <0> d           0.174  -4.886   1.179  0.00  0.00    -0.348 N 
ATOM      4  C7  <0> d           0.058  -4.226   0.011  0.00  0.00     0.257 C 
ATOM      5  O2  <0> d          -0.033  -4.846  -1.032  0.00  0.00    -0.267 OA
ATOM      6  H8  <0> d           0.172  -4.396   2.016  0.00  0.00     0.163 HD
BRANCH   4   7
ATOM      7  C5  <0> d           0.042  -2.755  -0.004  0.00  0.00     0.100 A 
ATOM      8  C4  <0> d           0.044  -2.058  -1.211  0.00  0.00     0.025 A 
ATOM      9  C3  <0> d           0.028  -0.664  -1.185  0.00  0.00     0.026 A 
ATOM     10  C2  <0> d           0.009  -0.004   0.001  0.00  0.00     0.008 A 
ATOM     11  C1  <0> d          -0.009   1.503   0.009  0.00  0.00     0.068 C 
ATOM     12  N1  <0> d           0.012  -0.675   1.178  0.00  0.00    -0.327 N 
ATOM     13  C6  <0> d           0.022  -2.021   1.210  0.00  0.00     0.261 A 
ATOM     14  H1  <0> d           0.002  -0.178   2.011  0.00  0.00     0.169 HD
ATOM     15  O1  <0> d           0.020  -2.607   2.279  0.00  0.00    -0.267 OA
ENDBRANCH   4   7
ENDBRANCH   1   3
BRANCH   1  16
ATOM     16  C10 <0> d          -0.187  -6.888   2.504  0.00  0.00    -0.034 A 
ATOM     17  C15 <0> d          -0.930  -8.052   2.539  0.00  0.00     0.034 A 
ATOM     18  C14 <0> d          -1.376  -8.552   3.748  0.00  0.00     0.080 A 
ATOM     19  C13 <0> d          -1.087  -7.881   4.922  0.00  0.00     0.025 A 
ATOM     20  C12 <0> d          -0.348  -6.713   4.886  0.00  0.00     0.002 A 
ATOM     21  C11 <0> d           0.102  -6.216   3.678  0.00  0.00     0.009 A 
BRANCH  18  22
ATOM     22  S1  <0> d          -2.317 -10.040   3.794  0.00  0.00     0.260 S 
ATOM     23  O3  <0> d          -1.987 -10.766   2.617  0.00  0.00    -0.200 OA
ATOM     24  O4  <0> d          -2.153 -10.585   5.096  0.00  0.00    -0.200 OA
BRANCH  22  25
ATOM     25  N3  <0> d          -3.912  -9.616   3.656  0.00  0.00    -0.315 N 
ATOM     26  C16 <0> d          -4.533  -9.520   2.333  0.00  0.00     0.162 C 
ATOM     27  C17 <0> d          -4.702  -9.336   4.858  0.00  0.00     0.162 C 
ENDBRANCH  22  25
ENDBRANCH  18  22
ENDBRANCH   1  16
TORSDOF 5
