REMARK  3 active torsions:
REMARK  status: ('A' for Active; 'I' for Inactive)
REMARK    1  A    between atoms: C5_5  and  N1_9 
REMARK       I    between atoms: N1_9  and  C9_10 
REMARK    2  A    between atoms: C9_10  and  C10_12 
REMARK    3  A    between atoms: C14_16  and  N2_18 
ROOT
ATOM      1  C10 <0> d          -2.967  -1.796   1.867  0.00  0.00     0.034 A 
ATOM      2  C11 <0> d          -3.102  -2.608   0.739  0.00  0.00     0.019 A 
ATOM      3  C12 <0> d          -2.858  -2.092  -0.516  0.00  0.00     0.027 A 
ATOM      4  C13 <0> d          -2.481  -0.769  -0.664  0.00  0.00     0.062 A 
ATOM      5  C14 <0> d          -2.345   0.049   0.453  0.00  0.00     0.076 A 
ATOM      6  C15 <0> d          -2.582  -0.463   1.719  0.00  0.00     0.049 A 
ATOM      7 Cl1  <0> d          -2.176  -0.127  -2.248  0.00  0.00    -0.082 Cl
ENDROOT
BRANCH   1   8
ATOM      8  C9  <0> d          -3.227  -2.347   3.213  0.00  0.00     0.256 C 
ATOM      9  N1  <0> d          -3.593  -3.636   3.354  0.00  0.00    -0.322 N 
ATOM     10  H9  <0> d          -3.739  -4.188   2.570  0.00  0.00     0.169 HD
ATOM     11  O1  <0> d          -3.109  -1.637   4.193  0.00  0.00    -0.267 OA
BRANCH   9  12
ATOM     12  C5  <0> d          -3.765  -4.178   4.632  0.00  0.00     0.047 A 
ATOM     13  C4  <0> d          -4.943  -4.839   4.955  0.00  0.00    -0.034 A 
ATOM     14  C3  <0> d          -5.109  -5.374   6.217  0.00  0.00     0.015 A 
ATOM     15  C19 <0> d          -6.039  -4.972   3.929  0.00  0.00     0.050 C 
ATOM     16  C2  <0> d          -4.103  -5.252   7.159  0.00  0.00    -0.061 A 
ATOM     17  C1  <0> d          -4.288  -5.837   8.536  0.00  0.00     0.048 C 
ATOM     18  C7  <0> d          -2.929  -4.595   6.840  0.00  0.00     0.015 A 
ATOM     19  C6  <0> d          -2.755  -4.062   5.578  0.00  0.00    -0.034 A 
ATOM     20  C8  <0> d          -1.473  -3.351   5.230  0.00  0.00     0.050 C 
ENDBRANCH   9  12
ENDBRANCH   1   8
BRANCH   5  21
ATOM     21  N2  <0> d          -1.963   1.387   0.299  0.00  0.00    -0.207 N 
ATOM     22  S1  <0> d          -2.985   2.671  -0.031  0.00  0.00     0.240 S 
ATOM     23  C18 <0> d          -1.844   4.071   0.321  0.00  0.00     0.173 C 
ATOM     24  O3  <0> d          -3.272   2.588  -1.420  0.00  0.00    -0.205 OA
ATOM     25  O4  <0> d          -4.017   2.601   0.944  0.00  0.00    -0.205 OA
ATOM     26  C17 <0> d          -0.491   3.330   0.154  0.00  0.00     0.121 C 
ATOM     27  C16 <0> d          -0.714   1.867   0.389  0.00  0.00     0.238 C 
ATOM     28  O2  <0> d           0.215   1.133   0.654  0.00  0.00    -0.272 OA
ENDBRANCH   5  21
TORSDOF 3
