REMARK  7 active torsions:
REMARK  status: ('A' for Active; 'I' for Inactive)
REMARK    1  A    between atoms: C2_2  and  N1_3 
REMARK    2  A    between atoms: N1_3  and  C3_4 
REMARK    3  A    between atoms: N1_3  and  C5_6 
REMARK    4  A    between atoms: C8_9  and  C11_12 
REMARK    5  A    between atoms: N2_13  and  N3_14 
REMARK    6  A    between atoms: C14_19  and  C15_21 
REMARK    7  A    between atoms: C15_21  and  C16_22 
ROOT
ATOM      1  C11 <0> d          -3.971  -1.512   4.915  0.00  0.00     0.152 C 
ATOM      2  N2  <0> d          -3.318  -1.381   6.038  0.00  0.00    -0.159 NA
ENDROOT
BRANCH   2   3
ATOM      3  N3  <0> d          -2.110  -0.930   6.034  0.00  0.00    -0.125 NA
ATOM      4  C12 <0> d          -1.452  -0.798   7.166  0.00  0.00     0.191 A 
ATOM      5  S1  <0> d           0.214  -0.202   7.411  0.00  0.00    -0.075 SA
ATOM      6  N4  <0> d          -1.885  -1.093   8.442  0.00  0.00    -0.304 N 
ATOM      7  C14 <0> d           0.267  -0.362   9.244  0.00  0.00     0.157 A 
ATOM      8  C13 <0> d          -1.125  -0.915   9.508  0.00  0.00     0.238 A 
ATOM      9  O1  <0> d          -1.512  -1.177  10.627  0.00  0.00    -0.272 OA
ATOM     10  H17 <0> d          -2.781  -1.444   8.561  0.00  0.00     0.171 HD
BRANCH   7  11
ATOM     11  C15 <0> d           1.349  -1.352   9.679  0.00  0.00     0.138 C 
BRANCH  11  12
ATOM     12  C16 <0> d           2.706  -0.718   9.514  0.00  0.00     0.174 C 
ATOM     13  O2  <0> d           2.799   0.420   9.088  0.00  0.00    -0.648 OA
ATOM     14  O3  <0> d           3.711  -1.343   9.807  0.00  0.00    -0.648 OA
ENDBRANCH  11  12
ENDBRANCH   7  11
ENDBRANCH   2   3
BRANCH   1  15
ATOM     15  C8  <0> d          -3.304  -1.213   3.638  0.00  0.00    -0.017 A 
ATOM     16  C7  <0> d          -1.937  -0.919   3.613  0.00  0.00     0.015 A 
ATOM     17  C6  <0> d          -1.317  -0.640   2.415  0.00  0.00     0.030 A 
ATOM     18  C5  <0> d          -2.048  -0.650   1.232  0.00  0.00     0.030 A 
ATOM     19  C10 <0> d          -3.409  -0.937   1.253  0.00  0.00     0.030 A 
ATOM     20  C9  <0> d          -4.036  -1.223   2.446  0.00  0.00     0.015 A 
BRANCH  18  21
ATOM     21  N1  <0> d          -1.416  -0.367   0.021  0.00  0.00    -0.382 N 
BRANCH  21  22
ATOM     22  C2  <0> d           0.017  -0.064  -0.004  0.00  0.00     0.118 C 
ATOM     23  C1  <0> d           0.223   1.443   0.163  0.00  0.00     0.026 C 
ENDBRANCH  21  22
BRANCH  21  24
ATOM     24  C3  <0> d          -2.186  -0.371  -1.226  0.00  0.00     0.118 C 
ATOM     25  C4  <0> d          -2.161  -1.774  -1.835  0.00  0.00     0.026 C 
ENDBRANCH  21  24
ENDBRANCH  18  21
ENDBRANCH   1  15
TORSDOF 7
