REMARK  5 active torsions:
REMARK  status: ('A' for Active; 'I' for Inactive)
REMARK    1  A    between atoms: C3_3  and  C9_13 
REMARK    2  A    between atoms: C5_7  and  C7_10 
REMARK    3  A    between atoms: C7_10  and  C8_11 
REMARK    4  A    between atoms: C8_11  and  N3_12 
REMARK    5  A    between atoms: C13_17  and  N4_19 
ROOT
ATOM      1  C1  <0> d          -2.162   5.640  -1.401  0.00  0.00     0.071 C 
ATOM      2  C2  <0> d          -0.985   6.114  -0.587  0.00  0.00     0.045 A 
ATOM      3  C3  <0> d          -0.070   5.327   0.029  0.00  0.00     0.092 A 
ATOM      4  N1  <0> d           0.816   6.129   0.656  0.00  0.00    -0.221 NA
ATOM      5  C4  <0> d           0.487   7.369   0.441  0.00  0.00     0.178 A 
ATOM      6  N2  <0> d          -0.642   7.437  -0.333  0.00  0.00    -0.295 N 
ATOM      7  C5  <0> d          -1.114   8.695  -0.639  0.00  0.00     0.027 A 
ATOM      8  C6  <0> d          -0.489   9.785  -0.195  0.00  0.00     0.079 A 
ATOM      9  S1  <0> d           0.869   9.081   0.727  0.00  0.00    -0.061 SA
ENDROOT
BRANCH   3  10
ATOM     10  C9  <0> d          -0.050   3.844   0.022  0.00  0.00    -0.003 A 
ATOM     11  C14 <0> d           1.165   3.161   0.007  0.00  0.00     0.050 A 
ATOM     12  C13 <0> d           1.177   1.781   0.000  0.00  0.00     0.103 A 
ATOM     13  C12 <0> d          -0.013   1.076   0.008  0.00  0.00     0.036 A 
ATOM     14  C11 <0> d          -1.221   1.749   0.017  0.00  0.00     0.003 A 
ATOM     15  C10 <0> d          -1.246   3.128   0.030  0.00  0.00     0.014 A 
BRANCH  12  16
ATOM     16  N4  <0> d           2.467   1.054  -0.015  0.00  0.00    -0.116 N 
ATOM     17  O1  <0> d           2.479  -0.164  -0.021  0.00  0.00    -0.532 OA
ATOM     18  O2  <0> d           3.515   1.674  -0.021  0.00  0.00    -0.532 OA
ENDBRANCH  12  16
ENDBRANCH   3  10
BRANCH   7  19
ATOM     19  C7  <0> d          -2.352   8.841  -1.486  0.00  0.00     0.085 C 
BRANCH  19  20
ATOM     20  C8  <0> d          -1.949   9.032  -2.949  0.00  0.00     0.235 C 
BRANCH  20  21
ATOM     21  N3  <0> d          -3.155   9.174  -3.775  0.00  0.00    -0.079 N 
ATOM     22  H9  <0> d          -2.866   9.312  -4.827  0.00  0.00     0.274 HD
ATOM     23  H10 <0> d          -3.731  10.048  -3.436  0.00  0.00     0.274 HD
ATOM     24  H15 <0> d          -3.773   8.269  -3.680  0.00  0.00     0.274 HD
ENDBRANCH  20  21
ENDBRANCH  19  20
ENDBRANCH   7  19
TORSDOF 5
