REMARK  5 active torsions:
REMARK  status: ('A' for Active; 'I' for Inactive)
REMARK    1  A    between atoms: C2_2  and  N1_3 
REMARK    2  A    between atoms: N2_6  and  C7_9 
REMARK    3  A    between atoms: C7_9  and  C8_10 
REMARK    4  A    between atoms: C8_10  and  N3_11 
REMARK       I    between atoms: N3_11  and  C9_12 
REMARK    5  A    between atoms: C9_12  and  C10_14 
ROOT
ATOM      1  N3  <0> d           2.131  -4.629   5.971  0.00  0.00    -0.355 N 
ATOM      2  C9  <0> d           2.170  -5.956   6.204  0.00  0.00     0.258 C 
ATOM      3  O1  <0> d           1.576  -6.721   5.467  0.00  0.00    -0.267 OA
ATOM      4  H18 <0> d           2.542  -4.014   6.599  0.00  0.00     0.162 HD
ENDROOT
BRANCH   1   5
ATOM      5  C8  <0> d           1.468  -4.115   4.770  0.00  0.00     0.153 C 
BRANCH   5   6
ATOM      6  C7  <0> d           1.566  -2.589   4.747  0.00  0.00     0.292 C 
BRANCH   6   7
ATOM      7  N2  <0> d           0.900  -2.074   3.543  0.00  0.00     0.093 N 
ATOM      8  C4  <0> d           0.764  -0.611   3.601  0.00  0.00     0.300 C 
ATOM      9  C3  <0> d           0.016  -0.122   2.359  0.00  0.00     0.265 C 
ATOM     10  N1  <0> d           0.757  -0.515   1.153  0.00  0.00    -0.068 N 
ATOM     11  C6  <0> d           0.863  -1.979   1.097  0.00  0.00     0.265 C 
ATOM     12  H24 <0> d           1.682  -0.112   1.181  0.00  0.00     0.280 HD
ATOM     13  C5  <0> d           1.619  -2.483   2.328  0.00  0.00     0.300 C 
BRANCH  10  14
ATOM     14  C2  <0> d           0.047  -0.029  -0.038  0.00  0.00     0.230 C 
ATOM     15  C1  <0> d           0.045   1.501  -0.042  0.00  0.00     0.034 C 
ENDBRANCH  10  14
ENDBRANCH   6   7
ENDBRANCH   5   6
ENDBRANCH   1   5
BRANCH   2  16
ATOM     16  C10 <0> d           2.929  -6.478   7.347  0.00  0.00     0.117 A 
ATOM     17  C13 <0> d           3.525  -5.596   8.278  0.00  0.00     0.266 A 
ATOM     18  N5  <0> d           4.245  -6.098   9.327  0.00  0.00    -0.291 N 
ATOM     19  O2  <0> d           3.392  -4.391   8.149  0.00  0.00    -0.267 OA
ATOM     20  C12 <0> d           4.311  -7.457   9.442  0.00  0.00     0.171 A 
ATOM     21  C14 <0> d           4.968  -5.293  10.319  0.00  0.00     0.145 C 
ATOM     22  N4  <0> d           3.764  -8.286   8.576  0.00  0.00    -0.235 NA
ATOM     23  S1  <0> d           5.240  -7.786  10.929  0.00  0.00    -0.090 SA
ATOM     24  C11 <0> d           3.080  -7.854   7.529  0.00  0.00     0.142 A 
ATOM     25  C15 <0> d           5.233  -6.080  11.623  0.00  0.00     0.103 C 
ENDBRANCH   2  16
TORSDOF 5
