REMARK  2 active torsions:
REMARK  status: ('A' for Active; 'I' for Inactive)
REMARK    1  A    between atoms: C2_2  and  N1_9 
REMARK       I    between atoms: N1_9  and  C6_10 
REMARK    2  A    between atoms: C6_10  and  C7_12 
ROOT
ATOM      1  N1  <0> d          -1.378  -0.491   0.059  0.00  0.00    -0.351 N 
ATOM      2  C6  <0> d          -2.254  -0.148  -0.907  0.00  0.00     0.223 C 
ATOM      3  O3  <0> d          -1.899   0.564  -1.822  0.00  0.00    -0.273 OA
ATOM      4  H11 <0> d          -1.662  -1.060   0.791  0.00  0.00     0.163 HD
ENDROOT
BRANCH   1   5
ATOM      5  C2  <0> d           0.002  -0.004   0.002  0.00  0.00     0.043 C 
ATOM      6  C1  <0> d          -0.019   1.526   0.010  0.00  0.00     0.039 C 
ATOM      7  C5  <0> d           0.751  -0.495   1.257  0.00  0.00     0.170 C 
ATOM      8  S1  <0> d           2.220  -1.358   0.560  0.00  0.00     0.146 S 
ATOM      9  C4  <0> d           2.169  -0.637  -1.140  0.00  0.00     0.143 C 
ATOM     10  O1  <0> d           3.389  -0.902   1.226  0.00  0.00    -0.228 OA
ATOM     11  O2  <0> d           1.952  -2.752   0.484  0.00  0.00    -0.228 OA
ATOM     12  C3  <0> d           0.632  -0.478  -1.307  0.00  0.00     0.046 C 
ENDBRANCH   1   5
BRANCH   2  13
ATOM     13  C7  <0> d          -3.674  -0.649  -0.849  0.00  0.00     0.088 C 
ATOM     14  C11 <0> d          -3.683  -2.179  -0.886  0.00  0.00     0.117 C 
ATOM     15  C10 <0> d          -5.082  -2.677  -1.108  0.00  0.00     0.220 C 
ATOM     16  N2  <0> d          -6.070  -1.913  -1.577  0.00  0.00    -0.356 N 
ATOM     17  O4  <0> d          -5.327  -3.836  -0.847  0.00  0.00    -0.273 OA
ATOM     18  C9  <0> d          -5.929  -0.496  -1.889  0.00  0.00     0.126 C 
ATOM     19  C12 <0> d          -7.377  -2.538  -1.793  0.00  0.00     0.152 C 
ATOM     20  C8  <0> d          -4.455  -0.130  -2.062  0.00  0.00     0.034 C 
ENDBRANCH   2  13
TORSDOF 2
