REMARK  5 active torsions:
REMARK  status: ('A' for Active; 'I' for Inactive)
REMARK    1  A    between atoms: C3_3  and  S1_8 
REMARK    2  A    between atoms: S1_8  and  N3_11 
REMARK    3  A    between atoms: N3_11  and  C5_12 
REMARK    4  A    between atoms: C5_12  and  C6_13 
REMARK    5  A    between atoms: C6_13  and  N4_16 
ROOT
ATOM      1  N3  <0> d          -2.155   1.383  -0.806  0.00  0.00    -0.313 N 
ATOM      2  H6  <0> d          -2.939   1.873  -0.512  0.00  0.00     0.172 HD
ENDROOT
BRANCH   1   3
ATOM      3  S1  <0> d          -1.154   0.676   0.307  0.00  0.00     0.262 S 
ATOM      4  O1  <0> d          -0.990  -0.676  -0.095  0.00  0.00    -0.200 OA
ATOM      5  O2  <0> d          -1.655   1.035   1.588  0.00  0.00    -0.200 OA
BRANCH   3   6
ATOM      6  C3  <0> d           0.424   1.444   0.150  0.00  0.00     0.122 A 
ATOM      7  C2  <0> d           0.708   2.740   0.413  0.00  0.00     0.048 A 
ATOM      8  C1  <0> d          -0.267   3.785   0.892  0.00  0.00     0.071 C 
ATOM      9  N2  <0> d           2.021   2.932   0.165  0.00  0.00    -0.281 N 
ATOM     10  N1  <0> d           2.563   1.711  -0.256  0.00  0.00    -0.185 NA
ATOM     11  H1  <0> d           2.504   3.768   0.264  0.00  0.00     0.189 HD
ATOM     12  C4  <0> d           1.604   0.821  -0.268  0.00  0.00     0.165 A 
ENDBRANCH   3   6
ENDBRANCH   1   3
BRANCH   1  13
ATOM     13  C5  <0> d          -1.857   1.268  -2.236  0.00  0.00     0.173 C 
BRANCH  13  14
ATOM     14  C6  <0> d          -3.092   1.666  -3.048  0.00  0.00     0.169 C 
ATOM     15  C7  <0> d          -3.451   3.123  -2.750  0.00  0.00     0.050 C 
ATOM     16  C8  <0> d          -2.793   1.510  -4.540  0.00  0.00     0.050 C 
BRANCH  14  17
ATOM     17  N4  <0> d          -4.219   0.799  -2.681  0.00  0.00     0.102 N 
ATOM     18  C12 <0> d          -5.420   1.139  -3.457  0.00  0.00     0.301 C 
ATOM     19  C11 <0> d          -6.584   0.256  -3.004  0.00  0.00     0.264 C 
ATOM     20  N5  <0> d          -6.235  -1.156  -3.205  0.00  0.00    -0.072 N 
ATOM     21  C10 <0> d          -5.049  -1.488  -2.405  0.00  0.00     0.264 C 
ATOM     22  C13 <0> d          -7.360  -2.003  -2.787  0.00  0.00     0.269 C 
ATOM     23  H26 <0> d          -6.037  -1.318  -4.181  0.00  0.00     0.279 HD
ATOM     24  C9  <0> d          -3.871  -0.619  -2.853  0.00  0.00     0.301 C 
ENDBRANCH  14  17
ENDBRANCH  13  14
ENDBRANCH   1  13
TORSDOF 5
