REMARK  4 active torsions:
REMARK  status: ('A' for Active; 'I' for Inactive)
REMARK    1  A    between atoms: C5_5  and  N1_9 
REMARK       I    between atoms: N1_9  and  C9_10 
REMARK    2  A    between atoms: C9_10  and  C10_12 
REMARK    3  A    between atoms: C10_12  and  N2_13 
REMARK    4  A    between atoms: C12_16  and  C15_21 
ROOT
ATOM      1  N2  <0> d           2.066   1.549   1.585  0.00  0.00    -0.259 N 
ATOM      2  C11 <0> d           2.902   0.550   1.238  0.00  0.00     0.261 A 
ATOM      3  O2  <0> d           3.019   0.041   0.144  0.00  0.00    -0.270 OA
ATOM      4  C12 <0> d           3.664   0.197   2.499  0.00  0.00     0.140 A 
ATOM      5  N3  <0> d           3.118   1.124   3.505  0.00  0.00    -0.321 N 
ATOM      6  C13 <0> d           2.197   1.875   2.876  0.00  0.00     0.326 A 
ATOM      7  O3  <0> d           1.552   2.750   3.420  0.00  0.00    -0.247 OA
ATOM      8  C14 <0> d           3.395  -1.254   2.902  0.00  0.00     0.054 C 
ATOM      9  H12 <0> d           3.376   1.184   4.438  0.00  0.00     0.165 HD
ENDROOT
BRANCH   1  10
ATOM     10  C10 <0> d           1.134   2.201   0.661  0.00  0.00     0.240 C 
BRANCH  10  11
ATOM     11  C9  <0> d          -0.184   1.471   0.680  0.00  0.00     0.240 C 
ATOM     12  N1  <0> d          -1.199   1.892  -0.101  0.00  0.00    -0.325 N 
ATOM     13  H9  <0> d          -1.099   2.698  -0.633  0.00  0.00     0.169 HD
ATOM     14  O1  <0> d          -0.331   0.502   1.395  0.00  0.00    -0.271 OA
BRANCH  12  15
ATOM     15  C5  <0> d          -2.395   1.168  -0.145  0.00  0.00     0.046 A 
ATOM     16  C4  <0> d          -3.607   1.812   0.071  0.00  0.00    -0.034 A 
ATOM     17  C3  <0> d          -4.786   1.094   0.027  0.00  0.00     0.015 A 
ATOM     18  C21 <0> d          -3.635   3.292   0.353  0.00  0.00     0.050 C 
ATOM     19  C2  <0> d          -4.761  -0.264  -0.233  0.00  0.00    -0.061 A 
ATOM     20  C1  <0> d          -6.049  -1.044  -0.280  0.00  0.00     0.048 C 
ATOM     21  C7  <0> d          -3.556  -0.908  -0.449  0.00  0.00     0.015 A 
ATOM     22  C6  <0> d          -2.374  -0.195  -0.411  0.00  0.00    -0.034 A 
ATOM     23  C8  <0> d          -1.062  -0.896  -0.653  0.00  0.00     0.050 C 
ENDBRANCH  12  15
ENDBRANCH  10  11
ENDBRANCH   1  10
BRANCH   4  24
ATOM     24  C15 <0> d           5.141   0.430   2.309  0.00  0.00    -0.021 A 
ATOM     25  C20 <0> d           5.930   0.780   3.389  0.00  0.00     0.012 A 
ATOM     26  C19 <0> d           7.284   0.995   3.216  0.00  0.00     0.024 A 
ATOM     27  C18 <0> d           7.850   0.858   1.961  0.00  0.00     0.034 A 
ATOM     28  C17 <0> d           7.061   0.508   0.880  0.00  0.00     0.024 A 
ATOM     29 Cl1  <0> d           9.552   1.127   1.742  0.00  0.00    -0.084 Cl
ATOM     30  C16 <0> d           5.707   0.288   1.056  0.00  0.00     0.012 A 
ENDBRANCH   4  24
TORSDOF 4
