REMARK  5 active torsions:
REMARK  status: ('A' for Active; 'I' for Inactive)
REMARK    1  A    between atoms: C3_3  and  C10_12 
REMARK    2  A    between atoms: N1_5  and  C5_7 
REMARK    3  A    between atoms: C5_7  and  C6_8 
REMARK    4  A    between atoms: C10_12  and  C11_13 
REMARK       I    between atoms: C11_13  and  N3_15 
REMARK    5  A    between atoms: N3_15  and  C12_16 
ROOT
ATOM      1  C11 <0> d           1.410  -0.223  -3.071  0.00  0.00     0.222 C 
ATOM      2  O1  <0> d           2.339  -0.512  -2.347  0.00  0.00    -0.273 OA
ATOM      3  N3  <0> d           1.644   0.256  -4.309  0.00  0.00    -0.348 N 
ATOM      4  H19 <0> d           0.900   0.487  -4.888  0.00  0.00     0.163 HD
ENDROOT
BRANCH   1   5
ATOM      5  C10 <0> d          -0.006  -0.402  -2.587  0.00  0.00     0.145 C 
BRANCH   5   6
ATOM      6  C3  <0> d           0.008  -0.948  -1.182  0.00  0.00     0.000 A 
ATOM      7  C2  <0> d           0.023  -0.192  -0.005  0.00  0.00     0.059 A 
ATOM      8  C1  <0> d           0.029   1.312   0.078  0.00  0.00     0.073 C 
ATOM      9  N2  <0> d           0.037  -1.017   1.010  0.00  0.00    -0.177 NA
ATOM     10  N1  <0> d           0.023  -2.326   0.511  0.00  0.00    -0.273 N 
ATOM     11  C4  <0> d           0.008  -2.256  -0.837  0.00  0.00     0.035 A 
ATOM     12  C9  <0> d          -0.006  -3.426  -1.787  0.00  0.00     0.070 C 
BRANCH  10  13
ATOM     13  C5  <0> d           0.028  -3.554   1.310  0.00  0.00     0.155 C 
BRANCH  13  14
ATOM     14  C6  <0> d           1.472  -3.985   1.573  0.00  0.00    -0.003 C 
ATOM     15  C7  <0> d           2.168  -2.934   2.440  0.00  0.00     0.011 C 
ATOM     16  C8  <0> d           1.478  -5.331   2.300  0.00  0.00     0.011 C 
ENDBRANCH  13  14
ENDBRANCH  10  13
ENDBRANCH   5   6
ENDBRANCH   1   5
BRANCH   3  17
ATOM     17  C12 <0> d           3.020   0.429  -4.779  0.00  0.00     0.176 C 
ATOM     18  C17 <0> d           3.599  -0.916  -5.164  0.00  0.00     0.240 C 
ATOM     19  N4  <0> d           2.906  -1.740  -5.957  0.00  0.00    -0.359 N 
ATOM     20  O2  <0> d           4.694  -1.241  -4.757  0.00  0.00    -0.271 OA
ATOM     21  C16 <0> d           1.574  -1.356  -6.451  0.00  0.00     0.122 C 
ATOM     22  H28 <0> d           3.284  -2.598  -6.206  0.00  0.00     0.162 HD
ATOM     23  C15 <0> d           1.739  -0.261  -7.506  0.00  0.00     0.020 C 
ATOM     24  C14 <0> d           1.794   1.111  -6.859  0.00  0.00     0.004 C 
ATOM     25  C13 <0> d           3.032   1.339  -6.011  0.00  0.00     0.035 C 
ENDBRANCH   3  17
TORSDOF 5
