REMARK  4 active torsions:
REMARK  status: ('A' for Active; 'I' for Inactive)
REMARK    1  A    between atoms: C6_7  and  S1_11 
REMARK    2  A    between atoms: S1_11  and  C9_12 
REMARK    3  A    between atoms: C9_12  and  C11_14 
REMARK    4  A    between atoms: C12_17  and  C13_19 
ROOT
ATOM      1  C9  <0> d           2.920  -4.166   1.458  0.00  0.00     0.097 C 
ATOM      2  C10 <0> d           2.891  -2.846   2.232  0.00  0.00     0.026 C 
ENDROOT
BRANCH   1   3
ATOM      3  S1  <0> d           1.567  -5.231   2.029  0.00  0.00    -0.114 SA
BRANCH   3   4
ATOM      4  C6  <0> d           0.067  -4.335   1.542  0.00  0.00     0.247 A 
ATOM      5  N1  <0> d           0.057  -4.120   0.090  0.00  0.00    -0.359 N 
ATOM      6  C5  <0> d           0.040  -2.834  -0.114  0.00  0.00     0.057 A 
ATOM      7  H19 <0> d           0.062  -4.809  -0.593  0.00  0.00     0.162 HD
ATOM      8  C4  <0> d           0.022  -2.017  -1.335  0.00  0.00     0.032 A 
ATOM      9  C7  <0> d           0.037  -2.127   1.195  0.00  0.00     0.057 A 
ATOM     10  C3  <0> d           0.005  -0.672  -1.235  0.00  0.00     0.009 A 
ATOM     11  C2  <0> d           0.002  -0.004   0.002  0.00  0.00    -0.060 A 
ATOM     12  C1  <0> d          -0.018   1.503   0.010  0.00  0.00     0.048 C 
ATOM     13  C8  <0> d           0.022  -0.657   1.181  0.00  0.00     0.038 A 
ATOM     14  N2  <0> d           0.053  -3.002   2.159  0.00  0.00    -0.359 N 
ATOM     15  H20 <0> d           0.055  -2.810   3.109  0.00  0.00     0.162 HD
ENDBRANCH   3   4
ENDBRANCH   1   3
BRANCH   1  16
ATOM     16  C11 <0> d           4.258  -4.868   1.696  0.00  0.00     0.260 A 
ATOM     17  O1  <0> d           4.338  -6.073   0.920  0.00  0.00    -0.304 OA
ATOM     18  C12 <0> d           5.387  -5.941   0.069  0.00  0.00     0.195 A 
ATOM     19  N4  <0> d           5.990  -4.807   0.202  0.00  0.00    -0.151 NA
ATOM     20  N3  <0> d           5.371  -4.040   1.200  0.00  0.00    -0.281 N 
ATOM     21  H13 <0> d           5.622  -3.152   1.500  0.00  0.00     0.185 HD
BRANCH  18  22
ATOM     22  C13 <0> d           5.793  -6.980  -0.901  0.00  0.00     0.018 A 
ATOM     23  C18 <0> d           6.888  -6.765  -1.741  0.00  0.00     0.016 A 
ATOM     24  C17 <0> d           7.265  -7.741  -2.639  0.00  0.00     0.001 A 
ATOM     25  C16 <0> d           6.555  -8.926  -2.717  0.00  0.00     0.000 A 
ATOM     26  C15 <0> d           5.466  -9.143  -1.892  0.00  0.00     0.001 A 
ATOM     27  C14 <0> d           5.082  -8.178  -0.985  0.00  0.00     0.016 A 
ENDBRANCH  18  22
ENDBRANCH   1  16
TORSDOF 4
