REMARK  5 active torsions:
REMARK  status: ('A' for Active; 'I' for Inactive)
REMARK    1  A    between atoms: C2_2  and  C3_3 
REMARK    2  A    between atoms: C3_3  and  N1_4 
REMARK    3  A    between atoms: C5_7  and  C15_20 
REMARK       I    between atoms: C15_20  and  N5_22 
REMARK    4  A    between atoms: N5_22  and  C16_23 
REMARK    5  A    between atoms: C16_23  and  C17_24 
ROOT
ATOM      1  N1  <0> d          -0.001  -0.019  -0.153  0.00  0.00    -0.316 N 
ATOM      2  C4  <0> d           0.016  -0.824  -1.272  0.00  0.00     0.118 A 
ATOM      3  N2  <0> d           0.011  -0.289  -2.467  0.00  0.00    -0.384 N 
ATOM      4  C5  <0> d           0.045  -2.286  -1.117  0.00  0.00     0.076 A 
ATOM      5  C6  <0> d           0.044  -2.829   0.160  0.00  0.00     0.042 A 
ATOM      6  C7  <0> d           0.021  -1.974   1.272  0.00  0.00     0.080 A 
ATOM      7  C8  <0> d          -0.001  -0.571   1.104  0.00  0.00     0.149 A 
ATOM      8  N3  <0> d          -0.023   0.211   2.175  0.00  0.00    -0.212 NA
ATOM      9  C9  <0> d          -0.024  -0.293   3.410  0.00  0.00     0.139 A 
ATOM     10  C10 <0> d          -0.047   0.589   4.506  0.00  0.00     0.051 A 
ATOM     11  C11 <0> d          -0.050   0.086   5.773  0.00  0.00     0.005 A 
ATOM     12  C12 <0> d          -0.029  -1.301   5.967  0.00  0.00     0.018 A 
ATOM     13  C13 <0> d          -0.006  -2.134   4.902  0.00  0.00     0.102 A 
ATOM     14  N4  <0> d          -0.003  -1.642   3.631  0.00  0.00    -0.273 N 
ATOM     15  C14 <0> d           0.019  -2.502   2.589  0.00  0.00     0.267 A 
ATOM     16  O1  <0> d           0.038  -3.706   2.777  0.00  0.00    -0.267 OA
ATOM     17  H8  <0> d           0.024  -0.933  -3.358  0.00  0.00     0.157 HD
ATOM     18  H24 <0> d          -0.008   0.805  -2.580  0.00  0.00     0.157 HD
ENDROOT
BRANCH   4  19
ATOM     19  C15 <0> d           0.069  -3.159  -2.296  0.00  0.00     0.255 C 
ATOM     20  O2  <0> d          -0.035  -2.680  -3.410  0.00  0.00    -0.268 OA
ATOM     21  N5  <0> d           0.207  -4.491  -2.146  0.00  0.00    -0.353 N 
ATOM     22  H14 <0> d           0.302  -4.924  -1.139  0.00  0.00     0.163 HD
BRANCH  21  23
ATOM     23  C16 <0> d           0.232  -5.362  -3.324  0.00  0.00     0.161 C 
BRANCH  23  24
ATOM     24  C17 <0> d           0.394  -6.795  -2.885  0.00  0.00    -0.041 A 
ATOM     25  C22 <0> d          -0.721  -7.568  -2.622  0.00  0.00     0.009 A 
ATOM     26  C21 <0> d          -0.572  -8.882  -2.220  0.00  0.00     0.007 A 
ATOM     27  C20 <0> d           0.693  -9.423  -2.081  0.00  0.00    -0.062 A 
ATOM     28  C19 <0> d           1.808  -8.650  -2.344  0.00  0.00     0.007 A 
ATOM     29  C23 <0> d           0.856 -10.856  -1.643  0.00  0.00     0.048 C 
ATOM     30  C18 <0> d           1.659  -7.337  -2.751  0.00  0.00     0.009 A 
ENDBRANCH  23  24
ENDBRANCH  21  23
ENDBRANCH   4  19
BRANCH   1  31
ATOM     31  C3  <0> d          -0.025   1.438  -0.307  0.00  0.00     0.132 C 
BRANCH  31  32
ATOM     32  C2  <0> d           1.409   1.970  -0.349  0.00  0.00     0.016 C 
ATOM     33  C1  <0> d           1.383   3.492  -0.509  0.00  0.00     0.006 C 
ENDBRANCH  31  32
ENDBRANCH   1  31
TORSDOF 5
