REMARK  5 active torsions:
REMARK  status: ('A' for Active; 'I' for Inactive)
REMARK    1  A    between atoms: N1_9  and  C8_12 
REMARK    2  A    between atoms: C8_12  and  C9_13 
REMARK    3  A    between atoms: C9_13  and  C10_14 
REMARK       I    between atoms: C10_14  and  N3_16 
REMARK    4  A    between atoms: N3_16  and  C11_17 
REMARK    5  A    between atoms: C11_17  and  C13_19 
ROOT
ATOM      1  C9  <0> d          -1.384  -0.501   5.485  0.00  0.00     0.123 C 
ENDROOT
BRANCH   1   2
ATOM      2  C8  <0> d           0.056  -0.652   4.991  0.00  0.00     0.142 C 
BRANCH   2   3
ATOM      3  N1  <0> d           0.051  -1.142   3.611  0.00  0.00    -0.307 N 
ATOM      4  C6  <0> d           0.029  -0.257   2.597  0.00  0.00     0.262 A 
ATOM      5  C5  <0> d           0.024  -0.745   1.250  0.00  0.00     0.075 A 
ATOM      6  O1  <0> d           0.014   0.942   2.821  0.00  0.00    -0.267 OA
ATOM      7  C2  <0> d           0.002  -0.004   0.002  0.00  0.00    -0.031 A 
ATOM      8  C4  <0> d           0.037  -2.144   1.110  0.00  0.00     0.115 A 
ATOM      9  C1  <0> d          -0.018   1.503   0.010  0.00  0.00     0.050 C 
ATOM     10  C3  <0> d           0.006  -0.677  -1.160  0.00  0.00    -0.012 A 
ATOM     11  S1  <0> d           0.032  -2.385  -0.648  0.00  0.00    -0.074 SA
ATOM     12  C18 <0> d          -0.009  -0.122  -2.561  0.00  0.00     0.057 C 
ATOM     13  N2  <0> d           0.053  -2.956   2.163  0.00  0.00    -0.235 NA
ATOM     14  C7  <0> d           0.068  -2.480   3.380  0.00  0.00     0.213 A 
ENDBRANCH   2   3
ENDBRANCH   1   2
BRANCH   1  15
ATOM     15  C10 <0> d          -1.379   0.003   6.905  0.00  0.00     0.219 C 
ATOM     16  O2  <0> d          -0.326   0.220   7.467  0.00  0.00    -0.274 OA
ATOM     17  N3  <0> d          -2.543   0.212   7.550  0.00  0.00    -0.353 N 
ATOM     18  H10 <0> d          -3.385   0.038   7.101  0.00  0.00     0.163 HD
BRANCH  17  19
ATOM     19  C11 <0> d          -2.538   0.702   8.931  0.00  0.00     0.117 C 
ATOM     20  C12 <0> d          -2.387  -0.480   9.891  0.00  0.00     0.037 C 
BRANCH  19  21
ATOM     21  C13 <0> d          -3.833   1.418   9.215  0.00  0.00     0.007 A 
ATOM     22  C15 <0> d          -4.023   2.379  10.148  0.00  0.00     0.036 A 
ATOM     23  N5  <0> d          -5.315   2.764  10.085  0.00  0.00    -0.278 N 
ATOM     24  C16 <0> d          -2.979   2.925  11.088  0.00  0.00     0.070 C 
ATOM     25  N4  <0> d          -5.941   2.009   9.085  0.00  0.00    -0.184 NA
ATOM     26  C17 <0> d          -5.952   3.787  10.918  0.00  0.00     0.179 C 
ATOM     27  C14 <0> d          -5.052   1.202   8.565  0.00  0.00     0.150 A 
ENDBRANCH  19  21
ENDBRANCH  17  19
ENDBRANCH   1  15
TORSDOF 5
