REMARK  4 active torsions:
REMARK  status: ('A' for Active; 'I' for Inactive)
REMARK    1  A    between atoms: C5_6  and  N2_8 
REMARK    2  A    between atoms: N2_8  and  C7_9 
REMARK    3  A    between atoms: C7_9  and  C8_10 
REMARK    4  A    between atoms: C7_9  and  C13_16 
ROOT
ATOM      1  C7  <0> d          -0.003  -2.150   3.649  0.00  0.00     0.152 C 
ENDROOT
BRANCH   1   2
ATOM      2  N2  <0> d           0.115  -2.752   2.319  0.00  0.00    -0.363 N 
ATOM      3  H9  <0> d           0.198  -3.715   2.229  0.00  0.00     0.162 HD
BRANCH   2   4
ATOM      4  C5  <0> d           0.106  -1.946   1.187  0.00  0.00     0.102 A 
ATOM      5  N1  <0> d           0.213  -2.497  -0.012  0.00  0.00    -0.353 N 
ATOM      6  C4  <0> d           0.208  -1.767  -1.111  0.00  0.00     0.090 A 
ATOM      7  H21 <0> d           0.295  -3.461  -0.084  0.00  0.00     0.166 HD
ATOM      8  C3  <0> d           0.093  -0.393  -1.049  0.00  0.00     0.024 A 
ATOM      9  C2  <0> d          -0.021   0.224   0.190  0.00  0.00    -0.057 A 
ATOM     10  C1  <0> d          -0.148   1.722   0.295  0.00  0.00     0.048 C 
ATOM     11  C6  <0> d          -0.008  -0.566   1.325  0.00  0.00     0.054 A 
ENDBRANCH   2   4
ENDBRANCH   1   2
BRANCH   1  12
ATOM     12  C8  <0> d          -1.458  -1.946   3.982  0.00  0.00    -0.028 A 
ATOM     13  C12 <0> d          -1.874  -0.832   4.696  0.00  0.00     0.029 A 
ATOM     14  C11 <0> d          -3.218  -0.676   4.977  0.00  0.00     0.117 A 
ATOM     15  N3  <0> d          -4.099  -1.576   4.585  0.00  0.00    -0.273 NA
ATOM     16  C10 <0> d          -3.739  -2.650   3.909  0.00  0.00     0.117 A 
ATOM     17  C9  <0> d          -2.413  -2.870   3.586  0.00  0.00     0.029 A 
ENDBRANCH   1  12
BRANCH   1  18
ATOM     18  C13 <0> d           0.623  -3.063   4.672  0.00  0.00     0.004 A 
ATOM     19  C16 <0> d           0.441  -4.513   4.773  0.00  0.00     0.001 A 
ATOM     20  C15 <0> d           1.218  -4.927   5.870  0.00  0.00     0.043 A 
ATOM     21  C17 <0> d          -0.291  -5.452   4.043  0.00  0.00     0.014 A 
ATOM     22  N4  <0> d           1.815  -3.801   6.393  0.00  0.00    -0.359 N 
ATOM     23  C20 <0> d           1.249  -6.274   6.213  0.00  0.00     0.030 A 
ATOM     24  C14 <0> d           1.449  -2.701   5.667  0.00  0.00     0.015 A 
ATOM     25  H2  <0> d           2.406  -3.790   7.161  0.00  0.00     0.166 HD
ATOM     26  C21 <0> d           1.905  -1.291   5.942  0.00  0.00     0.069 C 
ATOM     27  C19 <0> d           0.512  -7.183   5.485  0.00  0.00     0.002 A 
ATOM     28  C18 <0> d          -0.250  -6.770   4.402  0.00  0.00     0.001 A 
ENDBRANCH   1  18
TORSDOF 4
