REMARK  5 active torsions:
REMARK  status: ('A' for Active; 'I' for Inactive)
REMARK    1  A    between atoms: N1_2  and  C2_3 
REMARK    2  A    between atoms: N1_2  and  C11_16 
REMARK    3  A    between atoms: C2_3  and  C3_4 
REMARK    4  A    between atoms: C11_16  and  C12_17 
REMARK       I    between atoms: C12_17  and  N4_19 
REMARK    5  A    between atoms: N4_19  and  C13_20 
ROOT
ATOM      1  C1  <0> d          -0.018   1.465   0.010  0.00  0.00     0.310 C 
ATOM      2  N1  <0> d           0.002  -0.004   0.002  0.00  0.00     0.100 N 
ENDROOT
BRANCH   2   3
ATOM      3  C2  <0> d           0.706  -0.527   1.180  0.00  0.00     0.350 C 
BRANCH   3   4
ATOM      4  C3  <0> d          -0.073  -0.186   2.424  0.00  0.00     0.136 A 
ATOM      5  N3  <0> d          -1.182   0.476   2.293  0.00  0.00    -0.233 NA
ATOM      6  C10 <0> d          -1.939   0.815   3.367  0.00  0.00     0.074 A 
ATOM      7  C5  <0> d          -1.502   0.444   4.658  0.00  0.00     0.061 A 
ATOM      8  C9  <0> d          -3.135   1.522   3.227  0.00  0.00     0.032 A 
ATOM      9  C4  <0> d          -0.239  -0.301   4.771  0.00  0.00     0.259 A 
ATOM     10  C6  <0> d          -2.260   0.784   5.776  0.00  0.00     0.019 A 
ATOM     11  N2  <0> d           0.423  -0.583   3.625  0.00  0.00    -0.309 N 
ATOM     12  O1  <0> d           0.194  -0.651   5.854  0.00  0.00    -0.267 OA
ATOM     13  H1  <0> d           1.259  -1.073   3.661  0.00  0.00     0.170 HD
ATOM     14  C7  <0> d          -3.436   1.482   5.612  0.00  0.00     0.001 A 
ATOM     15  C8  <0> d          -3.869   1.849   4.345  0.00  0.00     0.002 A 
ENDBRANCH   3   4
ENDBRANCH   2   3
BRANCH   2  16
ATOM     16  C11 <0> d           0.600  -0.516  -1.239  0.00  0.00     0.374 C 
BRANCH  16  17
ATOM     17  C12 <0> d          -0.286  -0.163  -2.406  0.00  0.00     0.246 C 
ATOM     18  O2  <0> d          -1.314   0.454  -2.222  0.00  0.00    -0.272 OA
ATOM     19  N4  <0> d           0.064  -0.533  -3.653  0.00  0.00    -0.351 N 
ATOM     20  H14 <0> d           0.886  -1.026  -3.800  0.00  0.00     0.163 HD
BRANCH  19  21
ATOM     21  C13 <0> d          -0.797  -0.190  -4.788  0.00  0.00     0.118 C 
ATOM     22  C18 <0> d          -0.475   1.207  -5.251  0.00  0.00    -0.029 A 
ATOM     23  C17 <0> d          -0.384   1.544  -6.583  0.00  0.00    -0.050 A 
ATOM     24  C19 <0> d          -0.268   2.179  -4.281  0.00  0.00     0.010 A 
ATOM     25  C16 <0> d          -0.588   0.541  -7.689  0.00  0.00     0.039 C 
ATOM     26  C22 <0> d          -0.090   2.853  -6.943  0.00  0.00     0.007 A 
ATOM     27  C15 <0> d          -1.310  -0.698  -7.163  0.00  0.00     0.007 C 
ATOM     28  C14 <0> d          -0.570  -1.195  -5.915  0.00  0.00     0.030 C 
ATOM     29  C21 <0> d           0.114   3.816  -5.979  0.00  0.00     0.001 A 
ATOM     30  C20 <0> d           0.025   3.478  -4.642  0.00  0.00     0.001 A 
ENDBRANCH  19  21
ENDBRANCH  16  17
ENDBRANCH   2  16
TORSDOF 5
