REMARK  7 active torsions:
REMARK  status: ('A' for Active; 'I' for Inactive)
REMARK    1  A    between atoms: N1_7  and  C7_8 
REMARK    2  A    between atoms: C7_8  and  C8_9 
REMARK    3  A    between atoms: C8_9  and  C9_10 
REMARK    4  A    between atoms: C9_10  and  N2_11 
REMARK       I    between atoms: N2_11  and  C10_12 
REMARK    5  A    between atoms: C10_12  and  C11_14 
REMARK    6  A    between atoms: C18_23  and  C19_25 
REMARK    7  A    between atoms: C19_25  and  C20_26 
ROOT
ATOM      1  C11 <0> d           6.775  -0.088   5.290  0.00  0.00     0.034 A 
ATOM      2  C12 <0> d           6.109  -0.891   6.220  0.00  0.00     0.019 A 
ATOM      3  C13 <0> d           6.736  -1.252   7.393  0.00  0.00     0.032 A 
ATOM      4  C14 <0> d           8.029  -0.820   7.649  0.00  0.00     0.056 A 
ATOM      5  C15 <0> d           8.706  -0.022   6.720  0.00  0.00     0.062 A 
ATOM      6  C16 <0> d           8.081   0.342   5.543  0.00  0.00     0.049 A 
ATOM      7  N3  <0> d          10.020   0.385   6.982  0.00  0.00    -0.323 N 
ATOM      8  C17 <0> d          10.709  -0.132   8.015  0.00  0.00     0.245 C 
ATOM      9  O2  <0> d          11.797   0.322   8.299  0.00  0.00    -0.271 OA
ATOM     10  C18 <0> d          10.141  -1.270   8.826  0.00  0.00     0.174 C 
ATOM     11  N4  <0> d           8.675  -1.165   8.838  0.00  0.00    -0.375 N 
ATOM     12  H24 <0> d          10.438   1.048   6.411  0.00  0.00     0.169 HD
ATOM     13  H25 <0> d           8.170  -1.331   9.649  0.00  0.00     0.160 HD
ENDROOT
BRANCH   1  14
ATOM     14  C10 <0> d           6.101   0.302   4.036  0.00  0.00     0.251 C 
ATOM     15  N2  <0> d           4.842  -0.112   3.791  0.00  0.00    -0.357 N 
ATOM     16  H20 <0> d           4.379  -0.666   4.439  0.00  0.00     0.162 HD
ATOM     17  O1  <0> d           6.682   0.997   3.225  0.00  0.00    -0.268 OA
BRANCH  15  18
ATOM     18  C9  <0> d           4.173   0.276   2.547  0.00  0.00     0.124 C 
BRANCH  18  19
ATOM     19  C8  <0> d           2.764  -0.321   2.518  0.00  0.00     0.047 C 
BRANCH  19  20
ATOM     20  C7  <0> d           2.066   0.083   1.218  0.00  0.00     0.237 C 
BRANCH  20  21
ATOM     21  N1  <0> d           0.713  -0.490   1.191  0.00  0.00    -0.067 N 
ATOM     22  C2  <0> d           0.002  -0.004   0.002  0.00  0.00     0.184 C 
ATOM     23  C1  <0> d          -0.019   1.526   0.010  0.00  0.00     0.040 C 
ATOM     24  C3  <0> d          -1.434  -0.533   0.011  0.00  0.00     0.033 C 
ATOM     25  C4  <0> d          -1.408  -2.064   0.003  0.00  0.00     0.004 C 
ATOM     26  C5  <0> d          -0.600  -2.558   1.206  0.00  0.00     0.028 C 
ATOM     27  C6  <0> d           0.805  -1.954   1.152  0.00  0.00     0.235 C 
ATOM     28  H35 <0> d           0.213  -0.206   2.020  0.00  0.00     0.280 HD
ENDBRANCH  20  21
ENDBRANCH  19  20
ENDBRANCH  18  19
ENDBRANCH  15  18
ENDBRANCH   1  14
BRANCH  10  29
ATOM     29  C19 <0> d          10.556  -2.602   8.198  0.00  0.00     0.038 C 
BRANCH  29  30
ATOM     30  C20 <0> d          10.085  -3.754   9.089  0.00  0.00    -0.020 C 
ATOM     31  C21 <0> d          10.389  -5.087   8.402  0.00  0.00     0.009 C 
ATOM     32  C22 <0> d          10.818  -3.693  10.431  0.00  0.00     0.009 C 
ENDBRANCH  29  30
ENDBRANCH  10  29
TORSDOF 7
