REMARK  2 active torsions:
REMARK  status: ('A' for Active; 'I' for Inactive)
REMARK    1  A    between atoms: C8_10  and  C12_16 
REMARK       I    between atoms: C12_16  and  N3_18 
REMARK    2  A    between atoms: N3_18  and  C13_19 
ROOT
ATOM      1  C1  <0> d          -0.008   1.398   0.032  0.00  0.00     0.001 A 
ATOM      2  C2  <0> d           1.177   2.116   0.020  0.00  0.00     0.002 A 
ATOM      3  C3  <0> d           2.395   1.458   0.006  0.00  0.00     0.031 A 
ATOM      4  C4  <0> d           2.420   0.081   0.001  0.00  0.00     0.056 A 
ATOM      5  C5  <0> d           1.219  -0.657  -0.001  0.00  0.00     0.059 A 
ATOM      6  C6  <0> d           0.003   0.018   0.023  0.00  0.00     0.019 A 
ATOM      7  C7  <0> d           1.301  -2.128  -0.051  0.00  0.00     0.256 C 
ATOM      8  O1  <0> d           0.322  -2.779  -0.364  0.00  0.00    -0.268 OA
ATOM      9  N1  <0> d           2.459  -2.757   0.250  0.00  0.00    -0.322 N 
ATOM     10  C8  <0> d           3.639  -1.996   0.654  0.00  0.00     0.199 C 
ATOM     11  N2  <0> d           3.598  -0.670   0.010  0.00  0.00    -0.281 N 
ATOM     12  C9  <0> d           4.776  -0.358  -0.534  0.00  0.00     0.227 C 
ATOM     13  O2  <0> d           5.075   0.742  -0.948  0.00  0.00    -0.273 OA
ATOM     14  C10 <0> d           5.685  -1.562  -0.564  0.00  0.00     0.108 C 
ATOM     15  C11 <0> d           4.931  -2.675   0.189  0.00  0.00     0.074 C 
ATOM     16  H5  <0> d           2.507  -3.725   0.198  0.00  0.00     0.165 HD
ENDROOT
BRANCH  10  17
ATOM     17  C12 <0> d           3.656  -1.838   2.153  0.00  0.00     0.272 C 
ATOM     18  O3  <0> d           3.924  -0.762   2.646  0.00  0.00    -0.268 OA
ATOM     19  N3  <0> d           3.374  -2.891   2.945  0.00  0.00    -0.323 N 
ATOM     20  H10 <0> d           3.095  -3.733   2.551  0.00  0.00     0.169 HD
BRANCH  19  21
ATOM     21  C13 <0> d           3.485  -2.771   4.334  0.00  0.00     0.036 A 
ATOM     22  C18 <0> d           3.162  -1.573   4.957  0.00  0.00     0.048 A 
ATOM     23  C17 <0> d           3.265  -1.459   6.330  0.00  0.00     0.013 A 
ATOM     24  C16 <0> d           3.702  -2.535   7.083  0.00  0.00     0.019 A 
ATOM     25 Br1  <0> d           2.818   0.170   7.180  0.00  0.00    -0.051 Br
ATOM     26  C15 <0> d           4.030  -3.727   6.465  0.00  0.00     0.004 A 
ATOM     27  C14 <0> d           3.922  -3.849   5.093  0.00  0.00     0.029 A 
ENDBRANCH  19  21
ENDBRANCH  10  17
TORSDOF 2
