REMARK  7 active torsions:
REMARK  status: ('A' for Active; 'I' for Inactive)
REMARK    1  A    between atoms: C2_2  and  C3_3 
REMARK    2  A    between atoms: N1_6  and  N3_10 
REMARK       I    between atoms: N3_10  and  C6_11 
REMARK    3  A    between atoms: C6_11  and  C7_13 
REMARK    4  A    between atoms: C7_13  and  S1_14 
REMARK    5  A    between atoms: S1_14  and  C8_15 
REMARK    6  A    between atoms: C9_18  and  C13_23 
REMARK    7  A    between atoms: N6_19  and  C10_20 
ROOT
ATOM      1  C8  <0> d           0.815  -7.563   6.203  0.00  0.00     0.268 A 
ATOM      2  N4  <0> d           0.883  -8.326   4.946  0.00  0.00    -0.279 N 
ATOM      3  N5  <0> d          -0.347  -8.980   4.811  0.00  0.00    -0.158 NA
ATOM      4  C9  <0> d          -1.140  -8.712   5.814  0.00  0.00     0.157 A 
ATOM      5  N6  <0> d          -0.528  -7.851   6.733  0.00  0.00    -0.328 N 
ATOM      6  H11 <0> d           1.633  -8.367   4.332  0.00  0.00     0.185 HD
ENDROOT
BRANCH   1   7
ATOM      7  S1  <0> d           1.002  -5.788   5.879  0.00  0.00    -0.112 SA
BRANCH   7   8
ATOM      8  C7  <0> d          -0.327  -5.414   4.702  0.00  0.00     0.182 C 
BRANCH   8   9
ATOM      9  C6  <0> d          -0.284  -3.951   4.344  0.00  0.00     0.246 C 
ATOM     10  N3  <0> d          -1.183  -3.442   3.478  0.00  0.00    -0.256 N 
ATOM     11  H8  <0> d          -1.858  -4.018   3.086  0.00  0.00     0.191 HD
ATOM     12  O3  <0> d           0.560  -3.231   4.834  0.00  0.00    -0.271 OA
BRANCH  10  13
ATOM     13  N1  <0> d          -1.144  -2.082   3.146  0.00  0.00    -0.167 N 
ATOM     14  C4  <0> d          -0.685  -1.603   1.972  0.00  0.00     0.275 A 
ATOM     15  C3  <0> d          -0.834  -0.097   2.059  0.00  0.00     0.114 A 
ATOM     16  O1  <0> d          -0.245  -2.243   1.042  0.00  0.00    -0.268 OA
ATOM     17  N2  <0> d          -1.413   0.118   3.396  0.00  0.00    -0.323 N 
ATOM     18  C21 <0> d           0.529   0.589   1.946  0.00  0.00     0.049 C 
ATOM     19  C5  <0> d          -1.557  -1.099   3.953  0.00  0.00     0.345 A 
ATOM     20  H7  <0> d          -1.645   0.970   3.798  0.00  0.00     0.165 HD
ATOM     21  O2  <0> d          -2.011  -1.283   5.065  0.00  0.00    -0.245 OA
BRANCH  15  22
ATOM     22  C2  <0> d          -1.783   0.414   0.973  0.00  0.00     0.036 C 
ATOM     23  C1  <0> d          -2.000   1.918   1.151  0.00  0.00     0.008 C 
ENDBRANCH  15  22
ENDBRANCH  10  13
ENDBRANCH   8   9
ENDBRANCH   7   8
ENDBRANCH   1   7
BRANCH   5  24
ATOM     24  C10 <0> d          -1.108  -7.335   7.976  0.00  0.00     0.089 A 
ATOM     25  C12 <0> d          -0.455  -7.764   9.291  0.00  0.00     0.027 A 
ATOM     26  C11 <0> d          -0.279  -6.332   8.780  0.00  0.00     0.027 A 
ENDBRANCH   5  24
BRANCH   4  27
ATOM     27  C13 <0> d          -2.439  -9.223   5.954  0.00  0.00     0.019 A 
ATOM     28  C20 <0> d          -3.446  -8.880   7.029  0.00  0.00     0.163 A 
ATOM     29  N7  <0> d          -4.643  -9.672   6.731  0.00  0.00    -0.385 N 
ATOM     30  C19 <0> d          -4.426 -10.402   5.654  0.00  0.00     0.039 A 
ATOM     31  H26 <0> d          -5.465  -9.665   7.247  0.00  0.00     0.160 HD
ATOM     32  C14 <0> d          -3.071 -10.159   5.133  0.00  0.00     0.002 A 
ATOM     33  C18 <0> d          -5.251 -11.328   4.966  0.00  0.00     0.030 A 
ATOM     34  C15 <0> d          -2.649 -10.852   3.979  0.00  0.00     0.014 A 
ATOM     35  C16 <0> d          -3.494 -11.725   3.372  0.00  0.00     0.001 A 
ATOM     36  C17 <0> d          -4.780 -11.959   3.862  0.00  0.00     0.002 A 
ENDBRANCH   4  27
TORSDOF 7
