REMARK  3 active torsions:
REMARK  status: ('A' for Active; 'I' for Inactive)
REMARK    1  A    between atoms: C2_2  and  C4_4 
REMARK    2  A    between atoms: C6_6  and  C8_9 
REMARK       I    between atoms: C8_9  and  N1_11 
REMARK    3  A    between atoms: N1_11  and  N2_12 
ROOT
ATOM      1  C8  <0> d          -4.184  -2.499  -1.519  0.00  0.00     0.271 C 
ATOM      2  O1  <0> d          -3.680  -2.933  -2.538  0.00  0.00    -0.266 OA
ATOM      3  N1  <0> d          -5.465  -2.796  -1.221  0.00  0.00    -0.254 N 
ATOM      4  H12 <0> d          -5.867  -2.450  -0.409  0.00  0.00     0.191 HD
ENDROOT
BRANCH   3   5
ATOM      5  N2  <0> d          -6.215  -3.604  -2.085  0.00  0.00    -0.187 N 
ATOM      6  C16 <0> d          -6.509  -4.896  -1.817  0.00  0.00     0.250 C 
ATOM      7  C15 <0> d          -7.106  -5.463  -3.073  0.00  0.00     0.097 C 
ATOM      8  O3  <0> d          -6.329  -5.481  -0.770  0.00  0.00    -0.271 OA
ATOM      9  C10 <0> d          -7.704  -4.224  -3.760  0.00  0.00     0.097 C 
ATOM     10  C14 <0> d          -8.056  -6.611  -2.898  0.00  0.00     0.042 C 
ATOM     11  C9  <0> d          -6.706  -3.166  -3.261  0.00  0.00     0.250 C 
ATOM     12  C11 <0> d          -9.043  -3.825  -3.135  0.00  0.00     0.042 C 
ATOM     13  O2  <0> d          -6.414  -2.132  -3.821  0.00  0.00    -0.271 OA
ATOM     14  C12 <0> d          -9.896  -4.990  -2.773  0.00  0.00    -0.030 C 
ATOM     15  C13 <0> d          -9.474  -6.204  -2.645  0.00  0.00    -0.030 C 
ENDBRANCH   3   5
BRANCH   1  16
ATOM     16  C6  <0> d          -3.396  -1.649  -0.612  0.00  0.00     0.041 A 
ATOM     17  C5  <0> d          -2.022  -1.311  -0.897  0.00  0.00     0.032 A 
ATOM     18  C4  <0> d          -1.412  -0.526   0.013  0.00  0.00    -0.013 A 
ATOM     19  S1  <0> d          -2.679  -0.262   1.234  0.00  0.00    -0.105 SA
ATOM     20  C7  <0> d          -3.934  -1.141   0.549  0.00  0.00     0.067 A 
BRANCH  18  21
ATOM     21  C2  <0> d           0.002  -0.004   0.002  0.00  0.00     0.017 C 
ATOM     22  C1  <0> d          -0.019   1.526   0.010  0.00  0.00     0.015 C 
ATOM     23  C3  <0> d           0.742  -0.511   1.242  0.00  0.00     0.015 C 
ENDBRANCH  18  21
ENDBRANCH   1  16
TORSDOF 3
