REMARK  7 active torsions:
REMARK  status: ('A' for Active; 'I' for Inactive)
REMARK    1  A    between atoms: C3_3  and  S1_12 
REMARK    2  A    between atoms: C4_4  and  C7_8 
REMARK    3  A    between atoms: C8_9  and  C9_10 
REMARK    4  A    between atoms: C9_10  and  N1_11 
REMARK    5  A    between atoms: S1_12  and  N2_15 
REMARK    6  A    between atoms: N2_15  and  C10_16 
REMARK    7  A    between atoms: N2_15  and  C12_19 
ROOT
ATOM      1  C10 <0> d           3.267   4.938   0.414  0.00  0.00     0.260 C 
ATOM      2  C11 <0> d           4.474   5.766   0.571  0.00  0.00     0.079 C 
ATOM      3  N3  <0> d           5.406   6.404   0.692  0.00  0.00    -0.196 NA
ENDROOT
BRANCH   1   4
ATOM      4  N2  <0> d           3.529   3.870  -0.554  0.00  0.00    -0.281 N 
BRANCH   4   5
ATOM      5  S1  <0> d           3.988   2.369  -0.026  0.00  0.00     0.264 S 
ATOM      6  O1  <0> d           4.651   2.560   1.217  0.00  0.00    -0.200 OA
ATOM      7  O2  <0> d           4.609   1.723  -1.129  0.00  0.00    -0.200 OA
BRANCH   5   8
ATOM      8  C3  <0> d           2.516   1.466   0.322  0.00  0.00     0.098 A 
ATOM      9  C2  <0> d           1.310   2.128   0.436  0.00  0.00     0.030 A 
ATOM     10  C1  <0> d           0.153   1.422   0.708  0.00  0.00     0.044 A 
ATOM     11  C6  <0> d           0.195   0.047   0.869  0.00  0.00     0.117 A 
ATOM     12  C5  <0> d           1.397  -0.627   0.757  0.00  0.00     0.064 A 
ATOM     13  F1  <0> d          -0.940  -0.637   1.135  0.00  0.00    -0.206 F 
ATOM     14  C4  <0> d           2.567   0.081   0.482  0.00  0.00     0.044 A 
BRANCH  14  15
ATOM     15  C7  <0> d           3.815  -0.611   0.365  0.00  0.00    -0.064 C 
ATOM     16  C8  <0> d           4.838  -1.178   0.269  0.00  0.00    -0.074 C 
BRANCH  16  17
ATOM     17  C9  <0> d           6.121  -1.889   0.148  0.00  0.00     0.323 C 
BRANCH  17  18
ATOM     18  N1  <0> d           5.906  -3.327   0.357  0.00  0.00    -0.069 N 
ATOM     19  H6  <0> d           5.523  -3.479   1.278  0.00  0.00     0.275 HD
ATOM     20  H7  <0> d           5.262  -3.675  -0.336  0.00  0.00     0.275 HD
ATOM     21  H12 <0> d           6.786  -3.814   0.275  0.00  0.00     0.275 HD
ENDBRANCH  17  18
ENDBRANCH  16  17
ENDBRANCH  14  15
ENDBRANCH   5   8
ENDBRANCH   4   5
BRANCH   4  22
ATOM     22  C12 <0> d           3.386   4.130  -1.988  0.00  0.00     0.260 C 
ATOM     23  C13 <0> d           1.979   3.948  -2.382  0.00  0.00     0.079 C 
ATOM     24  N4  <0> d           0.894   3.807  -2.686  0.00  0.00    -0.196 NA
ENDBRANCH   4  22
ENDBRANCH   1   4
TORSDOF 7
