REMARK  3 active torsions:
REMARK  status: ('A' for Active; 'I' for Inactive)
REMARK    1  A    between atoms: C7_9  and  C8_11 
REMARK    2  A    between atoms: C10_15  and  C11_17 
REMARK    3  A    between atoms: C11_17  and  N4_21 
ROOT
ATOM      1  C8  <0> d           6.162  -0.253  -0.059  0.00  0.00     0.110 A 
ATOM      2  C9  <0> d           6.609  -1.539  -0.075  0.00  0.00     0.124 A 
ATOM      3  N2  <0> d           7.972  -1.481  -0.086  0.00  0.00    -0.350 N 
ATOM      4  H1  <0> d           8.579  -2.237  -0.099  0.00  0.00     0.166 HD
ATOM      5  C10 <0> d           8.323  -0.170  -0.076  0.00  0.00     0.141 A 
ATOM      6  N3  <0> d           7.242   0.558  -0.065  0.00  0.00    -0.229 NA
ENDROOT
BRANCH   1   7
ATOM      7  C7  <0> d           4.749   0.178  -0.043  0.00  0.00     0.129 A 
ATOM      8  N1  <0> d           3.661  -0.562  -0.036  0.00  0.00    -0.238 NA
ATOM      9  C4  <0> d           2.423  -0.028  -0.021  0.00  0.00     0.076 A 
ATOM     10  C3  <0> d           2.365   1.386  -0.013  0.00  0.00     0.036 A 
ATOM     11  C5  <0> d           1.181  -0.705  -0.013  0.00  0.00     0.052 A 
ATOM     12  C2  <0> d           1.179   2.078   0.002  0.00  0.00     0.023 A 
ATOM     13  S1  <0> d           4.083   1.836  -0.028  0.00  0.00    -0.066 SA
ATOM     14  C1  <0> d          -0.017   1.384   0.010  0.00  0.00     0.020 A 
ATOM     15  C6  <0> d           0.002  -0.004   0.002  0.00  0.00     0.013 A 
ATOM     16 Br1  <0> d          -1.635  -0.950   0.013  0.00  0.00    -0.051 Br
ENDBRANCH   1   7
BRANCH   5  17
ATOM     17  C11 <0> d           9.734   0.359  -0.082  0.00  0.00     0.183 C 
ATOM     18  C14 <0> d           9.816   1.895  -0.068  0.00  0.00     0.047 C 
ATOM     19  C13 <0> d          10.995   1.744   0.909  0.00  0.00     0.006 C 
ATOM     20  C12 <0> d          10.387   0.390   1.310  0.00  0.00     0.047 C 
BRANCH  17  21
ATOM     21  N4  <0> d          10.572  -0.265  -1.114  0.00  0.00    -0.063 N 
ATOM     22  H12 <0> d          10.268   0.041  -2.026  0.00  0.00     0.275 HD
ATOM     23  H13 <0> d          11.535   0.004  -0.973  0.00  0.00     0.275 HD
ATOM     24  H14 <0> d          10.491  -1.269  -1.052  0.00  0.00     0.275 HD
ENDBRANCH  17  21
ENDBRANCH   5  17
TORSDOF 3
