REMARK  4 active torsions:
REMARK  status: ('A' for Active; 'I' for Inactive)
REMARK    1  A    between atoms: C7_7  and  O3_17 
REMARK    2  A    between atoms: C10_10  and  C11_11 
REMARK    3  A    between atoms: C19_22  and  O5_28 
REMARK    4  A    between atoms: C22_25  and  C23_26 
ROOT
ATOM      1  C1  <0> d          -0.002   1.514   0.001  0.00  0.00     0.019 C 
ATOM      2  C2  <0> d           0.007  -0.016  -0.001  0.00  0.00    -0.005 C 
ATOM      3  C3  <0> d           0.596  -0.591  -1.292  0.00  0.00     0.013 C 
ATOM      4  C4  <0> d           2.104  -0.367  -1.336  0.00  0.00     0.007 C 
ATOM      5  C5  <0> d           2.753  -1.117  -0.167  0.00  0.00     0.012 C 
ATOM      6  C6  <0> d           2.229  -0.528   1.142  0.00  0.00     0.027 C 
ATOM      7  C7  <0> d           0.733  -0.599   1.224  0.00  0.00     0.070 C 
ATOM      8  C8  <0> d           0.230  -2.045   1.332  0.00  0.00     0.040 C 
ATOM      9  C9  <0> d          -1.156  -2.061   0.655  0.00  0.00     0.013 C 
ATOM     10  C10 <0> d          -1.419  -0.621   0.162  0.00  0.00     0.028 C 
ATOM     11  C15 <0> d           2.857  -1.252   2.335  0.00  0.00     0.012 C 
ATOM     12  C16 <0> d           4.374  -1.039   2.334  0.00  0.00     0.036 C 
ATOM     13  C17 <0> d           4.907  -1.502   0.988  0.00  0.00    -0.065 C 
ATOM     14  C18 <0> d           5.875  -2.371   0.966  0.00  0.00     0.008 C 
ATOM     15  C19 <0> d           6.442  -2.903  -0.322  0.00  0.00     0.141 C 
ATOM     16  C20 <0> d           5.328  -2.898  -1.376  0.00  0.00     0.037 C 
ATOM     17  C21 <0> d           4.827  -1.464  -1.538  0.00  0.00     0.024 C 
ATOM     18  C22 <0> d           4.271  -0.932  -0.246  0.00  0.00     0.040 C 
ENDROOT
BRANCH  10  19
ATOM     19  C11 <0> d          -2.141  -0.638  -1.161  0.00  0.00    -0.045 A 
ATOM     20  C14 <0> d          -2.764   0.546  -1.861  0.00  0.00     0.213 A 
ATOM     21  O2  <0> d          -3.327   0.045  -3.078  0.00  0.00    -0.314 OA
ATOM     22  C13 <0> d          -3.094  -1.280  -3.128  0.00  0.00     0.283 A 
ATOM     23  C12 <0> d          -2.356  -1.700  -1.933  0.00  0.00     0.087 A 
ATOM     24  O1  <0> d          -3.444  -2.017  -4.029  0.00  0.00    -0.260 OA
ENDBRANCH  10  19
BRANCH   7  25
ATOM     25  O3  <0> d           0.307   0.110   2.390  0.00  0.00    -0.389 OA
ATOM     26  H19 <0> d           0.719  -0.197   3.209  0.00  0.00     0.210 HD
ENDBRANCH   7  25
BRANCH  18  27
ATOM     27  C23 <0> d           4.549   0.549  -0.247  0.00  0.00     0.245 C 
ATOM     28  O4  <0> d           5.222   1.038   0.628  0.00  0.00    -0.306 OA
ENDBRANCH  18  27
BRANCH  15  29
ATOM     29  O5  <0> d           6.915  -4.237  -0.125  0.00  0.00    -0.392 OA
ATOM     30  H30 <0> d           7.609  -4.314   0.543  0.00  0.00     0.210 HD
ENDBRANCH  15  29
TORSDOF 4
