REMARK  6 active torsions:
REMARK  status: ('A' for Active; 'I' for Inactive)
REMARK    1  A    between atoms: C3_3  and  C6_7 
REMARK    2  A    between atoms: C6_7  and  N2_8 
REMARK    3  A    between atoms: N2_8  and  C7_9 
REMARK    4  A    between atoms: N2_8  and  S1_15 
REMARK    5  A    between atoms: C7_9  and  C8_10 
REMARK    6  A    between atoms: S1_15  and  C12_18 
ROOT
ATOM      1  S1  <0> d           3.634   3.825   2.016  0.00  0.00     0.261 S 
ATOM      2  O2  <0> d           4.625   4.182   2.969  0.00  0.00    -0.200 OA
ATOM      3  O3  <0> d           3.293   4.665   0.921  0.00  0.00    -0.200 OA
ENDROOT
BRANCH   1   4
ATOM      4  N2  <0> d           4.098   2.372   1.372  0.00  0.00    -0.296 N 
BRANCH   4   5
ATOM      5  C6  <0> d           3.703   2.016   0.006  0.00  0.00     0.176 C 
BRANCH   5   6
ATOM      6  C3  <0> d           2.447   1.184   0.048  0.00  0.00    -0.022 A 
ATOM      7  C2  <0> d           1.206   1.777  -0.124  0.00  0.00     0.012 A 
ATOM      8  C1  <0> d           0.078   0.973  -0.079  0.00  0.00     0.020 A 
ATOM      9  C5  <0> d           0.227  -0.385   0.134  0.00  0.00     0.116 A 
ATOM     10  N1  <0> d           1.424  -0.915   0.293  0.00  0.00    -0.273 NA
ATOM     11  C4  <0> d           2.518  -0.180   0.257  0.00  0.00     0.124 A 
ENDBRANCH   5   6
ENDBRANCH   4   5
BRANCH   4  12
ATOM     12  C7  <0> d           4.904   1.442   2.167  0.00  0.00     0.200 C 
BRANCH  12  13
ATOM     13  C8  <0> d           6.363   1.642   1.847  0.00  0.00     0.071 A 
ATOM     14  O1  <0> d           7.051   1.003   0.887  0.00  0.00    -0.325 OA
ATOM     15  C11 <0> d           8.323   1.434   0.885  0.00  0.00     0.142 A 
ATOM     16  C10 <0> d           8.462   2.352   1.859  0.00  0.00     0.027 A 
ATOM     17  C9  <0> d           7.199   2.486   2.479  0.00  0.00     0.036 A 
ENDBRANCH  12  13
ENDBRANCH   4  12
ENDBRANCH   1   4
BRANCH   1  18
ATOM     18  C12 <0> d           2.146   3.544   2.917  0.00  0.00     0.082 A 
ATOM     19  C17 <0> d           2.205   3.084   4.219  0.00  0.00     0.057 A 
ATOM     20  C16 <0> d           1.035   2.868   4.928  0.00  0.00     0.070 A 
ATOM     21  C15 <0> d          -0.199   3.105   4.323  0.00  0.00     0.096 A 
ATOM     22  N3  <0> d           1.073   2.409   6.252  0.00  0.00    -0.323 N 
ATOM     23  C14 <0> d          -0.251   3.560   3.017  0.00  0.00     0.040 A 
ATOM     24  O5  <0> d          -1.342   2.884   5.026  0.00  0.00    -0.340 OA
ATOM     25  C13 <0> d           0.922   3.779   2.317  0.00  0.00     0.028 A 
ATOM     26  C19 <0> d          -1.314   1.819   5.980  0.00  0.00     0.278 C 
ATOM     27  C18 <0> d          -0.054   1.909   6.804  0.00  0.00     0.246 C 
ATOM     28  O4  <0> d          -0.053   1.536   7.958  0.00  0.00    -0.271 OA
ATOM     29  H15 <0> d           1.896   2.450   6.763  0.00  0.00     0.169 HD
ENDBRANCH   1  18
TORSDOF 6
