REMARK  5 active torsions:
REMARK  status: ('A' for Active; 'I' for Inactive)
REMARK    1  A    between atoms: C2_2  and  S1_4 
REMARK    2  A    between atoms: S1_4  and  C4_7 
REMARK    3  A    between atoms: C12_16  and  S2_19 
REMARK    4  A    between atoms: N2_23  and  S3_24 
REMARK    5  A    between atoms: S3_24  and  C16_27 
ROOT
ATOM      1  C4  <0> d           0.100  -0.153   2.369  0.00  0.00     0.213 C 
ATOM      2  C5  <0> d           0.774  -0.501   3.701  0.00  0.00     0.126 C 
ATOM      3  C6  <0> d           0.486  -1.938   4.046  0.00  0.00     0.182 C 
ATOM      4  O3  <0> d           1.292  -2.573   4.698  0.00  0.00    -0.291 OA
ATOM      5  C7  <0> d          -0.710  -2.556   3.621  0.00  0.00     0.128 A 
ATOM      6  C8  <0> d          -1.601  -1.854   2.829  0.00  0.00     0.091 A 
ATOM      7  C9  <0> d          -2.849  -2.493   2.393  0.00  0.00     0.101 A 
ATOM      8  C10 <0> d          -3.092  -3.825   2.795  0.00  0.00     0.066 A 
ATOM      9  C11 <0> d          -4.267  -4.456   2.393  0.00  0.00     0.039 A 
ATOM     10  C12 <0> d          -5.159  -3.732   1.605  0.00  0.00     0.018 A 
ATOM     11  C13 <0> d          -4.849  -2.418   1.248  0.00  0.00     0.136 A 
ATOM     12  N1  <0> d          -3.732  -1.848   1.640  0.00  0.00    -0.256 NA
ATOM     13  C15 <0> d          -2.093  -4.510   3.629  0.00  0.00     0.274 A 
ATOM     14  O4  <0> d          -2.281  -5.659   3.984  0.00  0.00    -0.266 OA
ATOM     15  N2  <0> d          -0.970  -3.868   3.999  0.00  0.00    -0.198 N 
ATOM     16  N3  <0> d          -1.312  -0.557   2.448  0.00  0.00    -0.368 N 
ATOM     17  H23 <0> d          -2.021   0.071   2.238  0.00  0.00     0.161 HD
ENDROOT
BRANCH   1  18
ATOM     18  S1  <0> d           0.918  -1.048   1.019  0.00  0.00     0.169 S 
ATOM     19  O1  <0> d           0.708  -2.440   1.210  0.00  0.00    -0.225 OA
ATOM     20  O2  <0> d           2.247  -0.559   0.896  0.00  0.00    -0.225 OA
BRANCH  18  21
ATOM     21  C2  <0> d          -0.025  -0.521  -0.439  0.00  0.00     0.102 C 
ATOM     22  C1  <0> d           0.077   0.998  -0.590  0.00  0.00     0.026 C 
ATOM     23  C3  <0> d           0.547  -1.197  -1.687  0.00  0.00     0.026 C 
ENDBRANCH  18  21
ENDBRANCH   1  18
BRANCH  15  24
ATOM     24  S3  <0> d           0.137  -4.666   4.936  0.00  0.00     0.243 S 
ATOM     25  O5  <0> d          -0.424  -5.955   5.143  0.00  0.00    -0.205 OA
ATOM     26  O6  <0> d           1.371  -4.515   4.248  0.00  0.00    -0.205 OA
BRANCH  24  27
ATOM     27  C16 <0> d           0.177  -3.745   6.499  0.00  0.00     0.122 C 
ATOM     28  C17 <0> d          -1.183  -3.857   7.191  0.00  0.00     0.027 C 
ATOM     29  C18 <0> d           1.261  -4.328   7.407  0.00  0.00     0.027 C 
ENDBRANCH  24  27
ENDBRANCH  15  24
BRANCH  10  30
ATOM     30  S2  <0> d          -6.665  -4.468   1.062  0.00  0.00    -0.133 SA
ATOM     31  C14 <0> d          -7.466  -3.163   0.090  0.00  0.00     0.095 C 
ENDBRANCH  10  30
TORSDOF 5
