REMARK  5 active torsions:
REMARK  status: ('A' for Active; 'I' for Inactive)
REMARK    1  A    between atoms: C7_7  and  S1_15 
REMARK    2  A    between atoms: C8_9  and  C9_11 
REMARK    3  A    between atoms: S1_15  and  C10_16 
REMARK    4  A    between atoms: C10_16  and  C11_17 
REMARK       I    between atoms: C11_17  and  N3_19 
REMARK    5  A    between atoms: N3_19  and  C12_20 
ROOT
ATOM      1  S1  <0> d          -0.860   1.669   1.497  0.00  0.00    -0.100 SA
ENDROOT
BRANCH   1   2
ATOM      2  C7  <0> d           0.174   0.961   2.735  0.00  0.00     0.108 A 
ATOM      3  C5  <0> d          -0.099   1.157   4.112  0.00  0.00     0.028 A 
ATOM      4  C4  <0> d           0.767   0.556   5.057  0.00  0.00     0.072 A 
ATOM      5  C6  <0> d          -1.196   1.904   4.553  0.00  0.00     0.017 A 
ATOM      6  C3  <0> d           0.516   0.730   6.425  0.00  0.00     0.032 A 
ATOM      7  N2  <0> d           1.810  -0.161   4.612  0.00  0.00    -0.225 NA
ATOM      8  C2  <0> d          -0.559   1.468   6.823  0.00  0.00     0.002 A 
ATOM      9  C1  <0> d          -1.412   2.053   5.892  0.00  0.00     0.001 A 
ATOM     10  C8  <0> d           2.018  -0.305   3.324  0.00  0.00     0.236 A 
ATOM     11  N1  <0> d           1.234   0.233   2.404  0.00  0.00    -0.217 NA
BRANCH  10  12
ATOM     12  C9  <0> d           3.203  -1.119   2.873  0.00  0.00     0.453 C 
ATOM     13  F1  <0> d           3.448  -0.874   1.518  0.00  0.00    -0.163 F 
ATOM     14  F2  <0> d           4.328  -0.759   3.623  0.00  0.00    -0.163 F 
ATOM     15  F3  <0> d           2.933  -2.479   3.060  0.00  0.00    -0.163 F 
ENDBRANCH  10  12
ENDBRANCH   1   2
BRANCH   1  16
ATOM     16  C10 <0> d          -0.013   1.086   0.008  0.00  0.00     0.183 C 
BRANCH  16  17
ATOM     17  C11 <0> d          -0.742   1.585  -1.213  0.00  0.00     0.227 C 
ATOM     18  O1  <0> d          -1.736   2.268  -1.088  0.00  0.00    -0.273 OA
ATOM     19  N3  <0> d          -0.288   1.272  -2.443  0.00  0.00    -0.352 N 
ATOM     20  H8  <0> d           0.614   0.653  -2.556  0.00  0.00     0.163 HD
BRANCH  19  21
ATOM     21  C12 <0> d          -0.997   1.758  -3.630  0.00  0.00     0.122 C 
ATOM     22  C16 <0> d          -2.124   0.813  -3.962  0.00  0.00    -0.002 A 
ATOM     23  C15 <0> d          -2.394   0.443  -5.269  0.00  0.00     0.077 A 
ATOM     24  C17 <0> d          -2.900   0.312  -2.931  0.00  0.00     0.012 A 
ATOM     25  O2  <0> d          -1.653   0.903  -6.310  0.00  0.00    -0.350 OA
ATOM     26  C20 <0> d          -3.446  -0.426  -5.536  0.00  0.00     0.037 A 
ATOM     27  C14 <0> d          -0.836   2.054  -6.091  0.00  0.00     0.178 C 
ATOM     28  C13 <0> d          -0.024   1.834  -4.809  0.00  0.00     0.057 C 
ATOM     29  C19 <0> d          -4.216  -0.922  -4.503  0.00  0.00     0.003 A 
ATOM     30  C18 <0> d          -3.943  -0.553  -3.199  0.00  0.00     0.001 A 
ENDBRANCH  19  21
ENDBRANCH  16  17
ENDBRANCH   1  16
TORSDOF 5
