REMARK  7 active torsions:
REMARK  status: ('A' for Active; 'I' for Inactive)
REMARK    1  A    between atoms: C6_6  and  C7_7 
REMARK    2  A    between atoms: C7_7  and  O5_31 
REMARK    3  A    between atoms: C12_12  and  C13_13 
REMARK    4  A    between atoms: C12_12  and  N3_35 
REMARK    5  A    between atoms: C16_16  and  C18_21 
REMARK       I    between atoms: C18_21  and  N2_23 
REMARK    6  A    between atoms: N2_23  and  C19_24 
REMARK    7  A    between atoms: C19_24  and  C20_25 
ROOT
ATOM      1  C13 <0> d          -2.502   2.403  -5.804  0.00  0.00     0.038 A 
ATOM      2  C14 <0> d          -1.393   1.638  -5.974  0.00  0.00     0.028 A 
ATOM      3  C15 <0> d          -0.637   1.246  -4.870  0.00  0.00     0.025 A 
ATOM      4  C16 <0> d          -1.039   1.652  -3.599  0.00  0.00     0.099 A 
ATOM      5  C17 <0> d          -2.208   2.446  -3.471  0.00  0.00     0.261 A 
ATOM      6  O1  <0> d          -2.583   2.809  -2.370  0.00  0.00    -0.267 OA
ATOM      7  N1  <0> d          -2.898   2.801  -4.572  0.00  0.00    -0.325 N 
ATOM      8  H1  <0> d          -3.694   3.347  -4.480  0.00  0.00     0.169 HD
ENDROOT
BRANCH   1   9
ATOM      9  C12 <0> d          -3.306   2.817  -7.009  0.00  0.00     0.291 C 
BRANCH   9  10
ATOM     10  N3  <0> d          -4.650   2.210  -6.915  0.00  0.00    -0.066 N 
ATOM     11  C9  <0> d          -5.529   2.765  -7.966  0.00  0.00     0.238 C 
ATOM     12  C8  <0> d          -6.943   2.211  -7.775  0.00  0.00     0.071 C 
ATOM     13  C7  <0> d          -6.907   0.684  -7.886  0.00  0.00     0.088 C 
ATOM     14  C11 <0> d          -5.936   0.127  -6.841  0.00  0.00     0.071 C 
ATOM     15  C10 <0> d          -4.551   0.742  -7.059  0.00  0.00     0.238 C 
ATOM     16  H29 <0> d          -5.051   2.428  -5.996  0.00  0.00     0.280 HD
BRANCH  13  17
ATOM     17  C6  <0> d          -8.286   0.128  -7.640  0.00  0.00    -0.024 A 
ATOM     18  C1  <0> d          -9.159   0.792  -6.798  0.00  0.00     0.012 A 
ATOM     19  C2  <0> d         -10.425   0.286  -6.577  0.00  0.00     0.024 A 
ATOM     20  C3  <0> d         -10.816  -0.891  -7.189  0.00  0.00     0.034 A 
ATOM     21  C4  <0> d          -9.941  -1.558  -8.027  0.00  0.00     0.024 A 
ATOM     22 Cl1  <0> d         -12.405  -1.531  -6.907  0.00  0.00    -0.084 Cl
ATOM     23  C5  <0> d          -8.676  -1.048  -8.252  0.00  0.00     0.012 A 
ENDBRANCH  13  17
BRANCH  13  24
ATOM     24  O5  <0> d          -6.467   0.310  -9.193  0.00  0.00    -0.385 OA
ATOM     25  H28 <0> d          -6.421  -0.645  -9.334  0.00  0.00     0.211 HD
ENDBRANCH  13  24
ENDBRANCH   9  10
ENDBRANCH   1   9
BRANCH   4  26
ATOM     26  C18 <0> d          -0.268   1.258  -2.409  0.00  0.00     0.257 C 
ATOM     27  O2  <0> d           0.785   0.664  -2.536  0.00  0.00    -0.267 OA
ATOM     28  N2  <0> d          -0.729   1.557  -1.178  0.00  0.00    -0.354 N 
ATOM     29  H19 <0> d          -1.530   2.095  -1.078  0.00  0.00     0.162 HD
BRANCH  28  30
ATOM     30  C19 <0> d          -0.021   1.069   0.008  0.00  0.00     0.157 C 
BRANCH  30  31
ATOM     31  C20 <0> d          -0.747   1.545   1.267  0.00  0.00     0.163 C 
ATOM     32  O4  <0> d          -2.042   0.939   1.331  0.00  0.00    -0.380 OA
ATOM     33  C23 <0> d          -2.780   1.288   2.506  0.00  0.00     0.194 C 
ATOM     34  C22 <0> d          -1.974   0.885   3.744  0.00  0.00     0.193 C 
ATOM     35  O3  <0> d          -0.680   1.492   3.680  0.00  0.00    -0.386 OA
ATOM     36  C21 <0> d           0.058   1.142   2.506  0.00  0.00     0.201 C 
ENDBRANCH  30  31
ENDBRANCH  28  30
ENDBRANCH   4  26
TORSDOF 7
