REMARK  8 active torsions:
REMARK  status: ('A' for Active; 'I' for Inactive)
REMARK    1  A    between atoms: O1_2  and  C2_3 
REMARK    2  A    between atoms: C2_3  and  C3_4 
REMARK    3  A    between atoms: C3_4  and  N1_5 
REMARK    4  A    between atoms: C5_9  and  S1_10 
REMARK    5  A    between atoms: S1_10  and  C6_11 
REMARK    6  A    between atoms: C6_11  and  C7_12 
REMARK       I    between atoms: C7_12  and  N4_14 
REMARK    7  A    between atoms: N4_14  and  C8_15 
REMARK    8  A    between atoms: C9_16  and  C16_24 
REMARK       I    between atoms: C16_24  and  N5_26 
ROOT
ATOM      1  C7  <0> d           4.011   4.462   3.607  0.00  0.00     0.232 C 
ATOM      2  O2  <0> d           3.769   5.202   2.677  0.00  0.00    -0.272 OA
ATOM      3  N4  <0> d           5.038   4.735   4.435  0.00  0.00    -0.320 N 
ATOM      4  H11 <0> d           5.258   4.064   5.279  0.00  0.00     0.169 HD
ENDROOT
BRANCH   3   5
ATOM      5  C8  <0> d           5.818   5.862   4.225  0.00  0.00     0.093 A 
ATOM      6  S2  <0> d           5.670   7.056   2.979  0.00  0.00    -0.075 SA
ATOM      7  C11 <0> d           7.018   8.111   3.432  0.00  0.00    -0.008 A 
ATOM      8  C10 <0> d           7.557   7.531   4.526  0.00  0.00    -0.026 A 
ATOM      9  C12 <0> d           7.472   9.370   2.761  0.00  0.00     0.047 C 
ATOM     10  C9  <0> d           6.904   6.309   4.964  0.00  0.00     0.072 A 
ATOM     11  C15 <0> d           8.761   8.147   5.227  0.00  0.00     0.041 C 
ATOM     12  C14 <0> d           9.443   9.125   4.268  0.00  0.00     0.005 C 
ATOM     13  C13 <0> d           8.414  10.116   3.717  0.00  0.00     0.005 C 
BRANCH  10  14
ATOM     14  C16 <0> d           7.377   5.575   6.142  0.00  0.00     0.252 C 
ATOM     15  O3  <0> d           8.222   4.708   6.019  0.00  0.00    -0.268 OA
ATOM     16  N5  <0> d           6.875   5.860   7.360  0.00  0.00    -0.366 N 
ATOM     17  H20 <0> d           7.230   5.309   8.243  0.00  0.00     0.159 HD
ATOM     18  H21 <0> d           6.111   6.644   7.471  0.00  0.00     0.159 HD
ENDBRANCH  10  14
ENDBRANCH   3   5
BRANCH   1  19
ATOM     19  C6  <0> d           3.163   3.237   3.836  0.00  0.00     0.185 C 
BRANCH  19  20
ATOM     20  S1  <0> d           1.876   3.149   2.566  0.00  0.00    -0.081 SA
BRANCH  20  21
ATOM     21  C5  <0> d           1.059   1.668   3.062  0.00  0.00     0.191 A 
ATOM     22  N1  <0> d          -0.020   1.094   2.454  0.00  0.00    -0.316 N 
ATOM     23  C4  <0> d          -0.299  -0.031   3.179  0.00  0.00     0.236 A 
ATOM     24  N2  <0> d           0.569  -0.093   4.149  0.00  0.00    -0.143 NA
ATOM     25  N3  <0> d           1.372   0.909   4.087  0.00  0.00    -0.123 NA
BRANCH  22  26
ATOM     26  C3  <0> d          -0.729   1.579   1.267  0.00  0.00     0.158 C 
BRANCH  26  27
ATOM     27  C2  <0> d          -0.013   1.086   0.008  0.00  0.00     0.187 C 
BRANCH  27  28
ATOM     28  O1  <0> d          -0.704   1.559  -1.150  0.00  0.00    -0.394 OA
ATOM     29  C1  <0> d          -0.114   1.152  -2.386  0.00  0.00     0.201 C 
ENDBRANCH  27  28
ENDBRANCH  26  27
ENDBRANCH  22  26
ENDBRANCH  20  21
ENDBRANCH  19  20
ENDBRANCH   1  19
TORSDOF 8
