REMARK  4 active torsions:
REMARK  status: ('A' for Active; 'I' for Inactive)
REMARK    1  A    between atoms: N1_2  and  S1_4 
REMARK    2  A    between atoms: S1_4  and  N2_7 
REMARK    3  A    between atoms: N6_22  and  C14_23 
REMARK    4  A    between atoms: C14_23  and  C15_24 
ROOT
ATOM      1  N2  <0> d          -1.856  -1.094  -1.568  0.00  0.00    -0.291 N 
ATOM      2  C3  <0> d          -2.695  -0.114  -2.272  0.00  0.00     0.137 C 
ATOM      3  C4  <0> d          -1.990   0.300  -3.568  0.00  0.00     0.024 C 
ATOM      4  C5  <0> d          -1.665  -0.950  -4.390  0.00  0.00     0.042 C 
ATOM      5  C6  <0> d          -0.734  -1.860  -3.592  0.00  0.00     0.106 C 
ATOM      6  C7  <0> d          -1.407  -2.289  -2.295  0.00  0.00     0.176 C 
ATOM      7  C8  <0> d          -0.385  -3.081  -4.416  0.00  0.00     0.109 C 
ATOM      8  N3  <0> d           0.439  -2.876  -5.509  0.00  0.00    -0.327 N 
ATOM      9  C9  <0> d           1.477  -1.946  -5.378  0.00  0.00     0.155 A 
ATOM     10  C10 <0> d           1.508  -1.085  -4.279  0.00  0.00     0.075 A 
ATOM     11  C11 <0> d           2.537  -0.161  -4.169  0.00  0.00     0.034 A 
ATOM     12  C12 <0> d           3.509  -0.137  -5.162  0.00  0.00     0.022 A 
ATOM     13  C13 <0> d           3.419  -1.022  -6.217  0.00  0.00     0.119 A 
ATOM     14  N4  <0> d           2.426  -1.888  -6.298  0.00  0.00    -0.241 NA
ATOM     15  N5  <0> d           0.517  -1.152  -3.290  0.00  0.00    -0.369 N 
ATOM     16  N6  <0> d          -0.832  -4.256  -4.113  0.00  0.00    -0.373 N 
ATOM     17  H18 <0> d           0.656  -0.740  -2.423  0.00  0.00     0.161 HD
ATOM     18  H19 <0> d          -1.408  -4.372  -3.341  0.00  0.00     0.161 HD
ATOM     19  H27 <0> d           0.301  -3.359  -6.339  0.00  0.00     0.169 HD
ENDROOT
BRANCH   1  20
ATOM     20  S1  <0> d          -1.421  -0.852   0.011  0.00  0.00     0.318 S 
ATOM     21  O1  <0> d          -1.127  -2.132   0.552  0.00  0.00    -0.183 OA
ATOM     22  O2  <0> d          -2.401   0.008   0.576  0.00  0.00    -0.183 OA
BRANCH  20  23
ATOM     23  N1  <0> d           0.002  -0.004   0.002  0.00  0.00    -0.303 N 
ATOM     24  C1  <0> d          -0.018   1.461   0.010  0.00  0.00     0.163 C 
ATOM     25  C2  <0> d           1.281  -0.719  -0.014  0.00  0.00     0.163 C 
ENDBRANCH  20  23
ENDBRANCH   1  20
BRANCH  16  26
ATOM     26  C14 <0> d          -0.470  -5.413  -4.937  0.00  0.00     0.159 C 
BRANCH  26  27
ATOM     27  C15 <0> d          -1.117  -6.652  -4.374  0.00  0.00    -0.041 A 
ATOM     28  C20 <0> d          -2.375  -7.032  -4.804  0.00  0.00     0.009 A 
ATOM     29  C19 <0> d          -2.966  -8.171  -4.290  0.00  0.00     0.001 A 
ATOM     30  C18 <0> d          -2.303  -8.926  -3.341  0.00  0.00     0.000 A 
ATOM     31  C17 <0> d          -1.047  -8.543  -2.907  0.00  0.00     0.001 A 
ATOM     32  C16 <0> d          -0.454  -7.406  -3.424  0.00  0.00     0.009 A 
ENDBRANCH  26  27
ENDBRANCH  16  26
TORSDOF 4
