REMARK  5 active torsions:
REMARK  status: ('A' for Active; 'I' for Inactive)
REMARK    1  A    between atoms: C3_3  and  C9_14 
REMARK    2  A    between atoms: C9_14  and  C10_15 
REMARK       I    between atoms: C10_15  and  N4_17 
REMARK    3  A    between atoms: N4_17  and  C11_18 
REMARK    4  A    between atoms: C11_18  and  C12_19 
REMARK    5  A    between atoms: C12_19  and  N5_22 
ROOT
ATOM      1  C1  <0> d          -0.405   0.899  -0.343  0.00  0.00     0.071 C 
ATOM      2  C2  <0> d          -0.470  -0.600  -0.209  0.00  0.00     0.042 A 
ATOM      3  C3  <0> d          -1.706  -1.232  -0.036  0.00  0.00    -0.001 A 
ATOM      4  C4  <0> d          -1.752  -2.586   0.084  0.00  0.00     0.041 A 
ATOM      5  N1  <0> d          -0.595  -3.296   0.032  0.00  0.00    -0.239 N 
ATOM      6  C5  <0> d           0.601  -2.644  -0.138  0.00  0.00     0.154 A 
ATOM      7  N2  <0> d           0.636  -1.312  -0.260  0.00  0.00    -0.234 NA
ATOM      8  C6  <0> d           1.605  -3.609  -0.153  0.00  0.00     0.128 A 
ATOM      9  C7  <0> d           1.000  -4.854   0.011  0.00  0.00     0.263 A 
ATOM     10  O1  <0> d           1.576  -5.929   0.047  0.00  0.00    -0.267 OA
ATOM     11  N3  <0> d          -0.330  -4.668   0.123  0.00  0.00    -0.258 N 
ATOM     12  H1  <0> d          -0.991  -5.366   0.247  0.00  0.00     0.191 HD
ATOM     13  C8  <0> d          -3.072  -3.290   0.271  0.00  0.00     0.071 C 
ENDROOT
BRANCH   3  14
ATOM     14  C9  <0> d          -2.974  -0.420   0.018  0.00  0.00     0.145 C 
BRANCH  14  15
ATOM     15  C10 <0> d          -3.196   0.073   1.424  0.00  0.00     0.222 C 
ATOM     16  O2  <0> d          -2.402  -0.207   2.297  0.00  0.00    -0.273 OA
ATOM     17  N4  <0> d          -4.276   0.826   1.712  0.00  0.00    -0.358 N 
ATOM     18  H11 <0> d          -4.911   1.050   1.014  0.00  0.00     0.162 HD
BRANCH  17  19
ATOM     19  C11 <0> d          -4.492   1.305   3.080  0.00  0.00     0.161 C 
BRANCH  19  20
ATOM     20  C12 <0> d          -5.705   2.236   3.108  0.00  0.00     0.135 C 
ATOM     21  C13 <0> d          -6.966   1.442   2.763  0.00  0.00     0.048 C 
ATOM     22  C14 <0> d          -5.850   2.842   4.506  0.00  0.00     0.048 C 
BRANCH  20  23
ATOM     23  N5  <0> d          -5.520   3.312   2.125  0.00  0.00    -0.069 N 
ATOM     24  C15 <0> d          -6.684   4.208   2.155  0.00  0.00     0.270 C 
ATOM     25  C16 <0> d          -4.308   4.073   2.454  0.00  0.00     0.270 C 
ATOM     26  H26 <0> d          -5.427   2.913   1.203  0.00  0.00     0.280 HD
ENDBRANCH  20  23
ENDBRANCH  19  20
ENDBRANCH  17  19
ENDBRANCH  14  15
ENDBRANCH   3  14
TORSDOF 5
