REMARK  3 active torsions:
REMARK  status: ('A' for Active; 'I' for Inactive)
REMARK    1  A    between atoms: C4_5  and  C6_7 
REMARK    2  A    between atoms: C7_10  and  C8_12 
REMARK    3  A    between atoms: C10_14  and  C11_17 
ROOT
ATOM      1  C6  <0> d           1.267  -2.145  -0.022  0.00  0.00     0.181 A 
ATOM      2  N2  <0> d           0.220  -2.902  -0.022  0.00  0.00    -0.111 NA
ATOM      3  O1  <0> d           0.583  -4.269  -0.031  0.00  0.00    -0.226 OA
ATOM      4  C7  <0> d           2.018  -4.311  -0.038  0.00  0.00     0.285 A 
ATOM      5  N3  <0> d           2.428  -2.898  -0.038  0.00  0.00    -0.341 N 
ATOM      6  H7  <0> d           3.337  -2.559  -0.045  0.00  0.00     0.164 HD
ENDROOT
BRANCH   4   7
ATOM      7  C8  <0> d           2.526  -5.011  -1.300  0.00  0.00     0.207 A 
ATOM      8  N5  <0> d           3.995  -5.105  -1.287  0.00  0.00    -0.179 NA
ATOM      9  N4  <0> d           4.301  -6.303  -1.296  0.00  0.00    -0.154 NA
ATOM     10  C10 <0> d           3.241  -7.155  -1.318  0.00  0.00     0.094 A 
ATOM     11  C9  <0> d           2.082  -6.463  -1.323  0.00  0.00     0.041 A 
BRANCH  10  12
ATOM     12  C11 <0> d           3.344  -8.629  -1.334  0.00  0.00     0.035 A 
ATOM     13  S1  <0> d           2.040  -9.848  -1.362  0.00  0.00    -0.100 SA
ATOM     14  C14 <0> d           3.062 -11.312  -1.371  0.00  0.00     0.050 A 
ATOM     15  C13 <0> d           4.313 -10.786  -1.345  0.00  0.00     0.008 A 
ATOM     16  C12 <0> d           4.465  -9.416  -1.326  0.00  0.00     0.022 A 
ENDBRANCH  10  12
ENDBRANCH   4   7
BRANCH   1  17
ATOM     17  C4  <0> d           1.229  -0.664  -0.013  0.00  0.00     0.104 A 
ATOM     18  N1  <0> d           2.365   0.023  -0.020  0.00  0.00    -0.257 NA
ATOM     19  C3  <0> d           2.375   1.339  -0.013  0.00  0.00     0.117 A 
ATOM     20  C2  <0> d           1.193   2.059   0.002  0.00  0.00     0.019 A 
ATOM     21  C1  <0> d          -0.017   1.380   0.010  0.00  0.00     0.004 A 
ATOM     22  C5  <0> d           0.002  -0.004   0.002  0.00  0.00     0.036 A 
ENDBRANCH   1  17
TORSDOF 3
