REMARK  2 active torsions:
REMARK  status: ('A' for Active; 'I' for Inactive)
REMARK    1  A    between atoms: C5_6  and  C9_13 
REMARK       I    between atoms: C9_13  and  N3_15 
REMARK    2  A    between atoms: N3_15  and  C10_16 
ROOT
ATOM      1  C1  <0> d          -0.016   1.398   0.014  0.00  0.00     0.024 A 
ATOM      2  C2  <0> d           1.162   2.086   0.018  0.00  0.00     0.052 A 
ATOM      3  C3  <0> d           2.376   1.381  -0.002  0.00  0.00     0.136 A 
ATOM      4  N1  <0> d           3.526   2.060   0.003  0.00  0.00    -0.242 NA
ATOM      5  C4  <0> d           4.692   1.448  -0.015  0.00  0.00     0.141 A 
ATOM      6  C5  <0> d           4.744   0.048  -0.039  0.00  0.00     0.118 A 
ATOM      7  C6  <0> d           3.525  -0.673  -0.044  0.00  0.00     0.270 A 
ATOM      8  O1  <0> d           3.524  -1.891  -0.065  0.00  0.00    -0.266 OA
ATOM      9  N2  <0> d           2.362   0.015  -0.024  0.00  0.00    -0.271 N 
ATOM     10  C7  <0> d           1.183  -0.665  -0.028  0.00  0.00     0.121 A 
ATOM     11  C8  <0> d           0.002  -0.002  -0.010  0.00  0.00     0.027 A 
ATOM     12 Br1  <0> d          -1.623  -0.969  -0.016  0.00  0.00    -0.050 Br
ENDROOT
BRANCH   6  13
ATOM     13  C9  <0> d           6.031  -0.655  -0.060  0.00  0.00     0.277 C 
ATOM     14  O2  <0> d           7.067  -0.025  -0.162  0.00  0.00    -0.267 OA
ATOM     15  N3  <0> d           6.066  -1.999   0.035  0.00  0.00    -0.150 N 
ATOM     16  H6  <0> d           5.240  -2.507   0.040  0.00  0.00     0.188 HD
BRANCH  15  17
ATOM     17  C10 <0> d           7.294  -2.662   0.124  0.00  0.00     0.747 A 
ATOM     18  N4  <0> d           7.460  -3.984   0.221  0.00  0.00    -0.055 NA
ATOM     19  C11 <0> d           8.735  -4.268   0.285  0.00  0.00     0.245 A 
ATOM     20  N5  <0> d           9.425  -3.115   0.230  0.00  0.00    -0.255 N 
ATOM     21  H1  <0> d          10.389  -3.014   0.257  0.00  0.00     0.190 HD
ATOM     22  N6  <0> d           8.474  -2.088   0.121  0.00  0.00     0.020 NA
ENDBRANCH  15  17
ENDBRANCH   6  13
TORSDOF 2
