REMARK  2 active torsions:
REMARK  status: ('A' for Active; 'I' for Inactive)
REMARK    1  A    between atoms: C6_6  and  C7_7 
REMARK    2  A    between atoms: C7_7  and  C8_8 
ROOT
ATOM      1  C1  <0> d          -0.017   1.380   0.010  0.00  0.00     0.011 A 
ATOM      2  C2  <0> d           1.166   2.092   0.002  0.00  0.00     0.032 A 
ATOM      3  C3  <0> d           2.382   1.419  -0.014  0.00  0.00     0.062 A 
ATOM      4  C4  <0> d           2.401   0.023  -0.022  0.00  0.00     0.062 A 
ATOM      5  C5  <0> d           1.204  -0.683  -0.014  0.00  0.00     0.040 A 
ATOM      6  C6  <0> d           0.002  -0.004   0.002  0.00  0.00    -0.035 A 
ATOM      7  N2  <0> d           3.609  -0.669  -0.038  0.00  0.00    -0.317 N 
ATOM      8  H2  <0> d           3.612  -1.639  -0.044  0.00  0.00     0.169 HD
ATOM      9  C13 <0> d           4.776   0.007  -0.046  0.00  0.00     0.314 A 
ATOM     10  O1  <0> d           5.832  -0.592  -0.061  0.00  0.00    -0.262 OA
ATOM     11  C14 <0> d           4.756   1.499  -0.037  0.00  0.00     0.314 A 
ATOM     12  O2  <0> d           5.795   2.126  -0.044  0.00  0.00    -0.262 OA
ATOM     13  N3  <0> d           3.571   2.143  -0.021  0.00  0.00    -0.317 N 
ATOM     14  H3  <0> d           3.547   3.113  -0.016  0.00  0.00     0.169 HD
ENDROOT
BRANCH   6  15
ATOM     15  C7  <0> d          -1.294  -0.772   0.011  0.00  0.00     0.142 C 
ATOM     16 Br2  <0> d          -2.415  -0.184  -1.493  0.00  0.00    -0.079 Br
BRANCH  15  17
ATOM     17  C8  <0> d          -2.020  -0.519   1.307  0.00  0.00     0.053 A 
ATOM     18  N1  <0> d          -1.407  -0.749   2.452  0.00  0.00    -0.263 NA
ATOM     19  C12 <0> d          -2.000  -0.536   3.611  0.00  0.00     0.136 A 
ATOM     20  C11 <0> d          -3.301  -0.071   3.664  0.00  0.00     0.028 A 
ATOM     21  C10 <0> d          -3.980   0.176   2.479  0.00  0.00     0.022 A 
ATOM     22 Br1  <0> d          -4.145   0.223   5.331  0.00  0.00    -0.050 Br
ATOM     23  C9  <0> d          -3.321  -0.053   1.282  0.00  0.00     0.030 A 
ENDBRANCH  15  17
ENDBRANCH   6  15
TORSDOF 2
