REMARK  2 active torsions:
REMARK  status: ('A' for Active; 'I' for Inactive)
REMARK    1  A    between atoms: C4_5  and  N2_7 
REMARK       I    between atoms: N2_7  and  C6_8 
REMARK    2  A    between atoms: C6_8  and  C7_10 
ROOT
ATOM      1  N2  <0> d           0.402  -2.556   2.538  0.00  0.00    -0.349 N 
ATOM      2  C6  <0> d          -0.146  -3.227   3.570  0.00  0.00     0.268 C 
ATOM      3  O1  <0> d          -1.204  -2.855   4.044  0.00  0.00    -0.266 OA
ATOM      4  H12 <0> d           1.245  -2.852   2.160  0.00  0.00     0.163 HD
ENDROOT
BRANCH   1   5
ATOM      5  C4  <0> d          -0.274  -1.379   1.986  0.00  0.00     0.112 C 
ATOM      6  C3  <0> d          -1.309  -1.797   0.908  0.00  0.00     0.054 C 
ATOM      7  C2  <0> d          -1.383  -0.521   0.034  0.00  0.00     0.236 C 
ATOM      8  N1  <0> d           0.002  -0.004   0.002  0.00  0.00    -0.073 N 
ATOM      9  C1  <0> d          -0.018   1.465   0.010  0.00  0.00     0.269 C 
ATOM     10  C5  <0> d           0.714  -0.497   1.195  0.00  0.00     0.259 C 
ATOM     11  H15 <0> d           0.466  -0.334  -0.831  0.00  0.00     0.279 HD
ENDBRANCH   1   5
BRANCH   2  12
ATOM     12  C7  <0> d           0.531  -4.404   4.122  0.00  0.00     0.102 A 
ATOM     13  N3  <0> d           1.725  -4.934   3.688  0.00  0.00    -0.360 N 
ATOM     14  C10 <0> d           2.022  -6.016   4.450  0.00  0.00     0.107 A 
ATOM     15  H2  <0> d           2.265  -4.590   2.959  0.00  0.00     0.165 HD
ATOM     16  C9  <0> d           1.035  -6.194   5.360  0.00  0.00     0.028 A 
ATOM     17  C8  <0> d           0.085  -5.186   5.167  0.00  0.00     0.055 A 
ATOM     18 Br1  <0> d           0.954  -7.565   6.661  0.00  0.00    -0.050 Br
ENDBRANCH   2  12
TORSDOF 2
