REMARK  3 active torsions:
REMARK  status: ('A' for Active; 'I' for Inactive)
REMARK    1  A    between atoms: C5_7  and  N2_9 
REMARK    2  A    between atoms: N2_9  and  C7_10 
REMARK    3  A    between atoms: N3_13  and  C11_15 
ROOT
ATOM      1  N2  <0> d           0.153   0.354  -2.422  0.00  0.00     0.103 N 
ATOM      2  H12 <0> d          -0.750   0.766  -2.239  0.00  0.00     0.317 HD
ENDROOT
BRANCH   1   3
ATOM      3  C5  <0> d           0.560  -0.531  -1.323  0.00  0.00     0.312 C 
ATOM      4  C4  <0> d           2.071  -0.563  -1.228  0.00  0.00     0.251 C 
ATOM      5  N1  <0> d           2.768   0.575  -1.227  0.00  0.00    -0.359 N 
ATOM      6  O1  <0> d           2.651  -1.626  -1.153  0.00  0.00    -0.271 OA
ATOM      7  C3  <0> d           2.077   1.871  -1.324  0.00  0.00     0.122 C 
ATOM      8  H9  <0> d           3.735   0.548  -1.162  0.00  0.00     0.162 HD
ATOM      9  C2  <0> d           1.362   2.145   0.001  0.00  0.00     0.020 C 
ATOM     10  C1  <0> d          -0.018   1.514   0.010  0.00  0.00     0.004 C 
ATOM     11  C6  <0> d           0.002  -0.004   0.002  0.00  0.00     0.045 C 
ENDBRANCH   1   3
BRANCH   1  12
ATOM     12  C7  <0> d           0.154  -0.364  -3.704  0.00  0.00     0.248 C 
ATOM     13  C10 <0> d           0.288   0.624  -4.882  0.00  0.00     0.271 C 
ATOM     14  N3  <0> d          -0.603   0.141  -5.957  0.00  0.00    -0.065 N 
ATOM     15  C9  <0> d          -1.251  -1.109  -5.506  0.00  0.00     0.237 C 
ATOM     16  H24 <0> d          -1.306   0.836  -6.155  0.00  0.00     0.280 HD
ATOM     17  C8  <0> d          -1.221  -1.034  -3.959  0.00  0.00     0.065 C 
BRANCH  14  18
ATOM     18  C11 <0> d           0.187  -0.121  -7.168  0.00  0.00     0.188 A 
ATOM     19  C13 <0> d          -0.562  -0.621  -8.405  0.00  0.00     0.035 A 
ATOM     20  C12 <0> d          -0.024   0.810  -8.363  0.00  0.00     0.035 A 
ENDBRANCH  14  18
ENDBRANCH   1  12
TORSDOF 3
