REMARK  5 active torsions:
REMARK  status: ('A' for Active; 'I' for Inactive)
REMARK    1  A    between atoms: C2_2  and  C3_3 
REMARK    2  A    between atoms: C3_3  and  N1_4 
REMARK    3  A    between atoms: C6_9  and  C7_11 
REMARK    4  A    between atoms: C7_11  and  C8_12 
REMARK       I    between atoms: C8_12  and  N3_14 
REMARK    5  A    between atoms: N3_14  and  C9_15 
ROOT
ATOM      1  C8  <0> d           2.835   3.595  -1.173  0.00  0.00     0.223 C 
ATOM      2  O2  <0> d           3.544   3.468  -0.197  0.00  0.00    -0.273 OA
ATOM      3  N3  <0> d           3.208   4.418  -2.174  0.00  0.00    -0.326 N 
ATOM      4  H10 <0> d           2.602   4.478  -3.091  0.00  0.00     0.169 HD
ENDROOT
BRANCH   1   5
ATOM      5  C7  <0> d           1.538   2.834  -1.266  0.00  0.00     0.128 C 
BRANCH   5   6
ATOM      6  C6  <0> d           1.355   1.981  -0.010  0.00  0.00     0.156 A 
ATOM      7  C5  <0> d           0.001   1.290  -0.005  0.00  0.00     0.238 A 
ATOM      8  N2  <0> d           0.029  -0.032  -0.015  0.00  0.00    -0.305 N 
ATOM      9  O1  <0> d          -1.039   1.912   0.002  0.00  0.00    -0.272 OA
ATOM     10  C4  <0> d           1.212  -0.745  -0.028  0.00  0.00     0.165 A 
ATOM     11  H7  <0> d          -0.934  -0.564  -0.012  0.00  0.00     0.171 HD
ATOM     12  N1  <0> d           1.372  -2.038  -0.039  0.00  0.00    -0.263 NA
ATOM     13  S1  <0> d           2.471   0.522  -0.028  0.00  0.00    -0.077 SA
BRANCH  12  14
ATOM     14  C3  <0> d           2.721  -2.609  -0.053  0.00  0.00     0.178 C 
BRANCH  14  15
ATOM     15  C2  <0> d           2.958  -3.367   1.228  0.00  0.00    -0.015 C 
ATOM     16  C1  <0> d           3.330  -4.623   1.186  0.00  0.00     0.008 C 
ENDBRANCH  14  15
ENDBRANCH  12  14
ENDBRANCH   5   6
ENDBRANCH   1   5
BRANCH   3  17
ATOM     17  C9  <0> d           4.365   5.195  -2.047  0.00  0.00     0.058 A 
ATOM     18  C14 <0> d           4.412   6.469  -2.602  0.00  0.00     0.062 A 
ATOM     19  C13 <0> d           5.555   7.235  -2.474  0.00  0.00     0.051 A 
ATOM     20 Cl1  <0> d           3.035   7.097  -3.453  0.00  0.00    -0.082 Cl
ATOM     21  C12 <0> d           6.652   6.735  -1.796  0.00  0.00     0.057 A 
ATOM     22  C11 <0> d           6.608   5.466  -1.242  0.00  0.00     0.058 A 
ATOM     23 Cl2  <0> d           8.087   7.700  -1.638  0.00  0.00    -0.082 Cl
ATOM     24  C10 <0> d           5.465   4.698  -1.362  0.00  0.00     0.057 A 
ATOM     25 Cl3  <0> d           7.987   4.843  -0.391  0.00  0.00    -0.082 Cl
ENDBRANCH   3  17
TORSDOF 5
