REMARK  5 active torsions:
REMARK  status: ('A' for Active; 'I' for Inactive)
REMARK    1  A    between atoms: C2_2  and  C5_5 
REMARK    2  A    between atoms: C8_8  and  C11_11 
REMARK       I    between atoms: C11_11  and  N1_13 
REMARK    3  A    between atoms: N1_13  and  C12_14 
REMARK    4  A    between atoms: C15_17  and  N2_20 
REMARK       I    between atoms: N2_20  and  C18_21 
REMARK    5  A    between atoms: C18_21  and  C19_23 
ROOT
ATOM      1  C12 <0> d           4.568  -1.901  -6.166  0.00  0.00     0.035 A 
ATOM      2  C13 <0> d           3.817  -2.619  -7.088  0.00  0.00     0.032 A 
ATOM      3  C14 <0> d           4.388  -3.024  -8.278  0.00  0.00     0.032 A 
ATOM      4  C15 <0> d           5.713  -2.713  -8.553  0.00  0.00     0.034 A 
ATOM      5  C16 <0> d           6.464  -1.995  -7.632  0.00  0.00     0.032 A 
ATOM      6  C17 <0> d           5.892  -1.585  -6.444  0.00  0.00     0.032 A 
ENDROOT
BRANCH   1   7
ATOM      7  N1  <0> d           3.989  -1.490  -4.959  0.00  0.00    -0.323 N 
ATOM      8  C11 <0> d           4.336  -0.308  -4.413  0.00  0.00     0.256 C 
ATOM      9  O1  <0> d           5.212   0.363  -4.923  0.00  0.00    -0.267 OA
ATOM     10  H14 <0> d           3.339  -2.057  -4.516  0.00  0.00     0.169 HD
BRANCH   8  11
ATOM     11  C8  <0> d           3.651   0.172  -3.195  0.00  0.00     0.032 A 
ATOM     12  C7  <0> d           4.008   1.397  -2.627  0.00  0.00     0.017 A 
ATOM     13  C6  <0> d           3.365   1.839  -1.489  0.00  0.00     0.009 A 
ATOM     14  C5  <0> d           2.368   1.073  -0.912  0.00  0.00    -0.051 A 
ATOM     15  C10 <0> d           2.014  -0.144  -1.466  0.00  0.00     0.009 A 
ATOM     16  C9  <0> d           2.645  -0.596  -2.607  0.00  0.00     0.017 A 
BRANCH  14  17
ATOM     17  C2  <0> d           1.670   1.563   0.331  0.00  0.00    -0.024 C 
ATOM     18  C1  <0> d           1.885   0.560   1.466  0.00  0.00     0.019 C 
ATOM     19  C3  <0> d           0.172   1.704   0.052  0.00  0.00     0.019 C 
ATOM     20  C4  <0> d           2.244   2.923   0.735  0.00  0.00     0.019 C 
ENDBRANCH  14  17
ENDBRANCH   8  11
ENDBRANCH   1   7
BRANCH   4  21
ATOM     21  N2  <0> d           6.292  -3.124  -9.761  0.00  0.00    -0.327 N 
ATOM     22  C18 <0> d           7.590  -3.487  -9.796  0.00  0.00     0.226 C 
ATOM     23  O2  <0> d           8.277  -3.378  -8.803  0.00  0.00    -0.273 OA
ATOM     24  H19 <0> d           5.759  -3.148 -10.571  0.00  0.00     0.169 HD
BRANCH  22  25
ATOM     25  C19 <0> d           8.186  -4.028 -11.070  0.00  0.00     0.081 C 
ATOM     26  C23 <0> d           9.663  -4.361 -10.843  0.00  0.00     0.041 C 
ATOM     27  C22 <0> d          10.242  -4.984 -12.116  0.00  0.00     0.233 C 
ATOM     28  N3  <0> d           9.506  -6.211 -12.442  0.00  0.00    -0.075 N 
ATOM     29  C21 <0> d           8.103  -5.889 -12.732  0.00  0.00     0.233 C 
ATOM     30  H25 <0> d           9.550  -6.846 -11.660  0.00  0.00     0.277 HD
ATOM     31  H30 <0> d           9.924  -6.647 -13.251  0.00  0.00     0.277 HD
ATOM     32  C20 <0> d           7.443  -5.302 -11.483  0.00  0.00     0.041 C 
ENDBRANCH  22  25
ENDBRANCH   4  21
TORSDOF 5
