REMARK  5 active torsions:
REMARK  status: ('A' for Active; 'I' for Inactive)
REMARK    1  A    between atoms: C3_3  and  C6_8 
REMARK    2  A    between atoms: C6_8  and  N3_9 
REMARK       I    between atoms: N3_9  and  C7_10 
REMARK    3  A    between atoms: C7_10  and  C8_12 
REMARK    4  A    between atoms: C11_18  and  C15_25 
REMARK    5  A    between atoms: C13_20  and  C14_21 
ROOT
ATOM      1  C8  <0> d           2.932   0.929  -4.567  0.00  0.00     0.096 A 
ATOM      2  C9  <0> d           4.097   0.888  -3.760  0.00  0.00     0.160 A 
ATOM      3  N4  <0> d           5.102   1.325  -4.469  0.00  0.00    -0.181 NA
ATOM      4  N5  <0> d           4.651   1.664  -5.743  0.00  0.00    -0.240 N 
ATOM      5  C10 <0> d           3.321   1.414  -5.802  0.00  0.00     0.138 A 
ATOM      6  N6  <0> d           2.563   1.634  -6.939  0.00  0.00    -0.365 N 
ATOM      7  C11 <0> d           3.315   1.883  -8.185  0.00  0.00     0.118 C 
ATOM      8  C12 <0> d           4.470   2.842  -7.872  0.00  0.00     0.066 C 
ATOM      9  C13 <0> d           5.428   2.197  -6.867  0.00  0.00     0.221 C 
ATOM     10  H14 <0> d           1.594   1.625  -6.918  0.00  0.00     0.161 HD
ENDROOT
BRANCH   1  11
ATOM     11  C7  <0> d           1.577   0.529  -4.170  0.00  0.00     0.257 C 
ATOM     12  N3  <0> d           1.347   0.073  -2.923  0.00  0.00    -0.352 N 
ATOM     13  H12 <0> d           2.077   0.008  -2.288  0.00  0.00     0.163 HD
ATOM     14  O1  <0> d           0.661   0.610  -4.967  0.00  0.00    -0.267 OA
BRANCH  12  15
ATOM     15  C6  <0> d          -0.006  -0.327  -2.527  0.00  0.00     0.165 C 
BRANCH  15  16
ATOM     16  C3  <0> d           0.008  -0.796  -1.095  0.00  0.00     0.003 A 
ATOM     17  C2  <0> d           0.002  -0.004   0.002  0.00  0.00     0.035 A 
ATOM     18  C1  <0> d          -0.018   1.503   0.010  0.00  0.00     0.070 C 
ATOM     19  N2  <0> d           0.024  -0.805   1.088  0.00  0.00    -0.278 N 
ATOM     20  N1  <0> d           0.035  -2.134   0.643  0.00  0.00    -0.184 NA
ATOM     21  C5  <0> d           0.031  -0.364   2.485  0.00  0.00     0.179 C 
ATOM     22  C4  <0> d           0.028  -2.127  -0.666  0.00  0.00     0.149 A 
ENDBRANCH  15  16
ENDBRANCH  12  15
ENDBRANCH   1  11
BRANCH   9  23
ATOM     23  C14 <0> d           6.425   3.237  -6.353  0.00  0.00     0.409 C 
ATOM     24  F1  <0> d           7.291   2.637  -5.432  0.00  0.00    -0.169 F 
ATOM     25  F2  <0> d           7.165   3.744  -7.427  0.00  0.00    -0.169 F 
ATOM     26  F3  <0> d           5.732   4.280  -5.731  0.00  0.00    -0.169 F 
ENDBRANCH   9  23
BRANCH   7  27
ATOM     27  C15 <0> d           2.402   2.502  -9.212  0.00  0.00    -0.035 A 
ATOM     28  C20 <0> d           2.488   2.114 -10.536  0.00  0.00     0.009 A 
ATOM     29  C19 <0> d           1.647   2.678 -11.477  0.00  0.00     0.001 A 
ATOM     30  C18 <0> d           0.727   3.637 -11.096  0.00  0.00     0.000 A 
ATOM     31  C17 <0> d           0.644   4.028  -9.773  0.00  0.00     0.001 A 
ATOM     32  C16 <0> d           1.482   3.461  -8.831  0.00  0.00     0.009 A 
ENDBRANCH   7  27
TORSDOF 5
