REMARK  5 active torsions:
REMARK  status: ('A' for Active; 'I' for Inactive)
REMARK    1  A    between atoms: C6_7  and  N2_8 
REMARK    2  A    between atoms: N2_8  and  C7_9 
REMARK    3  A    between atoms: C8_10  and  N6_23 
REMARK    4  A    between atoms: C9_11  and  N5_15 
REMARK    5  A    between atoms: N5_15  and  C11_16 
ROOT
ATOM      1  C7  <0> d           0.755  -0.720   3.670  0.00  0.00     0.160 A 
ATOM      2  C8  <0> d           0.522  -0.048   4.872  0.00  0.00     0.119 A 
ATOM      3  C9  <0> d           0.300  -0.809   6.021  0.00  0.00     0.159 A 
ATOM      4  N3  <0> d           0.318  -2.136   5.928  0.00  0.00    -0.222 NA
ATOM      5  C10 <0> d           0.541  -2.732   4.774  0.00  0.00     0.237 A 
ATOM      6  N4  <0> d           0.750  -2.051   3.665  0.00  0.00    -0.222 NA
ENDROOT
BRANCH   1   7
ATOM      7  N2  <0> d           0.982  -0.010   2.496  0.00  0.00    -0.323 N 
ATOM      8  H7  <0> d           0.984   0.960   2.509  0.00  0.00     0.169 HD
BRANCH   7   9
ATOM      9  C6  <0> d           1.207  -0.691   1.304  0.00  0.00     0.134 A 
ATOM     10  C2  <0> d           1.433   0.025   0.133  0.00  0.00    -0.016 A 
ATOM     11  C1  <0> d           1.437   1.532   0.148  0.00  0.00     0.052 C 
ATOM     12  C3  <0> d           1.661  -0.664  -1.044  0.00  0.00     0.012 A 
ATOM     13  C4  <0> d           1.649  -2.052  -1.012  0.00  0.00     0.020 A 
ATOM     14  C5  <0> d           1.412  -2.699   0.185  0.00  0.00     0.119 A 
ATOM     15  N1  <0> d           1.197  -2.015   1.292  0.00  0.00    -0.243 NA
ENDBRANCH   7   9
ENDBRANCH   1   7
BRANCH   2  16
ATOM     16  N6  <0> d           0.513   1.355   4.923  0.00  0.00    -0.393 N 
ATOM     17  H14 <0> d           0.670   1.871   4.117  0.00  0.00     0.156 HD
ATOM     18  H15 <0> d           0.351   1.809   5.765  0.00  0.00     0.156 HD
ENDBRANCH   2  16
BRANCH   3  19
ATOM     19  N5  <0> d           0.064  -0.190   7.243  0.00  0.00    -0.338 N 
ATOM     20  H9  <0> d          -0.042   0.773   7.287  0.00  0.00     0.167 HD
BRANCH  19  21
ATOM     21  C11 <0> d          -0.020  -0.955   8.410  0.00  0.00     0.055 A 
ATOM     22  C16 <0> d          -0.712  -0.470   9.514  0.00  0.00     0.060 A 
ATOM     23  C15 <0> d          -0.797  -1.232  10.663  0.00  0.00     0.026 A 
ATOM     24 Cl1  <0> d          -1.474   1.088   9.445  0.00  0.00    -0.082 Cl
ATOM     25  C14 <0> d          -0.185  -2.471  10.720  0.00  0.00     0.002 A 
ATOM     26  C13 <0> d           0.509  -2.954   9.626  0.00  0.00     0.002 A 
ATOM     27  C12 <0> d           0.594  -2.200   8.471  0.00  0.00     0.031 A 
ENDBRANCH  19  21
ENDBRANCH   3  19
TORSDOF 5
