REMARK  5 active torsions:
REMARK  status: ('A' for Active; 'I' for Inactive)
REMARK    1  A    between atoms: N2_5  and  S1_8 
REMARK    2  A    between atoms: S1_8  and  C6_11 
REMARK    3  A    between atoms: C9_14  and  C12_18 
REMARK    4  A    between atoms: C13_19  and  C14_20 
REMARK    5  A    between atoms: C14_20  and  O3_21 
ROOT
ATOM      1  C6  <0> d           3.682  -3.117  -0.333  0.00  0.00     0.101 A 
ATOM      2  C7  <0> d           4.669  -3.323   0.614  0.00  0.00     0.028 A 
ATOM      3  C8  <0> d           5.916  -2.756   0.449  0.00  0.00     0.022 A 
ATOM      4  C9  <0> d           6.181  -1.973  -0.675  0.00  0.00     0.019 A 
ATOM      5  C10 <0> d           5.182  -1.769  -1.627  0.00  0.00     0.046 A 
ATOM      6  C11 <0> d           3.939  -2.346  -1.454  0.00  0.00     0.058 A 
ATOM      7 Cl1  <0> d           2.696  -2.099  -2.640  0.00  0.00    -0.083 Cl
ENDROOT
BRANCH   1   8
ATOM      8  S1  <0> d           2.092  -3.845  -0.115  0.00  0.00     0.262 S 
ATOM      9  O1  <0> d           2.149  -4.592   1.092  0.00  0.00    -0.200 OA
ATOM     10  O2  <0> d           1.740  -4.433  -1.360  0.00  0.00    -0.200 OA
BRANCH   8  11
ATOM     11  N2  <0> d           1.019  -2.610   0.144  0.00  0.00    -0.303 N 
ATOM     12  C3  <0> d           0.202  -2.076  -0.956  0.00  0.00     0.165 C 
ATOM     13  C2  <0> d           0.358  -0.552  -0.984  0.00  0.00     0.292 C 
ATOM     14  N1  <0> d           0.045  -0.007   0.343  0.00  0.00     0.087 N 
ATOM     15  C1  <0> d           0.015   1.462   0.315  0.00  0.00     0.310 C 
ATOM     16  C5  <0> d           0.990  -0.495   1.357  0.00  0.00     0.292 C 
ATOM     17  C4  <0> d           0.859  -2.017   1.480  0.00  0.00     0.165 C 
ENDBRANCH   8  11
ENDBRANCH   1   8
BRANCH   4  18
ATOM     18  C12 <0> d           7.473  -1.382  -0.851  0.00  0.00    -0.065 C 
ATOM     19  C13 <0> d           8.533  -0.897  -0.996  0.00  0.00    -0.075 C 
BRANCH  19  20
ATOM     20  C14 <0> d           9.861  -0.289  -1.177  0.00  0.00     0.258 C 
BRANCH  20  21
ATOM     21  O3  <0> d           9.881   0.458  -2.394  0.00  0.00    -0.389 OA
ATOM     22  H17 <0> d          10.728   0.888  -2.578  0.00  0.00     0.210 HD
ENDBRANCH  20  21
ENDBRANCH  19  20
ENDBRANCH   4  18
TORSDOF 5
