REMARK  7 active torsions:
REMARK  status: ('A' for Active; 'I' for Inactive)
REMARK    1  A    between atoms: C2_2  and  N1_3 
REMARK    2  A    between atoms: C3_4  and  C10_21 
REMARK    3  A    between atoms: C4_7  and  S1_8 
REMARK    4  A    between atoms: S1_8  and  C5_9 
REMARK    5  A    between atoms: C5_9  and  C6_10 
REMARK       I    between atoms: C6_10  and  N4_12 
REMARK       I    between atoms: N4_12  and  C7_13 
REMARK       I    between atoms: C7_13  and  N5_15 
REMARK    6  A    between atoms: N5_15  and  C8_16 
REMARK    7  A    between atoms: C8_16  and  C9_17 
ROOT
ATOM      1  S1  <0> d          -1.799  -0.352  -2.747  0.00  0.00    -0.081 SA
ENDROOT
BRANCH   1   2
ATOM      2  C4  <0> d          -2.193  -0.690  -1.063  0.00  0.00     0.192 A 
ATOM      3  N1  <0> d          -1.380  -0.491   0.014  0.00  0.00    -0.307 N 
ATOM      4  C3  <0> d          -2.111  -0.889   1.111  0.00  0.00     0.164 A 
ATOM      5  N2  <0> d          -3.277  -1.298   0.668  0.00  0.00    -0.128 NA
ATOM      6  N3  <0> d          -3.325  -1.185  -0.611  0.00  0.00    -0.122 NA
BRANCH   3   7
ATOM      7  C2  <0> d          -0.015   0.042   0.007  0.00  0.00     0.128 C 
ATOM      8  C1  <0> d          -0.065   1.571   0.028  0.00  0.00     0.027 C 
ENDBRANCH   3   7
BRANCH   4   9
ATOM      9  C10 <0> d          -1.666  -0.862   2.519  0.00  0.00     0.015 A 
ATOM     10  C14 <0> d          -2.312  -1.634   3.493  0.00  0.00     0.034 A 
ATOM     11  C13 <0> d          -1.861  -1.582   4.795  0.00  0.00     0.117 A 
ATOM     12  N6  <0> d          -0.843  -0.812   5.129  0.00  0.00    -0.273 NA
ATOM     13  C12 <0> d          -0.209  -0.065   4.245  0.00  0.00     0.117 A 
ATOM     14  C11 <0> d          -0.590  -0.060   2.920  0.00  0.00     0.034 A 
ENDBRANCH   4   9
ENDBRANCH   1   2
BRANCH   1  15
ATOM     15  C5  <0> d          -3.294  -0.835  -3.653  0.00  0.00     0.185 C 
BRANCH  15  16
ATOM     16  C6  <0> d          -3.089  -0.594  -5.126  0.00  0.00     0.235 C 
ATOM     17  O1  <0> d          -2.037  -0.141  -5.525  0.00  0.00    -0.272 OA
ATOM     18  N4  <0> d          -4.073  -0.882  -6.000  0.00  0.00    -0.279 N 
ATOM     19  C7  <0> d          -3.889  -0.666  -7.318  0.00  0.00     0.323 C 
ATOM     20  H8  <0> d          -4.914  -1.245  -5.681  0.00  0.00     0.173 HD
ATOM     21  O2  <0> d          -2.836  -0.211  -7.718  0.00  0.00    -0.247 OA
ATOM     22  N5  <0> d          -4.874  -0.954  -8.192  0.00  0.00    -0.334 N 
ATOM     23  H9  <0> d          -5.715  -1.317  -7.873  0.00  0.00     0.164 HD
BRANCH  22  24
ATOM     24  C8  <0> d          -4.674  -0.719  -9.624  0.00  0.00     0.241 C 
BRANCH  24  25
ATOM     25  C9  <0> d          -5.935  -1.127 -10.389  0.00  0.00     0.403 C 
ATOM     26  F1  <0> d          -7.020  -0.367  -9.938  0.00  0.00    -0.169 F 
ATOM     27  F2  <0> d          -5.744  -0.903 -11.756  0.00  0.00    -0.169 F 
ATOM     28  F3  <0> d          -6.194  -2.484 -10.170  0.00  0.00    -0.169 F 
ENDBRANCH  24  25
ENDBRANCH  22  24
ENDBRANCH  15  16
ENDBRANCH   1  15
TORSDOF 7
