REMARK  9 active torsions:
REMARK  status: ('A' for Active; 'I' for Inactive)
REMARK    1  A    between atoms: C2_2  and  C3_3 
REMARK    2  A    between atoms: C3_3  and  N1_4 
REMARK    3  A    between atoms: N1_4  and  C4_5 
REMARK    4  A    between atoms: N1_4  and  C8_10 
REMARK    5  A    between atoms: C4_5  and  C5_6 
REMARK    6  A    between atoms: C5_6  and  N2_7 
REMARK    7  A    between atoms: C8_10  and  C9_11 
REMARK    8  A    between atoms: C8_10  and  C15_18 
REMARK    9  A    between atoms: C15_18  and  N3_20 
ROOT
ATOM      1  C8  <0> d          -0.951  -2.137  -1.590  0.00  0.00     0.285 C 
ENDROOT
BRANCH   1   2
ATOM      2  N1  <0> d          -1.369  -1.174  -0.562  0.00  0.00     0.101 N 
BRANCH   2   3
ATOM      3  C3  <0> d          -1.085   0.203  -0.985  0.00  0.00     0.273 C 
BRANCH   3   4
ATOM      4  C2  <0> d           0.427   0.397  -1.109  0.00  0.00     0.026 C 
ATOM      5  C1  <0> d           0.720   1.802  -1.639  0.00  0.00     0.007 C 
ENDBRANCH   3   4
ENDBRANCH   2   3
BRANCH   2   6
ATOM      6  C4  <0> d          -2.791  -1.341  -0.233  0.00  0.00     0.301 C 
BRANCH   6   7
ATOM      7  C5  <0> d          -3.205  -0.284   0.793  0.00  0.00     0.264 C 
BRANCH   7   8
ATOM      8  N2  <0> d          -4.626  -0.451   1.122  0.00  0.00    -0.077 N 
ATOM      9  C6  <0> d          -4.825  -1.742   1.794  0.00  0.00     0.269 C 
ATOM     10  C7  <0> d          -5.053   0.636   2.014  0.00  0.00     0.269 C 
ATOM     11  H30 <0> d          -5.173  -0.424   0.275  0.00  0.00     0.279 HD
ENDBRANCH   7   8
ENDBRANCH   6   7
ENDBRANCH   2   6
ENDBRANCH   1   2
BRANCH   1  12
ATOM     12  C9  <0> d          -2.068  -2.331  -2.582  0.00  0.00    -0.022 A 
ATOM     13  C14 <0> d          -1.871  -2.020  -3.914  0.00  0.00     0.028 A 
ATOM     14  C13 <0> d          -2.895  -2.203  -4.826  0.00  0.00     0.011 A 
ATOM     15  C12 <0> d          -4.119  -2.687  -4.402  0.00  0.00     0.019 A 
ATOM     16 Br1  <0> d          -2.623  -1.785  -6.650  0.00  0.00    -0.051 Br
ATOM     17  C11 <0> d          -4.317  -2.993  -3.068  0.00  0.00     0.002 A 
ATOM     18  C10 <0> d          -3.292  -2.815  -2.159  0.00  0.00     0.009 A 
ENDBRANCH   1  12
BRANCH   1  19
ATOM     19  C15 <0> d          -0.618  -3.476  -0.928  0.00  0.00     0.217 C 
ATOM     20  C16 <0> d           0.388  -3.251   0.203  0.00  0.00     0.042 C 
BRANCH  19  21
ATOM     21  N3  <0> d          -1.845  -4.070  -0.381  0.00  0.00    -0.073 N 
ATOM     22  H27 <0> d          -2.523  -4.182  -1.119  0.00  0.00     0.274 HD
ATOM     23  H28 <0> d          -1.633  -4.971   0.020  0.00  0.00     0.274 HD
ATOM     24  H29 <0> d          -2.222  -3.465   0.333  0.00  0.00     0.274 HD
ENDBRANCH  19  21
ENDBRANCH   1  19
TORSDOF 9
