REMARK  5 active torsions:
REMARK  status: ('A' for Active; 'I' for Inactive)
REMARK    1  A    between atoms: C7_7  and  N1_8 
REMARK    2  A    between atoms: C10_12  and  N2_15 
REMARK    3  A    between atoms: N3_18  and  C16_21 
REMARK    4  A    between atoms: C16_21  and  C17_22 
REMARK    5  A    between atoms: C17_22  and  O3_23 
ROOT
ATOM      1  N1  <0> d           0.025  -0.013   2.419  0.00  0.00    -0.249 N 
ATOM      2  C8  <0> d           1.152   0.365   3.036  0.00  0.00     0.233 A 
ATOM      3  O1  <0> d           2.276   0.163   2.630  0.00  0.00    -0.273 OA
ATOM      4  C9  <0> d           0.799   1.085   4.319  0.00  0.00     0.149 A 
ATOM      5  C10 <0> d          -0.743   1.057   4.338  0.00  0.00     0.323 A 
ATOM      6  C11 <0> d          -1.100   0.329   3.060  0.00  0.00     0.265 A 
ATOM      7  O2  <0> d          -2.225   0.092   2.678  0.00  0.00    -0.270 OA
ENDROOT
BRANCH   5   8
ATOM      8  N2  <0> d          -1.233   0.325   5.513  0.00  0.00     0.106 N 
ATOM      9  C15 <0> d          -2.698   0.394   5.603  0.00  0.00     0.303 C 
ATOM     10  C14 <0> d          -3.161  -0.311   6.880  0.00  0.00     0.302 C 
ATOM     11  N3  <0> d          -2.703  -1.708   6.860  0.00  0.00     0.093 N 
ATOM     12  C13 <0> d          -1.238  -1.776   6.769  0.00  0.00     0.302 C 
ATOM     13  C12 <0> d          -0.774  -1.071   5.492  0.00  0.00     0.303 C 
BRANCH  11  14
ATOM     14  C16 <0> d          -3.192  -2.440   8.035  0.00  0.00     0.298 C 
BRANCH  14  15
ATOM     15  C17 <0> d          -4.716  -2.560   7.963  0.00  0.00     0.194 C 
BRANCH  15  16
ATOM     16  O3  <0> d          -5.078  -3.364   6.839  0.00  0.00    -0.399 OA
ATOM     17  H22 <0> d          -6.032  -3.482   6.731  0.00  0.00     0.209 HD
ENDBRANCH  15  16
ENDBRANCH  14  15
ENDBRANCH  11  14
ENDBRANCH   5   8
BRANCH   1  18
ATOM     18  C7  <0> d           0.023  -0.705   1.200  0.00  0.00     0.057 A 
ATOM     19  C2  <0> d           0.002  -0.004   0.002  0.00  0.00    -0.034 A 
ATOM     20  C1  <0> d          -0.018   1.503   0.010  0.00  0.00     0.050 C 
ATOM     21  C3  <0> d           0.006  -0.689  -1.198  0.00  0.00     0.009 A 
ATOM     22  C4  <0> d           0.025  -2.071  -1.206  0.00  0.00     0.001 A 
ATOM     23  C5  <0> d           0.040  -2.773  -0.014  0.00  0.00     0.009 A 
ATOM     24  C6  <0> d           0.037  -2.093   1.188  0.00  0.00    -0.034 A 
ATOM     25  C18 <0> d           0.054  -2.858   2.487  0.00  0.00     0.050 C 
ENDBRANCH   1  18
TORSDOF 5
