REMARK  2 active torsions:
REMARK  status: ('A' for Active; 'I' for Inactive)
REMARK    1  A    between atoms: C4_5  and  C5_6 
REMARK       I    between atoms: C5_6  and  N1_8 
REMARK       I    between atoms: N1_8  and  C6_9 
REMARK    2  A    between atoms: C6_9  and  C7_11 
ROOT
ATOM      1  C5  <0> d          -2.664   3.008  -4.573  0.00  0.00     0.265 C 
ATOM      2  O1  <0> d          -3.783   3.475  -4.660  0.00  0.00    -0.267 OA
ATOM      3  N1  <0> d          -1.889   2.902  -5.671  0.00  0.00    -0.293 N 
ATOM      4  C6  <0> d          -2.356   3.314  -6.866  0.00  0.00     0.228 C 
ATOM      5  O2  <0> d          -3.472   3.780  -6.954  0.00  0.00    -0.273 OA
ATOM      6  H2  <0> d          -0.997   2.529  -5.601  0.00  0.00     0.172 HD
ENDROOT
BRANCH   1   7
ATOM      7  C4  <0> d          -2.157   2.560  -3.274  0.00  0.00     0.074 A 
ATOM      8  C1  <0> d          -2.776   2.579  -2.047  0.00  0.00     0.033 A 
ATOM      9  C2  <0> d          -2.076   2.086  -0.929  0.00  0.00    -0.029 A 
ATOM     10  C13 <0> d          -2.549   1.993   0.541  0.00  0.00     0.180 C 
ATOM     11  C3  <0> d          -0.827   1.629  -1.159  0.00  0.00     0.004 A 
ATOM     12  S2  <0> d          -0.969   1.726   1.443  0.00  0.00     0.153 S 
ATOM     13  C12 <0> d          -0.013   1.086   0.008  0.00  0.00     0.187 C 
ATOM     14  O3  <0> d          -1.139   0.689   2.400  0.00  0.00    -0.227 OA
ATOM     15  O4  <0> d          -0.436   2.981   1.846  0.00  0.00    -0.227 OA
ATOM     16  S1  <0> d          -0.577   1.847  -2.868  0.00  0.00    -0.088 SA
ENDBRANCH   1   7
BRANCH   4  17
ATOM     17  C7  <0> d          -1.490   3.196  -8.094  0.00  0.00     0.081 C 
ATOM     18  C11 <0> d          -2.251   3.734  -9.310  0.00  0.00     0.041 C 
ATOM     19  C10 <0> d          -1.345   3.668 -10.542  0.00  0.00     0.233 C 
ATOM     20  N2  <0> d          -0.133   4.476 -10.312  0.00  0.00    -0.075 N 
ATOM     21  C9  <0> d           0.635   3.940  -9.172  0.00  0.00     0.233 C 
ATOM     22  H16 <0> d           0.454   4.454 -11.155  0.00  0.00     0.277 HD
ATOM     23  H17 <0> d          -0.405   5.445 -10.110  0.00  0.00     0.277 HD
ATOM     24  C8  <0> d          -0.210   4.013  -7.899  0.00  0.00     0.041 C 
ENDBRANCH   4  17
TORSDOF 2
