REMARK  3 active torsions:
REMARK  status: ('A' for Active; 'I' for Inactive)
REMARK    1  A    between atoms: C7_9  and  N4_13 
REMARK       I    between atoms: N4_13  and  C9_14 
REMARK    2  A    between atoms: C9_14  and  C10_16 
REMARK    3  A    between atoms: C12_18  and  C13_21 
ROOT
ATOM      1  C1  <0> d           0.011   1.530  -0.008  0.00  0.00     0.015 C 
ATOM      2  C2  <0> d           0.028   0.000  -0.017  0.00  0.00     0.026 C 
ATOM      3  C3  <0> d           0.685  -0.513  -1.308  0.00  0.00     0.111 C 
ATOM      4  C4  <0> d           1.238  -1.891  -1.144  0.00  0.00     0.219 C 
ATOM      5  O1  <0> d           1.447  -2.509  -2.166  0.00  0.00    -0.274 OA
ATOM      6  N1  <0> d           1.529  -2.523  -0.005  0.00  0.00    -0.339 N 
ATOM      7  C5  <0> d           1.130  -2.006   1.297  0.00  0.00     0.212 C 
ATOM      8  C6  <0> d           0.875  -0.515   1.119  0.00  0.00     0.008 C 
ATOM      9  C7  <0> d           1.526   0.102   2.075  0.00  0.00     0.124 C 
ATOM     10  N2  <0> d           2.280  -0.791   2.823  0.00  0.00    -0.302 N 
ATOM     11  N3  <0> d           2.179  -2.079   2.317  0.00  0.00    -0.206 NA
ATOM     12  C8  <0> d           3.450  -2.528   1.734  0.00  0.00     0.139 C 
ATOM     13  H9  <0> d           2.024  -3.356  -0.045  0.00  0.00     0.164 HD
ATOM     14  H10 <0> d           2.806  -0.549   3.601  0.00  0.00     0.182 HD
ENDROOT
BRANCH   9  15
ATOM     15  N4  <0> d           1.468   1.474   2.309  0.00  0.00    -0.310 N 
ATOM     16  C9  <0> d           2.262   2.032   3.244  0.00  0.00     0.253 C 
ATOM     17  O2  <0> d           3.027   1.340   3.882  0.00  0.00    -0.270 OA
ATOM     18  H14 <0> d           0.856   2.028   1.800  0.00  0.00     0.170 HD
BRANCH  16  19
ATOM     19  C10 <0> d           2.199   3.517   3.498  0.00  0.00     0.248 A 
ATOM     20  N6  <0> d           2.835   3.852   4.782  0.00  0.00    -0.173 NA
ATOM     21  N5  <0> d           3.792   4.599   4.550  0.00  0.00    -0.152 NA
ATOM     22  C12 <0> d           3.975   4.889   3.234  0.00  0.00     0.111 A 
ATOM     23  C11 <0> d           3.040   4.269   2.482  0.00  0.00     0.048 A 
BRANCH  22  24
ATOM     24  C13 <0> d           5.045   5.759   2.702  0.00  0.00     0.105 A 
ATOM     25  O3  <0> d           5.247   6.060   1.405  0.00  0.00    -0.320 OA
ATOM     26  C16 <0> d           6.308   6.877   1.296  0.00  0.00     0.142 A 
ATOM     27  C15 <0> d           6.806   7.104   2.527  0.00  0.00     0.027 A 
ATOM     28  C14 <0> d           6.000   6.389   3.437  0.00  0.00     0.041 A 
ENDBRANCH  22  24
ENDBRANCH  16  19
ENDBRANCH   9  15
TORSDOF 3
