REMARK  2 active torsions:
REMARK  status: ('A' for Active; 'I' for Inactive)
REMARK    1  A    between atoms: C4_4  and  S1_7 
REMARK    2  A    between atoms: S1_7  and  N1_10 
ROOT
ATOM      1  N1  <0> d           4.378  -1.079   1.536  0.00  0.00    -0.142 NA
ATOM      2  C7  <0> d           5.497  -1.704   1.812  0.00  0.00     0.141 C 
ATOM      3  C8  <0> d           5.914  -1.944   3.202  0.00  0.00     0.052 C 
ATOM      4  C9  <0> d           6.742  -2.988   3.451  0.00  0.00     0.017 C 
ATOM      5  C10 <0> d           7.184  -3.822   2.328  0.00  0.00    -0.009 A 
ATOM      6  C11 <0> d           7.819  -5.048   2.550  0.00  0.00     0.013 A 
ATOM      7  C12 <0> d           8.224  -5.810   1.478  0.00  0.00     0.001 A 
ATOM      8  C13 <0> d           8.005  -5.372   0.179  0.00  0.00     0.002 A 
ATOM      9  C14 <0> d           7.378  -4.166  -0.058  0.00  0.00     0.030 A 
ATOM     10  C15 <0> d           6.964  -3.383   1.010  0.00  0.00     0.044 A 
ATOM     11  N2  <0> d           6.328  -2.170   0.803  0.00  0.00    -0.340 N 
ATOM     12  H12 <0> d           6.461  -1.666  -0.015  0.00  0.00     0.167 HD
ENDROOT
BRANCH   1  13
ATOM     13  S1  <0> d           3.934  -0.832  -0.041  0.00  0.00     0.285 S 
ATOM     14  O1  <0> d           3.674  -2.114  -0.595  0.00  0.00    -0.198 OA
ATOM     15  O2  <0> d           4.890   0.060  -0.597  0.00  0.00    -0.198 OA
BRANCH  13  16
ATOM     16  C4  <0> d           2.396   0.029  -0.020  0.00  0.00     0.081 A 
ATOM     17  C3  <0> d           2.377   1.411  -0.013  0.00  0.00     0.025 A 
ATOM     18  C2  <0> d           1.171   2.086   0.002  0.00  0.00     0.002 A 
ATOM     19  C1  <0> d          -0.017   1.378   0.010  0.00  0.00     0.000 A 
ATOM     20  C6  <0> d           0.002  -0.004   0.002  0.00  0.00     0.002 A 
ATOM     21  C5  <0> d           1.208  -0.679  -0.012  0.00  0.00     0.025 A 
ENDBRANCH  13  16
ENDBRANCH   1  13
TORSDOF 2
