REMARK  7 active torsions:
REMARK  status: ('A' for Active; 'I' for Inactive)
REMARK    1  A    between atoms: N1_6  and  C7_8 
REMARK    2  A    between atoms: C7_8  and  C8_9 
REMARK    3  A    between atoms: C8_9  and  C9_10 
REMARK    4  A    between atoms: C9_10  and  C10_11 
REMARK    5  A    between atoms: C10_11  and  N2_12 
REMARK       I    between atoms: N2_12  and  C11_13 
REMARK       I    between atoms: C11_13  and  N3_15 
REMARK    6  A    between atoms: N3_15  and  N4_16 
REMARK       I    between atoms: N4_16  and  C12_17 
REMARK    7  A    between atoms: C12_17  and  C13_19 
ROOT
ATOM      1  N2  <0> d           2.861   0.005   7.382  0.00  0.00    -0.342 N 
ATOM      2  C11 <0> d           2.440   0.457   8.580  0.00  0.00     0.334 C 
ATOM      3  O1  <0> d           1.492   1.216   8.645  0.00  0.00    -0.246 OA
ATOM      4  N3  <0> d           3.068   0.066   9.707  0.00  0.00    -0.249 N 
ATOM      5  H21 <0> d           3.617  -0.601   7.331  0.00  0.00     0.164 HD
ATOM      6  H22 <0> d           2.765   0.391  10.569  0.00  0.00     0.192 HD
ENDROOT
BRANCH   1   7
ATOM      7  C10 <0> d           2.178   0.429   6.158  0.00  0.00     0.124 C 
BRANCH   7   8
ATOM      8  C9  <0> d           2.850  -0.222   4.947  0.00  0.00     0.021 C 
BRANCH   8   9
ATOM      9  C8  <0> d           2.136   0.221   3.668  0.00  0.00     0.029 C 
BRANCH   9  10
ATOM     10  C7  <0> d           2.808  -0.431   2.458  0.00  0.00     0.235 C 
BRANCH  10  11
ATOM     11  N1  <0> d           2.123  -0.005   1.230  0.00  0.00    -0.070 N 
ATOM     12  C5  <0> d           2.839  -0.534   0.063  0.00  0.00     0.239 C 
ATOM     13  C4  <0> d           2.177  -0.027  -1.220  0.00  0.00     0.008 C 
ATOM     14  C3  <0> d           0.721  -0.499  -1.257  0.00  0.00     0.011 C 
ATOM     15  C17 <0> d           2.924  -0.581  -2.434  0.00  0.00     0.011 C 
ATOM     16  C2  <0> d           0.002  -0.004   0.002  0.00  0.00     0.008 C 
ATOM     17  C1  <0> d          -0.019   1.526   0.010  0.00  0.00     0.011 C 
ATOM     18  C6  <0> d           0.744  -0.512   1.240  0.00  0.00     0.239 C 
ATOM     19  H33 <0> d           2.109   1.003   1.187  0.00  0.00     0.279 HD
ENDBRANCH  10  11
ENDBRANCH   9  10
ENDBRANCH   8   9
ENDBRANCH   7   8
ENDBRANCH   1   7
BRANCH   4  20
ATOM     20  N4  <0> d           4.160  -0.809   9.633  0.00  0.00    -0.266 N 
ATOM     21  C12 <0> d           4.789  -1.199  10.759  0.00  0.00     0.241 C 
ATOM     22  O2  <0> d           4.409  -0.793  11.837  0.00  0.00    -0.271 OA
ATOM     23  H23 <0> d           4.463  -1.134   8.771  0.00  0.00     0.190 HD
BRANCH  21  24
ATOM     24  C13 <0> d           5.963  -2.140  10.679  0.00  0.00     0.094 C 
ATOM     25  C16 <0> d           6.503  -2.429  12.109  0.00  0.00     0.154 C 
ATOM     26  S1  <0> d           7.443  -3.984  11.807  0.00  0.00     0.145 S 
ATOM     27  C15 <0> d           6.617  -4.545  10.263  0.00  0.00     0.141 C 
ATOM     28  O3  <0> d           8.795  -3.658  11.515  0.00  0.00    -0.228 OA
ATOM     29  O4  <0> d           7.156  -4.909  12.847  0.00  0.00    -0.228 OA
ATOM     30  C14 <0> d           5.518  -3.474  10.057  0.00  0.00     0.030 C 
ENDBRANCH  21  24
ENDBRANCH   4  20
TORSDOF 7
