REMARK  6 active torsions:
REMARK  status: ('A' for Active; 'I' for Inactive)
REMARK    1  A    between atoms: C11_14  and  C21_26 
REMARK    2  A    between atoms: C12_15  and  N3_16 
REMARK    3  A    between atoms: N4_17  and  C13_18 
REMARK    4  A    between atoms: C13_18  and  C14_19 
REMARK    5  A    between atoms: C14_19  and  C15_20 
REMARK       I    between atoms: C21_26  and  N5_28 
REMARK    6  A    between atoms: N5_28  and  C22_29 
ROOT
ATOM      1  C1  <0> d           2.135   1.805   0.711  0.00  0.00     0.052 C 
ATOM      2  C2  <0> d           1.630   0.416   0.417  0.00  0.00    -0.015 A 
ATOM      3  C3  <0> d           1.690  -0.079  -0.849  0.00  0.00     0.012 A 
ATOM      4  C4  <0> d           1.216  -1.374  -1.110  0.00  0.00     0.018 A 
ATOM      5  C5  <0> d           0.704  -2.123  -0.110  0.00  0.00     0.102 A 
ATOM      6  N1  <0> d           0.639  -1.637   1.164  0.00  0.00    -0.272 N 
ATOM      7  C6  <0> d           1.097  -0.379   1.454  0.00  0.00     0.145 A 
ATOM      8  N2  <0> d           1.054   0.126   2.682  0.00  0.00    -0.211 NA
ATOM      9  C7  <0> d           0.565  -0.562   3.718  0.00  0.00     0.149 A 
ATOM     10  C8  <0> d           0.075  -1.878   3.499  0.00  0.00     0.080 A 
ATOM     11  C9  <0> d           0.118  -2.418   2.139  0.00  0.00     0.267 A 
ATOM     12  O1  <0> d          -0.288  -3.540   1.895  0.00  0.00    -0.267 OA
ATOM     13  C10 <0> d          -0.439  -2.612   4.565  0.00  0.00     0.042 A 
ATOM     14  C11 <0> d          -0.452  -2.014   5.827  0.00  0.00     0.077 A 
ATOM     15  C12 <0> d           0.052  -0.702   5.973  0.00  0.00     0.118 A 
ATOM     16  N4  <0> d           0.533  -0.033   4.943  0.00  0.00    -0.316 N 
ENDROOT
BRANCH  14  17
ATOM     17  C21 <0> d          -0.984  -2.741   6.990  0.00  0.00     0.261 C 
ATOM     18  O2  <0> d          -0.902  -2.253   8.101  0.00  0.00    -0.267 OA
ATOM     19  N5  <0> d          -1.561  -3.947   6.824  0.00  0.00    -0.301 N 
ATOM     20  H18 <0> d          -1.626  -4.336   5.938  0.00  0.00     0.171 HD
BRANCH  19  21
ATOM     21  C22 <0> d          -2.063  -4.634   7.922  0.00  0.00     0.173 A 
ATOM     22  S1  <0> d          -2.818  -6.138   7.960  0.00  0.00    -0.062 SA
ATOM     23  C24 <0> d          -3.113  -6.222   9.719  0.00  0.00     0.072 A 
ATOM     24  C23 <0> d          -2.589  -5.038  10.120  0.00  0.00     0.126 A 
ATOM     25  N6  <0> d          -2.069  -4.264   9.185  0.00  0.00    -0.236 NA
ENDBRANCH  19  21
ENDBRANCH  14  17
BRANCH  15  26
ATOM     26  N3  <0> d           0.041  -0.109   7.219  0.00  0.00    -0.384 N 
ATOM     27  H8  <0> d           0.119  -0.655   8.016  0.00  0.00     0.157 HD
ATOM     28  H21 <0> d          -0.043   0.854   7.296  0.00  0.00     0.157 HD
ENDBRANCH  15  26
BRANCH  16  29
ATOM     29  C13 <0> d           1.044   1.325   5.148  0.00  0.00     0.137 C 
BRANCH  29  30
ATOM     30  C14 <0> d          -0.092   2.332   4.953  0.00  0.00     0.059 C 
BRANCH  30  31
ATOM     31  C15 <0> d           0.434   3.729   5.164  0.00  0.00    -0.057 A 
ATOM     32  C20 <0> d           0.942   4.445   4.096  0.00  0.00     0.007 A 
ATOM     33  C19 <0> d           1.420   5.727   4.289  0.00  0.00     0.001 A 
ATOM     34  C18 <0> d           1.399   6.290   5.552  0.00  0.00     0.000 A 
ATOM     35  C17 <0> d           0.896   5.572   6.620  0.00  0.00     0.001 A 
ATOM     36  C16 <0> d           0.414   4.292   6.427  0.00  0.00     0.007 A 
ENDBRANCH  30  31
ENDBRANCH  29  30
ENDBRANCH  16  29
TORSDOF 6
