REMARK  4 active torsions:
REMARK  status: ('A' for Active; 'I' for Inactive)
REMARK    1  A    between atoms: C3_3  and  C11_13 
REMARK    2  A    between atoms: C4_4  and  C5_7 
REMARK       I    between atoms: C11_13  and  N2_15 
REMARK    3  A    between atoms: C13_17  and  C20_25 
REMARK       I    between atoms: C20_25  and  N4_27 
REMARK    4  A    between atoms: N4_27  and  C21_28 
ROOT
ATOM      1  C11 <0> d          -2.654  -0.318   0.174  0.00  0.00     0.258 C 
ATOM      2  O2  <0> d          -3.388  -0.216  -0.791  0.00  0.00    -0.267 OA
ATOM      3  N2  <0> d          -3.122  -0.047   1.408  0.00  0.00    -0.346 N 
ATOM      4  C12 <0> d          -2.364  -0.020   2.682  0.00  0.00     0.141 C 
ATOM      5  C13 <0> d          -2.945   1.184   3.456  0.00  0.00     0.106 C 
ATOM      6  C14 <0> d          -4.355   1.382   2.874  0.00  0.00    -0.007 C 
ATOM      7  C15 <0> d          -4.510   0.298   1.798  0.00  0.00     0.136 C 
ATOM      8  C16 <0> d          -4.476   2.765   2.242  0.00  0.00     0.039 C 
ATOM      9  C17 <0> d          -5.902   2.960   1.721  0.00  0.00     0.233 C 
ATOM     10  N3  <0> d          -6.853   2.823   2.830  0.00  0.00    -0.075 N 
ATOM     11  C18 <0> d          -6.796   1.460   3.373  0.00  0.00     0.233 C 
ATOM     12  C19 <0> d          -5.407   1.202   3.964  0.00  0.00     0.039 C 
ATOM     13  H21 <0> d          -6.618   3.483   3.557  0.00  0.00     0.277 HD
ATOM     14  H39 <0> d          -7.787   3.012   2.497  0.00  0.00     0.277 HD
ENDROOT
BRANCH   1  15
ATOM     15  C3  <0> d          -1.254  -0.737  -0.007  0.00  0.00     0.095 A 
ATOM     16  C2  <0> d          -0.195   0.070  -0.307  0.00  0.00     0.093 A 
ATOM     17  C1  <0> d          -0.253   1.561  -0.513  0.00  0.00     0.080 C 
ATOM     18  O1  <0> d           0.899  -0.691  -0.392  0.00  0.00    -0.217 OA
ATOM     19  N1  <0> d           0.559  -2.038  -0.132  0.00  0.00    -0.127 NA
ATOM     20  C4  <0> d          -0.727  -2.106   0.100  0.00  0.00     0.113 A 
BRANCH  20  21
ATOM     21  C5  <0> d          -1.505  -3.330   0.412  0.00  0.00    -0.004 A 
ATOM     22  C10 <0> d          -1.164  -4.545  -0.180  0.00  0.00     0.014 A 
ATOM     23  C9  <0> d          -1.888  -5.681   0.118  0.00  0.00     0.001 A 
ATOM     24  C8  <0> d          -2.957  -5.614   0.993  0.00  0.00     0.000 A 
ATOM     25  C7  <0> d          -3.304  -4.410   1.579  0.00  0.00     0.001 A 
ATOM     26  C6  <0> d          -2.583  -3.268   1.293  0.00  0.00     0.014 A 
ENDBRANCH  20  21
ENDBRANCH   1  15
BRANCH   5  27
ATOM     27  C20 <0> d          -2.102   2.412   3.226  0.00  0.00     0.224 C 
ATOM     28  O3  <0> d          -1.449   2.517   2.210  0.00  0.00    -0.273 OA
ATOM     29  N4  <0> d          -2.075   3.393   4.150  0.00  0.00    -0.356 N 
ATOM     30  H26 <0> d          -2.538   3.277   4.994  0.00  0.00     0.162 HD
BRANCH  29  31
ATOM     31  C21 <0> d          -1.344   4.634   3.879  0.00  0.00     0.088 C 
ATOM     32  C26 <0> d          -1.907   5.758   4.751  0.00  0.00     0.008 C 
ATOM     33  C25 <0> d          -1.145   7.053   4.468  0.00  0.00    -0.013 C 
ATOM     34  C27 <0> d          -1.751   5.386   6.226  0.00  0.00     0.012 C 
ATOM     35  C24 <0> d           0.338   6.853   4.788  0.00  0.00     0.005 C 
ATOM     36  C28 <0> d          -1.708   8.178   5.340  0.00  0.00     0.010 C 
ATOM     37  C23 <0> d           0.901   5.729   3.917  0.00  0.00     0.002 C 
ATOM     38  C22 <0> d           0.138   4.433   4.200  0.00  0.00     0.025 C 
ENDBRANCH  29  31
ENDBRANCH   5  27
TORSDOF 4
