REMARK  7 active torsions:
REMARK  status: ('A' for Active; 'I' for Inactive)
REMARK    1  A    between atoms: C2_2  and  C4_4 
REMARK    2  A    between atoms: C4_4  and  N1_5 
REMARK    3  A    between atoms: N1_5  and  C5_6 
REMARK    4  A    between atoms: N2_8  and  C6_9 
REMARK    5  A    between atoms: C6_9  and  C7_10 
REMARK    6  A    between atoms: C7_10  and  C8_11 
REMARK    7  A    between atoms: C7_10  and  C12_16 
ROOT
ATOM      1  C7  <0> d          -4.963  -2.489   4.669  0.00  0.00     0.049 C 
ENDROOT
BRANCH   1   2
ATOM      2  C6  <0> d          -4.825  -2.498   3.145  0.00  0.00     0.132 C 
BRANCH   2   3
ATOM      3  N2  <0> d          -4.357  -3.814   2.705  0.00  0.00    -0.367 N 
ATOM      4  C5  <0> d          -4.257  -4.089   1.389  0.00  0.00     0.167 C 
ATOM      5  S1  <0> d          -4.679  -2.899   0.232  0.00  0.00    -0.041 SA
ATOM      6  H11 <0> d          -4.118  -4.488   3.360  0.00  0.00     0.161 HD
BRANCH   4   7
ATOM      7  N1  <0> d          -3.826  -5.300   0.984  0.00  0.00    -0.363 N 
ATOM      8  H10 <0> d          -3.587  -5.974   1.639  0.00  0.00     0.162 HD
BRANCH   7   9
ATOM      9  C4  <0> d          -3.718  -5.598  -0.446  0.00  0.00     0.155 C 
BRANCH   9  10
ATOM     10  C2  <0> d          -3.217  -7.007  -0.629  0.00  0.00    -0.075 C 
ATOM     11  C1  <0> d          -1.737  -7.290  -0.606  0.00  0.00     0.044 C 
ATOM     12  C3  <0> d          -4.068  -7.987  -0.808  0.00  0.00     0.015 C 
ENDBRANCH   9  10
ENDBRANCH   7   9
ENDBRANCH   4   7
ENDBRANCH   2   3
ENDBRANCH   1   2
BRANCH   1  13
ATOM     13  C8  <0> d          -5.325  -1.079   5.140  0.00  0.00     0.065 C 
ATOM     14  S2  <0> d          -3.968   0.118   4.793  0.00  0.00    -0.136 SA
ATOM     15  C11 <0> d          -4.030   1.038   6.322  0.00  0.00     0.041 C 
ATOM     16  C10 <0> d          -4.773   0.322   7.144  0.00  0.00    -0.019 C 
ATOM     17  C9  <0> d          -5.341  -0.983   6.688  0.00  0.00     0.044 C 
ENDBRANCH   1  13
BRANCH   1  18
ATOM     18  C12 <0> d          -6.049  -3.450   5.080  0.00  0.00    -0.043 A 
ATOM     19  C19 <0> d          -7.506  -3.401   4.680  0.00  0.00     0.155 A 
ATOM     20  N3  <0> d          -8.142  -4.550   5.335  0.00  0.00    -0.385 N 
ATOM     21  C18 <0> d          -7.233  -5.192   6.027  0.00  0.00     0.038 A 
ATOM     22  H24 <0> d          -9.079  -4.792   5.269  0.00  0.00     0.160 HD
ATOM     23  C13 <0> d          -5.918  -4.528   5.886  0.00  0.00    -0.005 A 
ATOM     24  C17 <0> d          -7.309  -6.356   6.841  0.00  0.00     0.030 A 
ATOM     25  C14 <0> d          -4.769  -5.107   6.594  0.00  0.00     0.014 A 
ATOM     26  C15 <0> d          -4.952  -6.218   7.343  0.00  0.00     0.001 A 
ATOM     27  C16 <0> d          -6.207  -6.829   7.460  0.00  0.00     0.002 A 
ENDBRANCH   1  18
TORSDOF 7
