REMARK  5 active torsions:
REMARK  status: ('A' for Active; 'I' for Inactive)
REMARK    1  A    between atoms: C2_3  and  C7_10 
REMARK    2  A    between atoms: C3_6  and  C4_7 
REMARK    3  A    between atoms: C7_10  and  N4_11 
REMARK    4  A    between atoms: C10_14  and  C13_17 
REMARK    5  A    between atoms: C14_21  and  C15_23 
ROOT
ATOM      1  N4  <0> d           1.377  -0.210  -3.000  0.00  0.00    -0.064 N 
ATOM      2  C8  <0> d           2.053  -1.513  -2.989  0.00  0.00     0.236 C 
ATOM      3  C9  <0> d           3.515  -1.337  -3.405  0.00  0.00     0.040 C 
ATOM      4  C10 <0> d           3.571  -0.743  -4.816  0.00  0.00     0.062 C 
ATOM      5  C11 <0> d           2.799   0.580  -4.833  0.00  0.00     0.040 C 
ATOM      6  C12 <0> d           1.364   0.332  -4.364  0.00  0.00     0.236 C 
ATOM      7  H26 <0> d           1.868   0.426  -2.391  0.00  0.00     0.280 HD
ENDROOT
BRANCH   4   8
ATOM      8  C13 <0> d           5.006  -0.494  -5.201  0.00  0.00     0.152 A 
ATOM      9  N7  <0> d           5.631  -1.040  -6.241  0.00  0.00    -0.211 NA
ATOM     10  C14 <0> d           6.874  -0.607  -6.291  0.00  0.00     0.156 A 
ATOM     11  N6  <0> d           7.061   0.235  -5.250  0.00  0.00    -0.259 N 
ATOM     12  N5  <0> d           5.837   0.289  -4.563  0.00  0.00    -0.157 NA
ATOM     13  H1  <0> d           7.877   0.708  -5.022  0.00  0.00     0.191 HD
BRANCH  10  14
ATOM     14  C15 <0> d           7.887  -0.981  -7.303  0.00  0.00     0.011 A 
ATOM     15  C20 <0> d           9.175  -0.450  -7.234  0.00  0.00     0.015 A 
ATOM     16  C19 <0> d          10.117  -0.807  -8.177  0.00  0.00     0.001 A 
ATOM     17  C18 <0> d           9.783  -1.681  -9.196  0.00  0.00     0.000 A 
ATOM     18  C17 <0> d           8.505  -2.206  -9.274  0.00  0.00     0.001 A 
ATOM     19  C16 <0> d           7.556  -1.861  -8.333  0.00  0.00     0.015 A 
ENDBRANCH  10  14
ENDBRANCH   4   8
BRANCH   1  20
ATOM     20  C7  <0> d          -0.004  -0.373  -2.526  0.00  0.00     0.315 C 
BRANCH  20  21
ATOM     21  C2  <0> d           0.009  -0.813  -1.085  0.00  0.00     0.155 A 
ATOM     22  N1  <0> d           0.002  -0.004   0.002  0.00  0.00    -0.323 N 
ATOM     23  C1  <0> d          -0.018   1.461   0.010  0.00  0.00     0.159 C 
ATOM     24  C3  <0> d           0.024  -0.825   1.080  0.00  0.00     0.134 A 
ATOM     25  N3  <0> d           0.032  -2.051   0.634  0.00  0.00    -0.134 NA
ATOM     26  N2  <0> d           0.027  -2.044  -0.652  0.00  0.00    -0.133 NA
BRANCH  24  27
ATOM     27  C4  <0> d           0.032  -0.400   2.526  0.00  0.00     0.057 A 
ATOM     28  C6  <0> d          -1.129  -0.868   3.406  0.00  0.00     0.013 A 
ATOM     29  C5  <0> d           0.260  -1.486   3.579  0.00  0.00     0.013 A 
ENDBRANCH  24  27
ENDBRANCH  20  21
ENDBRANCH   1  20
TORSDOF 5
