REMARK  3 active torsions:
REMARK  status: ('A' for Active; 'I' for Inactive)
REMARK    1  A    between atoms: C7_7  and  C11_14 
REMARK    2  A    between atoms: C11_14  and  N2_15 
REMARK    3  A    between atoms: N2_15  and  S1_16 
ROOT
ATOM      1  C1  <0> d          -0.018   1.503   0.010  0.00  0.00     0.048 C 
ATOM      2  C2  <0> d           0.002  -0.004   0.002  0.00  0.00    -0.060 A 
ATOM      3  C3  <0> d           0.006  -0.684  -1.208  0.00  0.00     0.007 A 
ATOM      4  C4  <0> d           0.024  -2.050  -1.238  0.00  0.00     0.014 A 
ATOM      5  C5  <0> d           0.040  -2.769  -0.039  0.00  0.00    -0.009 A 
ATOM      6  C6  <0> d           0.060  -4.233  -0.034  0.00  0.00     0.028 A 
ATOM      7  C7  <0> d           0.075  -4.877   1.159  0.00  0.00     0.029 A 
ATOM      8  C8  <0> d           0.070  -4.142   2.364  0.00  0.00     0.253 A 
ATOM      9  O1  <0> d           0.084  -4.740   3.426  0.00  0.00    -0.268 OA
ATOM     10  N1  <0> d           0.052  -2.797   2.370  0.00  0.00    -0.322 N 
ATOM     11  H1  <0> d           0.050  -2.323   3.216  0.00  0.00     0.169 HD
ATOM     12  C9  <0> d           0.036  -2.083   1.190  0.00  0.00     0.045 A 
ATOM     13  C10 <0> d           0.023  -0.692   1.196  0.00  0.00     0.037 A 
ENDROOT
BRANCH   7  14
ATOM     14  C11 <0> d           0.096  -6.383   1.200  0.00  0.00     0.176 C 
BRANCH  14  15
ATOM     15  N2  <0> d           1.479  -6.850   1.326  0.00  0.00    -0.315 N 
ATOM     16  H11 <0> d           2.213  -6.240   1.153  0.00  0.00     0.172 HD
BRANCH  15  17
ATOM     17  S1  <0> d           1.788  -8.416   1.764  0.00  0.00     0.223 S 
ATOM     18  O2  <0> d           3.205  -8.507   1.811  0.00  0.00    -0.206 OA
ATOM     19  O3  <0> d           1.009  -8.626   2.935  0.00  0.00    -0.206 OA
ATOM     20  C12 <0> d           1.142  -9.419   0.397  0.00  0.00     0.185 C 
ENDBRANCH  15  17
ENDBRANCH  14  15
ENDBRANCH   7  14
TORSDOF 3
