REMARK  3 active torsions:
REMARK  status: ('A' for Active; 'I' for Inactive)
REMARK    1  A    between atoms: C7_7  and  C15_17 
REMARK    2  A    between atoms: C9_9  and  C10_11 
REMARK       I    between atoms: C15_17  and  N3_19 
REMARK    3  A    between atoms: N3_19  and  N4_20 
ROOT
ATOM      1  C1  <0> d          -0.265   5.594   0.365  0.00  0.00     0.001 A 
ATOM      2  C2  <0> d          -1.502   6.236   0.370  0.00  0.00     0.002 A 
ATOM      3  C3  <0> d          -2.659   5.531   0.255  0.00  0.00     0.032 A 
ATOM      4  C4  <0> d          -2.614   4.128   0.140  0.00  0.00     0.068 A 
ATOM      5  C5  <0> d          -1.354   3.479   0.139  0.00  0.00     0.008 A 
ATOM      6  C6  <0> d          -0.183   4.238   0.252  0.00  0.00     0.015 A 
ATOM      7  C7  <0> d          -1.307   2.066   0.019  0.00  0.00     0.048 A 
ATOM      8  C8  <0> d          -2.509   1.383  -0.082  0.00  0.00     0.050 A 
ATOM      9  C9  <0> d          -3.715   2.100  -0.069  0.00  0.00     0.069 A 
ATOM     10  N1  <0> d          -3.736   3.413   0.039  0.00  0.00    -0.247 NA
ENDROOT
BRANCH   7  11
ATOM     11  C15 <0> d          -0.016   1.344   0.009  0.00  0.00     0.266 C 
ATOM     12  O1  <0> d           1.028   1.966  -0.009  0.00  0.00    -0.266 OA
ATOM     13  N3  <0> d           0.002  -0.004   0.015  0.00  0.00    -0.290 N 
ATOM     14  H10 <0> d          -0.831  -0.500   0.029  0.00  0.00     0.183 HD
BRANCH  13  15
ATOM     15  N4  <0> d           1.194  -0.671  -0.000  0.00  0.00    -0.247 NA
ATOM     16  H11 <0> d           1.778  -0.385   0.771  0.00  0.00     0.143 HD
ATOM     17  H12 <0> d           1.050  -1.670   0.006  0.00  0.00     0.143 HD
ENDBRANCH  13  15
ENDBRANCH   7  11
BRANCH   9  18
ATOM     18  C10 <0> d          -4.997   1.363  -0.178  0.00  0.00    -0.005 A 
ATOM     19  C14 <0> d          -6.219   2.041  -0.168  0.00  0.00     0.033 A 
ATOM     20  C13 <0> d          -7.389   1.316  -0.272  0.00  0.00     0.117 A 
ATOM     21  N2  <0> d          -7.363   0.002  -0.380  0.00  0.00    -0.273 NA
ATOM     22  C12 <0> d          -6.232  -0.677  -0.393  0.00  0.00     0.117 A 
ATOM     23  C11 <0> d          -5.016  -0.030  -0.299  0.00  0.00     0.033 A 
ENDBRANCH   9  18
TORSDOF 3
