REMARK  7 active torsions:
REMARK  status: ('A' for Active; 'I' for Inactive)
REMARK    1  A    between atoms: C5_5  and  C7_8 
REMARK    2  A    between atoms: C7_8  and  O1_9 
REMARK    3  A    between atoms: C11_14  and  C15_22 
REMARK    4  A    between atoms: C12_16  and  S1_17 
REMARK    5  A    between atoms: S1_17  and  C13_18 
REMARK    6  A    between atoms: C13_18  and  C14_19 
REMARK       I    between atoms: C14_19  and  N4_21 
REMARK    7  A    between atoms: C18_25  and  O3_28 
ROOT
ATOM      1  C1  <0> d           3.581  -0.847  -0.038  0.00  0.00     0.073 C 
ATOM      2  C2  <0> d           2.306  -0.043  -0.021  0.00  0.00     0.064 A 
ATOM      3  C3  <0> d           2.368   1.345  -0.014  0.00  0.00     0.109 A 
ATOM      4  C4  <0> d           1.185   2.068   0.002  0.00  0.00    -0.008 A 
ATOM      5  C5  <0> d          -0.017   1.378   0.010  0.00  0.00    -0.008 A 
ATOM      6  C6  <0> d           0.002  -0.004   0.002  0.00  0.00     0.127 A 
ATOM      7  N1  <0> d           1.144  -0.664  -0.013  0.00  0.00    -0.262 NA
ATOM      8  C8  <0> d           1.194   3.570   0.011  0.00  0.00     0.088 C 
ATOM      9  C9  <0> d           2.545   4.087  -0.396  0.00  0.00     0.035 A 
ATOM     10  C10 <0> d           3.659   3.263  -0.391  0.00  0.00     0.181 A 
ATOM     11  N2  <0> d           4.835   3.766  -0.758  0.00  0.00    -0.203 NA
ATOM     12  C11 <0> d           4.947   5.035  -1.124  0.00  0.00     0.163 A 
ATOM     13  N3  <0> d           3.903   5.852  -1.141  0.00  0.00    -0.221 NA
ATOM     14  C12 <0> d           2.696   5.417  -0.786  0.00  0.00     0.107 A 
ATOM     15  O4  <0> d           3.570   1.967  -0.022  0.00  0.00    -0.289 OA
ENDROOT
BRANCH  12  16
ATOM     16  C15 <0> d           6.276   5.556  -1.525  0.00  0.00     0.012 A 
ATOM     17  C20 <0> d           7.388   4.715  -1.515  0.00  0.00     0.018 A 
ATOM     18  C19 <0> d           8.622   5.202  -1.888  0.00  0.00     0.037 A 
ATOM     19  C18 <0> d           8.759   6.529  -2.275  0.00  0.00     0.068 A 
ATOM     20  C17 <0> d           7.653   7.369  -2.287  0.00  0.00     0.037 A 
ATOM     21  C16 <0> d           6.415   6.886  -1.919  0.00  0.00     0.018 A 
BRANCH  19  22
ATOM     22  O3  <0> d           9.976   7.006  -2.642  0.00  0.00    -0.356 OA
ATOM     23  C21 <0> d          10.045   8.380  -3.028  0.00  0.00     0.210 C 
ENDBRANCH  19  22
ENDBRANCH  12  16
BRANCH  14  24
ATOM     24  S1  <0> d           1.310   6.505  -0.810  0.00  0.00    -0.100 SA
BRANCH  24  25
ATOM     25  C13 <0> d           2.113   8.024  -1.380  0.00  0.00     0.183 C 
BRANCH  25  26
ATOM     26  C14 <0> d           1.090   9.126  -1.479  0.00  0.00     0.225 C 
ATOM     27  O2  <0> d          -0.068   8.906  -1.192  0.00  0.00    -0.273 OA
ATOM     28  N4  <0> d           1.462  10.356  -1.886  0.00  0.00    -0.369 N 
ATOM     29  H12 <0> d           0.715  11.160  -1.958  0.00  0.00     0.159 HD
ATOM     30  H13 <0> d           2.512  10.555  -2.146  0.00  0.00     0.159 HD
ENDBRANCH  25  26
ENDBRANCH  24  25
ENDBRANCH  14  24
BRANCH   5  31
ATOM     31  C7  <0> d          -1.326   2.125   0.020  0.00  0.00     0.205 C 
BRANCH  31  32
ATOM     32  O1  <0> d          -2.407   1.190   0.020  0.00  0.00    -0.396 OA
ATOM     33  H7  <0> d          -3.446   1.551   0.027  0.00  0.00     0.209 HD
ENDBRANCH  31  32
ENDBRANCH   5  31
TORSDOF 7
