REMARK  6 active torsions:
REMARK  status: ('A' for Active; 'I' for Inactive)
REMARK    1  A    between atoms: O1_2  and  C2_3 
REMARK    2  A    between atoms: C7_8  and  C8_9 
REMARK    3  A    between atoms: C8_9  and  C13_15 
REMARK    4  A    between atoms: C13_15  and  N1_16 
REMARK       I    between atoms: N1_16  and  C14_17 
REMARK    5  A    between atoms: C14_17  and  C15_19 
REMARK       I    between atoms: C15_19  and  N2_21 
REMARK    6  A    between atoms: N2_21  and  C16_22 
ROOT
ATOM      1  N1  <0> d           1.162  -0.890  -1.443  0.00  0.00    -0.352 N 
ATOM      2  C14 <0> d           1.758  -0.340  -2.519  0.00  0.00     0.309 C 
ATOM      3  O3  <0> d           2.036  -1.030  -3.478  0.00  0.00    -0.262 OA
ATOM      4  H18 <0> d           0.874  -0.328  -0.707  0.00  0.00     0.162 HD
ENDROOT
BRANCH   2   5
ATOM      5  C15 <0> d           2.078   1.119  -2.531  0.00  0.00     0.313 C 
ATOM      6  O4  <0> d           1.884   1.791  -1.538  0.00  0.00    -0.262 OA
ATOM      7  N2  <0> d           2.581   1.690  -3.643  0.00  0.00    -0.319 N 
ATOM      8  H19 <0> d           2.662   1.172  -4.460  0.00  0.00     0.169 HD
BRANCH   7   9
ATOM      9  C16 <0> d           2.986   3.028  -3.621  0.00  0.00     0.036 A 
ATOM     10  C21 <0> d           3.560   3.540  -2.451  0.00  0.00     0.039 A 
ATOM     11  C20 <0> d           3.950   4.861  -2.474  0.00  0.00    -0.020 A 
ATOM     12  C19 <0> d           3.762   5.630  -3.614  0.00  0.00     0.050 A 
ATOM     13  C22 <0> d           4.587   5.779  -1.477  0.00  0.00     0.144 A 
ATOM     14  C18 <0> d           3.184   5.125  -4.780  0.00  0.00    -0.028 A 
ATOM     15  N3  <0> d           4.216   6.936  -3.447  0.00  0.00    -0.317 N 
ATOM     16  C17 <0> d           2.799   3.807  -4.761  0.00  0.00     0.039 A 
ATOM     17  C26 <0> d           3.037   6.069  -5.937  0.00  0.00     0.042 C 
ATOM     18  C25 <0> d           4.137   7.134  -5.876  0.00  0.00     0.025 C 
ATOM     19  C24 <0> d           4.110   7.906  -4.552  0.00  0.00     0.132 C 
ATOM     20  C23 <0> d           4.714   7.106  -2.213  0.00  0.00     0.228 A 
ATOM     21  O5  <0> d           5.180   8.132  -1.764  0.00  0.00    -0.273 OA
ENDBRANCH   7   9
ENDBRANCH   2   5
BRANCH   1  22
ATOM     22  C13 <0> d           0.949  -2.338  -1.385  0.00  0.00     0.137 C 
BRANCH  22  23
ATOM     23  C8  <0> d           0.148  -2.686  -0.128  0.00  0.00     0.009 C 
ATOM     24  C12 <0> d          -0.179  -4.182  -0.126  0.00  0.00     0.042 C 
ATOM     25  C11 <0> d           1.126  -4.982  -0.066  0.00  0.00     0.168 C 
ATOM     26  O2  <0> d           1.862  -4.603   1.099  0.00  0.00    -0.391 OA
ATOM     27  C10 <0> d           2.237  -3.224   1.129  0.00  0.00     0.168 C 
ATOM     28  C9  <0> d           0.977  -2.354   1.117  0.00  0.00     0.042 C 
BRANCH  23  29
ATOM     29  C7  <0> d          -1.131  -1.890  -0.108  0.00  0.00    -0.014 A 
ATOM     30  C2  <0> d          -2.092  -2.097  -1.087  0.00  0.00     0.075 A 
ATOM     31  C3  <0> d          -3.271  -1.366  -1.064  0.00  0.00     0.037 A 
ATOM     32  C4  <0> d          -3.484  -0.432  -0.069  0.00  0.00     0.003 A 
ATOM     33  C5  <0> d          -2.522  -0.224   0.903  0.00  0.00     0.001 A 
ATOM     34  C6  <0> d          -1.346  -0.950   0.881  0.00  0.00     0.011 A 
BRANCH  30  35
ATOM     35  O1  <0> d          -1.881  -3.017  -2.064  0.00  0.00    -0.355 OA
ATOM     36  C1  <0> d          -2.861  -3.100  -3.100  0.00  0.00     0.210 C 
ENDBRANCH  30  35
ENDBRANCH  23  29
ENDBRANCH  22  23
ENDBRANCH   1  22
TORSDOF 6
