REMARK  4 active torsions:
REMARK  status: ('A' for Active; 'I' for Inactive)
REMARK    1  A    between atoms: C8_9  and  S1_11 
REMARK    2  A    between atoms: S1_11  and  C9_12 
REMARK    3  A    between atoms: C14_17  and  C15_18 
REMARK    4  A    between atoms: C15_18  and  N3_19 
ROOT
ATOM      1  C9  <0> d           0.105  -7.035   1.047  0.00  0.00     0.061 C 
ATOM      2  C10 <0> d          -1.208  -6.942   0.267  0.00  0.00     0.020 C 
ATOM      3  C11 <0> d          -1.200  -7.966  -0.869  0.00  0.00    -0.017 C 
ATOM      4  C12 <0> d          -1.051  -9.373  -0.287  0.00  0.00     0.005 C 
ATOM      5  C13 <0> d           0.262  -9.466   0.493  0.00  0.00     0.008 C 
ATOM      6  C14 <0> d           0.254  -8.442   1.629  0.00  0.00     0.025 C 
ATOM      7  C16 <0> d          -2.513  -7.873  -1.649  0.00  0.00     0.010 C 
ENDROOT
BRANCH   1   8
ATOM      8  S1  <0> d           0.096  -5.820   2.394  0.00  0.00    -0.087 SA
BRANCH   8   9
ATOM      9  C8  <0> d           0.069  -4.265   1.566  0.00  0.00     0.167 A 
ATOM     10  N1  <0> d           0.055  -3.047   2.184  0.00  0.00    -0.333 N 
ATOM     11  C6  <0> d           0.037  -2.082   1.190  0.00  0.00     0.063 A 
ATOM     12  H24 <0> d           0.058  -2.887   3.141  0.00  0.00     0.168 HD
ATOM     13  C5  <0> d           0.040  -2.778  -0.030  0.00  0.00     0.086 A 
ATOM     14  C7  <0> d           0.023  -0.696   1.196  0.00  0.00     0.038 A 
ATOM     15  C4  <0> d           0.024  -2.063  -1.230  0.00  0.00     0.034 A 
ATOM     16  N2  <0> d           0.060  -4.104   0.266  0.00  0.00    -0.223 NA
ATOM     17  C3  <0> d           0.006  -0.686  -1.206  0.00  0.00     0.009 A 
ATOM     18  C2  <0> d           0.002  -0.004   0.002  0.00  0.00    -0.060 A 
ATOM     19  C1  <0> d          -0.018   1.503   0.010  0.00  0.00     0.048 C 
ENDBRANCH   8   9
ENDBRANCH   1   8
BRANCH   6  20
ATOM     20  C15 <0> d          -0.918  -8.731   2.569  0.00  0.00     0.235 C 
BRANCH  20  21
ATOM     21  N3  <0> d          -0.714 -10.032   3.220  0.00  0.00    -0.079 N 
ATOM     22  H18 <0> d          -0.659 -10.755   2.517  0.00  0.00     0.274 HD
ATOM     23  H19 <0> d           0.145 -10.012   3.749  0.00  0.00     0.274 HD
ATOM     24  H23 <0> d          -1.487 -10.223   3.839  0.00  0.00     0.274 HD
ENDBRANCH  20  21
ENDBRANCH   6  20
TORSDOF 4
