REMARK  6 active torsions:
REMARK  status: ('A' for Active; 'I' for Inactive)
REMARK    1  A    between atoms: C2_2  and  C3_3 
REMARK    2  A    between atoms: C2_2  and  N3_19 
REMARK    3  A    between atoms: C6_6  and  N1_10 
REMARK    4  A    between atoms: N1_10  and  C10_12 
REMARK    5  A    between atoms: C10_12  and  C11_13 
REMARK    6  A    between atoms: C11_13  and  N2_14 
ROOT
ATOM      1  C3  <0> d          -1.412  -0.526   0.013  0.00  0.00    -0.027 A 
ATOM      2  C4  <0> d          -2.122  -0.570   1.199  0.00  0.00     0.011 A 
ATOM      3  C5  <0> d          -3.418  -1.047   1.212  0.00  0.00     0.031 A 
ATOM      4  C6  <0> d          -4.008  -1.483   0.033  0.00  0.00     0.047 A 
ATOM      5  C7  <0> d          -3.293  -1.437  -1.157  0.00  0.00     0.038 A 
ATOM      6  C8  <0> d          -1.998  -0.953  -1.164  0.00  0.00     0.030 A 
ATOM      7 Br1  <0> d          -4.091  -2.029  -2.766  0.00  0.00    -0.049 Br
ENDROOT
BRANCH   4   8
ATOM      8  N1  <0> d          -5.319  -1.966   0.044  0.00  0.00    -0.383 N 
ATOM      9  C9  <0> d          -6.441  -1.047  -0.166  0.00  0.00     0.150 C 
BRANCH   8  10
ATOM     10  C10 <0> d          -5.572  -3.392   0.265  0.00  0.00     0.150 C 
BRANCH  10  11
ATOM     11  C11 <0> d          -5.735  -3.655   1.763  0.00  0.00     0.254 C 
BRANCH  11  12
ATOM     12  N2  <0> d          -5.989  -5.085   1.985  0.00  0.00    -0.070 N 
ATOM     13  C15 <0> d          -6.268  -5.338   3.415  0.00  0.00     0.235 C 
ATOM     14  C14 <0> d          -5.654  -6.708   3.760  0.00  0.00     0.029 C 
ATOM     15  C13 <0> d          -4.990  -7.193   2.451  0.00  0.00     0.029 C 
ATOM     16  C12 <0> d          -4.774  -5.877   1.663  0.00  0.00     0.235 C 
ATOM     17  H28 <0> d          -6.766  -5.393   1.419  0.00  0.00     0.279 HD
ENDBRANCH  11  12
ENDBRANCH  10  11
ENDBRANCH   8  10
ENDBRANCH   4   8
BRANCH   1  18
ATOM     18  C2  <0> d           0.002  -0.004   0.002  0.00  0.00     0.214 C 
ATOM     19  C1  <0> d          -0.019   1.526   0.010  0.00  0.00     0.045 C 
BRANCH  18  20
ATOM     20  N3  <0> d           0.713  -0.491   1.192  0.00  0.00    -0.071 N 
ATOM     21  C16 <0> d           2.122  -0.083   1.122  0.00  0.00     0.267 C 
ATOM     22  H23 <0> d           0.290  -0.099   2.020  0.00  0.00     0.277 HD
ATOM     23  H27 <0> d           0.655  -1.497   1.230  0.00  0.00     0.277 HD
ENDBRANCH  18  20
ENDBRANCH   1  18
TORSDOF 6
