REMARK  2 active torsions:
REMARK  status: ('A' for Active; 'I' for Inactive)
REMARK    1  A    between atoms: C4_5  and  C6_7 
REMARK    2  A    between atoms: C6_7  and  N2_8 
ROOT
ATOM      1  C1  <0> d          -0.018   1.465   0.010  0.00  0.00     0.269 C 
ATOM      2  N1  <0> d           0.002  -0.004   0.002  0.00  0.00    -0.074 N 
ATOM      3  C2  <0> d           0.766  -0.497  -1.164  0.00  0.00     0.234 C 
ATOM      4  C3  <0> d           1.508  -1.769  -0.713  0.00  0.00     0.035 C 
ATOM      5  C4  <0> d           1.141  -1.943   0.779  0.00  0.00     0.031 C 
ATOM      6  C5  <0> d           0.718  -0.513   1.200  0.00  0.00     0.240 C 
ATOM      7  H14 <0> d          -0.940  -0.365  -0.020  0.00  0.00     0.279 HD
ENDROOT
BRANCH   5   8
ATOM      8  C6  <0> d           2.355  -2.411   1.584  0.00  0.00     0.138 C 
BRANCH   8   9
ATOM      9  N2  <0> d           2.728  -3.764   1.163  0.00  0.00    -0.317 N 
ATOM     10  C8  <0> d           3.527  -4.108   0.110  0.00  0.00     0.202 A 
ATOM     11  N4  <0> d           3.599  -5.419   0.095  0.00  0.00    -0.122 NA
ATOM     12  S1  <0> d           4.315  -3.003  -1.013  0.00  0.00    -0.009 SA
ATOM     13  N3  <0> d           2.897  -5.906   1.056  0.00  0.00    -0.143 NA
ATOM     14  C7  <0> d           2.344  -4.943   1.738  0.00  0.00     0.236 A 
ENDBRANCH   8   9
ENDBRANCH   5   8
TORSDOF 2
