REMARK  3 active torsions:
REMARK  status: ('A' for Active; 'I' for Inactive)
REMARK    1  A    between atoms: C6_6  and  N1_7 
REMARK    2  A    between atoms: C8_10  and  C9_11 
REMARK    3  A    between atoms: N2_12  and  N3_13 
ROOT
ATOM      1  N1  <0> d           2.400   1.101  -0.095  0.00  0.00    -0.229 N 
ATOM      2  C7  <0> d           3.547   1.805  -0.196  0.00  0.00     0.273 A 
ATOM      3  O1  <0> d           3.528   3.015  -0.319  0.00  0.00    -0.266 OA
ATOM      4  C8  <0> d           4.822   1.068  -0.152  0.00  0.00     0.117 A 
ATOM      5  C15 <0> d           4.747  -0.396  -0.001  0.00  0.00     0.266 A 
ATOM      6  O2  <0> d           5.757  -1.072   0.043  0.00  0.00    -0.267 OA
ATOM      7  N4  <0> d           3.527  -0.966   0.087  0.00  0.00    -0.274 N 
ATOM      8  C16 <0> d           2.407  -0.232   0.046  0.00  0.00     0.337 A 
ATOM      9  O3  <0> d           1.339  -0.806   0.137  0.00  0.00    -0.246 OA
ATOM     10  H17 <0> d           3.460  -1.928   0.187  0.00  0.00     0.173 HD
ENDROOT
BRANCH   4  11
ATOM     11  C9  <0> d           6.037   1.722  -0.250  0.00  0.00     0.124 C 
ATOM     12  N2  <0> d           6.079   3.070  -0.245  0.00  0.00    -0.329 N 
ATOM     13  H6  <0> d           5.269   3.580  -0.093  0.00  0.00     0.180 HD
BRANCH  12  14
ATOM     14  N3  <0> d           7.264   3.716  -0.457  0.00  0.00    -0.232 NA
ATOM     15  C14 <0> d           7.188   4.580  -1.642  0.00  0.00     0.113 C 
ATOM     16  C13 <0> d           8.569   5.173  -1.932  0.00  0.00     0.016 C 
ATOM     17  C12 <0> d           9.037   5.981  -0.718  0.00  0.00     0.002 C 
ATOM     18  C11 <0> d           9.060   5.070   0.513  0.00  0.00     0.016 C 
ATOM     19  C10 <0> d           7.665   4.480   0.732  0.00  0.00     0.113 C 
ENDBRANCH  12  14
ENDBRANCH   4  11
BRANCH   1  20
ATOM     20  C6  <0> d           1.175   1.780  -0.134  0.00  0.00     0.047 A 
ATOM     21  C1  <0> d           0.305   1.584  -1.198  0.00  0.00     0.031 A 
ATOM     22  C2  <0> d          -0.900   2.259  -1.237  0.00  0.00     0.020 A 
ATOM     23  C3  <0> d          -1.244   3.121  -0.211  0.00  0.00     0.006 A 
ATOM     24  C4  <0> d          -0.380   3.317   0.850  0.00  0.00     0.020 A 
ATOM     25  I1  <0> d          -3.076   4.137  -0.270  0.00  0.00    -0.045 I 
ATOM     26  C5  <0> d           0.829   2.650   0.891  0.00  0.00     0.031 A 
ENDBRANCH   1  20
TORSDOF 3
