REMARK  4 active torsions:
REMARK  status: ('A' for Active; 'I' for Inactive)
REMARK    1  A    between atoms: C2_2  and  C7_9 
REMARK    2  A    between atoms: C7_9  and  N1_10 
REMARK    3  A    between atoms: N1_10  and  S1_11 
REMARK    4  A    between atoms: S1_11  and  C8_14 
ROOT
ATOM      1  N1  <0> d           1.156   4.076   1.393  0.00  0.00    -0.311 N 
ATOM      2  H7  <0> d           0.954   3.466   2.120  0.00  0.00     0.172 HD
ENDROOT
BRANCH   1   3
ATOM      3  C7  <0> d           1.150   3.594   0.010  0.00  0.00     0.171 C 
BRANCH   3   4
ATOM      4  C2  <0> d           1.171   2.087   0.002  0.00  0.00    -0.036 A 
ATOM      5  C1  <0> d          -0.017   1.380   0.010  0.00  0.00     0.051 A 
ATOM      6  C6  <0> d           0.002  -0.004   0.002  0.00  0.00     0.118 A 
ATOM      7  C5  <0> d           1.211  -0.679  -0.014  0.00  0.00     0.061 A 
ATOM      8  F1  <0> d          -1.158  -0.696   0.009  0.00  0.00    -0.206 F 
ATOM      9  C4  <0> d           2.398   0.030  -0.021  0.00  0.00     0.014 A 
ATOM     10  C3  <0> d           2.377   1.413  -0.013  0.00  0.00     0.028 A 
ATOM     11 Br1  <0> d           4.049  -0.891  -0.043  0.00  0.00    -0.051 Br
ENDBRANCH   3   4
ENDBRANCH   1   3
BRANCH   1  12
ATOM     12  S1  <0> d           1.509   5.661   1.717  0.00  0.00     0.262 S 
ATOM     13  O1  <0> d           1.408   5.820   3.126  0.00  0.00    -0.200 OA
ATOM     14  O2  <0> d           2.696   5.968   0.999  0.00  0.00    -0.200 OA
BRANCH  12  15
ATOM     15  C8  <0> d           0.224   6.636   1.007  0.00  0.00     0.115 A 
ATOM     16  C10 <0> d          -0.961   7.023   1.642  0.00  0.00     0.165 A 
ATOM     17  N3  <0> d          -1.660   7.739   0.799  0.00  0.00    -0.186 NA
ATOM     18  N2  <0> d          -0.946   7.822  -0.403  0.00  0.00    -0.288 N 
ATOM     19  C9  <0> d           0.206   7.136  -0.249  0.00  0.00     0.136 A 
ATOM     20  H1  <0> d          -1.230   8.289  -1.205  0.00  0.00     0.188 HD
ENDBRANCH  12  15
ENDBRANCH   1  12
TORSDOF 4
