REMARK  3 active torsions:
REMARK  status: ('A' for Active; 'I' for Inactive)
REMARK    1  A    between atoms: C7_10  and  N2_14 
REMARK       I    between atoms: N2_14  and  C10_15 
REMARK    2  A    between atoms: C10_15  and  C11_17 
REMARK    3  A    between atoms: C14_21  and  C15_22 
ROOT
ATOM      1  N2  <0> d          -2.259  -2.901   0.007  0.00  0.00    -0.325 N 
ATOM      2  C10 <0> d          -3.458  -2.295   0.124  0.00  0.00     0.228 C 
ATOM      3  O2  <0> d          -3.526  -1.084   0.132  0.00  0.00    -0.273 OA
ATOM      4  H8  <0> d          -2.210  -3.867  -0.065  0.00  0.00     0.169 HD
ENDROOT
BRANCH   1   5
ATOM      5  C7  <0> d          -1.090  -2.139  -0.010  0.00  0.00     0.057 A 
ATOM      6  C6  <0> d          -1.093  -0.891  -0.610  0.00  0.00     0.043 A 
ATOM      7  C5  <0> d           0.078  -0.136  -0.622  0.00  0.00    -0.017 A 
ATOM      8  C1  <0> d           0.139   1.190  -1.241  0.00  0.00     0.029 A 
ATOM      9  C4  <0> d           1.252  -0.652  -0.022  0.00  0.00     0.044 A 
ATOM     10  C2  <0> d           1.294   1.873  -1.224  0.00  0.00     0.092 A 
ATOM     11  N1  <0> d           2.429   1.378  -0.646  0.00  0.00    -0.333 N 
ATOM     12  H1  <0> d           3.236   1.915  -0.663  0.00  0.00     0.168 HD
ATOM     13  C3  <0> d           2.466   0.168  -0.053  0.00  0.00     0.256 A 
ATOM     14  O1  <0> d           3.497  -0.239   0.452  0.00  0.00    -0.267 OA
ATOM     15  C9  <0> d           1.228  -1.912   0.578  0.00  0.00     0.044 A 
ATOM     16  C8  <0> d           0.073  -2.641   0.580  0.00  0.00     0.061 A 
ATOM     17 Cl1  <0> d           0.048  -4.208   1.325  0.00  0.00    -0.082 Cl
ENDBRANCH   1   5
BRANCH   2  18
ATOM     18  C11 <0> d          -4.712  -3.122   0.245  0.00  0.00     0.114 C 
ATOM     19  C14 <0> d          -5.950  -2.207   0.330  0.00  0.00     0.059 C 
ATOM     20  C13 <0> d          -6.805  -2.577  -0.904  0.00  0.00     0.242 C 
ATOM     21  N3  <0> d          -5.837  -3.155  -1.871  0.00  0.00    -0.074 N 
ATOM     22  C12 <0> d          -4.921  -3.968  -1.029  0.00  0.00     0.247 C 
ATOM     23  H11 <0> d          -5.327  -2.422  -2.341  0.00  0.00     0.277 HD
ATOM     24  H18 <0> d          -6.314  -3.741  -2.540  0.00  0.00     0.277 HD
BRANCH  19  25
ATOM     25  C15 <0> d          -6.716  -2.478   1.599  0.00  0.00    -0.049 A 
ATOM     26  C19 <0> d          -6.914  -1.477   2.537  0.00  0.00     0.027 A 
ATOM     27  C18 <0> d          -7.626  -1.761   3.687  0.00  0.00     0.116 A 
ATOM     28  N4  <0> d          -8.105  -2.971   3.901  0.00  0.00    -0.273 NA
ATOM     29  C17 <0> d          -7.931  -3.950   3.035  0.00  0.00     0.116 A 
ATOM     30  C16 <0> d          -7.234  -3.738   1.860  0.00  0.00     0.027 A 
ENDBRANCH  19  25
ENDBRANCH   2  18
TORSDOF 3
