REMARK  6 active torsions:
REMARK  status: ('A' for Active; 'I' for Inactive)
REMARK    1  A    between atoms: C9_10  and  C10_11 
REMARK    2  A    between atoms: C10_11  and  N2_12 
REMARK    3  A    between atoms: N3_15  and  C17_21 
REMARK    4  A    between atoms: C13_16  and  C15_18 
REMARK    5  A    between atoms: C15_18  and  C16_19 
REMARK    6  A    between atoms: C16_19  and  O1_20 
ROOT
ATOM      1  N2  <0> d           1.323  -1.612   3.180  0.00  0.00     0.094 N 
ATOM      2  C11 <0> d           0.226  -1.470   4.149  0.00  0.00     0.300 C 
ATOM      3  C12 <0> d           0.327  -2.582   5.195  0.00  0.00     0.266 C 
ATOM      4  N3  <0> d           1.623  -2.494   5.880  0.00  0.00    -0.059 N 
ATOM      5  C13 <0> d           2.707  -2.663   4.904  0.00  0.00     0.218 C 
ATOM      6  C14 <0> d           2.627  -1.551   3.855  0.00  0.00     0.305 C 
ATOM      7  H35 <0> d           1.708  -1.593   6.325  0.00  0.00     0.281 HD
ENDROOT
BRANCH   1   8
ATOM      8  C10 <0> d           1.228  -0.594   2.125  0.00  0.00     0.302 C 
BRANCH   8   9
ATOM      9  C9  <0> d          -0.026  -0.845   1.286  0.00  0.00     0.140 A 
ATOM     10  C2  <0> d          -0.075   0.118   0.121  0.00  0.00    -0.047 A 
ATOM     11  C1  <0> d          -0.132   1.623   0.190  0.00  0.00     0.046 C 
ATOM     12  C3  <0> d          -0.052  -0.644  -0.997  0.00  0.00    -0.006 A 
ATOM     13  C8  <0> d           0.005  -2.071  -0.610  0.00  0.00     0.039 A 
ATOM     14  C4  <0> d          -0.072  -0.313  -2.426  0.00  0.00     0.014 A 
ATOM     15  C7  <0> d           0.035  -3.044  -1.647  0.00  0.00     0.030 A 
ATOM     16  N1  <0> d           0.016  -2.188   0.696  0.00  0.00    -0.379 N 
ATOM     17  C6  <0> d           0.014  -2.661  -2.941  0.00  0.00     0.002 A 
ATOM     18  C5  <0> d          -0.039  -1.316  -3.333  0.00  0.00     0.001 A 
ATOM     19  H34 <0> d           0.050  -3.022   1.190  0.00  0.00     0.160 HD
ENDBRANCH   8   9
ENDBRANCH   1   8
BRANCH   5  20
ATOM     20  C15 <0> d           4.056  -2.589   5.622  0.00  0.00     0.061 C 
BRANCH  20  21
ATOM     21  C16 <0> d           5.183  -2.835   4.617  0.00  0.00     0.166 C 
BRANCH  21  22
ATOM     22  O1  <0> d           6.434  -2.889   5.307  0.00  0.00    -0.401 OA
ATOM     23  H22 <0> d           7.195  -3.042   4.730  0.00  0.00     0.209 HD
ENDBRANCH  21  22
ENDBRANCH  20  21
ENDBRANCH   5  20
BRANCH   4  24
ATOM     24  C17 <0> d           1.712  -3.551   6.897  0.00  0.00     0.188 C 
ATOM     25  C22 <0> d           0.661  -3.304   7.982  0.00  0.00     0.033 C 
ATOM     26  C21 <0> d           0.753  -4.405   9.040  0.00  0.00     0.002 C 
ATOM     27  C20 <0> d           0.501  -5.765   8.386  0.00  0.00     0.000 C 
ATOM     28  C19 <0> d           1.551  -6.011   7.301  0.00  0.00     0.002 C 
ATOM     29  C18 <0> d           1.459  -4.911   6.242  0.00  0.00     0.033 C 
ENDBRANCH   4  24
TORSDOF 6
