REMARK  5 active torsions:
REMARK  status: ('A' for Active; 'I' for Inactive)
REMARK    1  A    between atoms: N1_4  and  C6_8 
REMARK    2  A    between atoms: N2_11  and  C11_14 
REMARK    3  A    between atoms: C11_14  and  C13_16 
REMARK       I    between atoms: C13_16  and  N3_18 
REMARK    4  A    between atoms: N3_18  and  C14_19 
REMARK    5  A    between atoms: C15_20  and  C18_24 
REMARK       I    between atoms: C18_24  and  N4_26 
ROOT
ATOM      1  C11 <0> d           4.152  -4.792  -4.781  0.00  0.00     0.275 C 
ATOM      2  C12 <0> d           5.366  -4.277  -4.006  0.00  0.00     0.050 C 
ENDROOT
BRANCH   1   3
ATOM      3  N2  <0> d           2.926  -4.219  -4.208  0.00  0.00    -0.059 N 
ATOM      4  C8  <0> d           3.007  -2.754  -4.250  0.00  0.00     0.238 C 
ATOM      5  C7  <0> d           1.769  -2.152  -3.581  0.00  0.00     0.063 C 
ATOM      6  C6  <0> d           0.515  -2.618  -4.327  0.00  0.00     0.226 C 
ATOM      7  C10 <0> d           0.481  -4.149  -4.341  0.00  0.00     0.063 C 
ATOM      8  C9  <0> d           1.766  -4.676  -4.982  0.00  0.00     0.238 C 
ATOM      9  H29 <0> d           2.832  -4.523  -3.251  0.00  0.00     0.280 HD
BRANCH   6  10
ATOM     10  N1  <0> d          -0.681  -2.106  -3.644  0.00  0.00     0.097 N 
ATOM     11  C3  <0> d          -0.804  -0.651  -3.817  0.00  0.00     0.304 C 
ATOM     12  C2  <0> d          -2.091  -0.170  -3.142  0.00  0.00     0.145 C 
ATOM     13  C1  <0> d          -2.185   1.354  -3.249  0.00  0.00     0.041 C 
ATOM     14  O1  <0> d          -2.075  -0.552  -1.764  0.00  0.00    -0.383 OA
ATOM     15  C5  <0> d          -1.956  -1.963  -1.560  0.00  0.00     0.198 C 
ATOM     16  C4  <0> d          -0.667  -2.462  -2.218  0.00  0.00     0.299 C 
ENDBRANCH   6  10
ENDBRANCH   1   3
BRANCH   1  17
ATOM     17  C13 <0> d           4.096  -6.295  -4.687  0.00  0.00     0.253 C 
ATOM     18  O2  <0> d           3.445  -6.823  -3.810  0.00  0.00    -0.271 OA
ATOM     19  N3  <0> d           4.769  -7.051  -5.576  0.00  0.00    -0.319 N 
ATOM     20  H24 <0> d           5.290  -6.628  -6.277  0.00  0.00     0.169 HD
BRANCH  19  21
ATOM     21  C14 <0> d           4.718  -8.434  -5.489  0.00  0.00     0.092 A 
ATOM     22  S1  <0> d           3.889  -9.367  -4.368  0.00  0.00    -0.083 SA
ATOM     23  C17 <0> d           4.324 -10.997  -4.933  0.00  0.00     0.053 A 
ATOM     24  C16 <0> d           5.121 -10.756  -5.990  0.00  0.00     0.027 A 
ATOM     25  C15 <0> d           5.345  -9.364  -6.305  0.00  0.00     0.066 A 
BRANCH  25  26
ATOM     26  C18 <0> d           6.191  -8.955  -7.431  0.00  0.00     0.252 C 
ATOM     27  O3  <0> d           6.359  -7.773  -7.668  0.00  0.00    -0.268 OA
ATOM     28  N4  <0> d           6.785  -9.888  -8.201  0.00  0.00    -0.366 N 
ATOM     29  H27 <0> d           6.652 -10.830  -8.012  0.00  0.00     0.159 HD
ATOM     30  H28 <0> d           7.345  -9.617  -8.946  0.00  0.00     0.159 HD
ENDBRANCH  25  26
ENDBRANCH  19  21
ENDBRANCH   1  17
TORSDOF 5
