REMARK  2 active torsions:
REMARK  status: ('A' for Active; 'I' for Inactive)
REMARK    1  A    between atoms: C4_4  and  N2_9 
REMARK    2  A    between atoms: N2_9  and  C8_10 
ROOT
ATOM      1  C1  <0> d          -0.019   1.545   0.011  0.00  0.00     0.030 C 
ATOM      2  C2  <0> d           1.496   1.878  -0.002  0.00  0.00     0.037 C 
ATOM      3  C3  <0> d           2.107   0.758   0.864  0.00  0.00     0.221 C 
ATOM      4  C4  <0> d           3.421   0.281   0.213  0.00  0.00     0.253 C 
ATOM      5  C5  <0> d           2.971  -0.933  -0.642  0.00  0.00     0.065 C 
ATOM      6  C6  <0> d           1.859  -1.545   0.246  0.00  0.00     0.237 C 
ATOM      7  N1  <0> d           1.154  -0.373   0.852  0.00  0.00    -0.065 N 
ATOM      8  C7  <0> d           0.002  -0.004   0.002  0.00  0.00     0.235 C 
ATOM      9  H21 <0> d           0.847  -0.581   1.790  0.00  0.00     0.280 HD
ENDROOT
BRANCH   4  10
ATOM     10  N2  <0> d           3.992   1.335  -0.636  0.00  0.00     0.095 N 
ATOM     11  H14 <0> d           3.541   1.356  -1.539  0.00  0.00     0.317 HD
BRANCH  10  12
ATOM     12  C8  <0> d           5.444   1.168  -0.777  0.00  0.00     0.235 C 
ATOM     13  C11 <0> d           5.923   1.831  -2.100  0.00  0.00     0.175 C 
ATOM     14  S1  <0> d           7.720   2.031  -1.746  0.00  0.00     0.146 S 
ATOM     15  C10 <0> d           7.677   1.971   0.092  0.00  0.00     0.142 C 
ATOM     16  O1  <0> d           8.417   0.891  -2.229  0.00  0.00    -0.228 OA
ATOM     17  O2  <0> d           8.131   3.328  -2.156  0.00  0.00    -0.228 OA
ATOM     18  C9  <0> d           6.163   1.861   0.393  0.00  0.00     0.051 C 
ENDBRANCH  10  12
ENDBRANCH   4  10
TORSDOF 2
