REMARK  6 active torsions:
REMARK  status: ('A' for Active; 'I' for Inactive)
REMARK    1  A    between atoms: C2_2  and  C3_3 
REMARK    2  A    between atoms: C2_2  and  N1_10 
REMARK       I    between atoms: N1_10  and  C9_11 
REMARK    3  A    between atoms: C9_11  and  C10_13 
REMARK    4  A    between atoms: C12_15  and  S1_19 
REMARK    5  A    between atoms: S1_19  and  N3_22 
REMARK    6  A    between atoms: N3_22  and  C14_23 
ROOT
ATOM      1  C10 <0> d          -2.739  -1.201  -0.646  0.00  0.00     0.102 A 
ATOM      2  C11 <0> d          -3.418  -1.438  -1.823  0.00  0.00     0.062 A 
ATOM      3  C12 <0> d          -4.717  -1.822  -1.477  0.00  0.00     0.097 A 
ATOM      4  C13 <0> d          -4.808  -1.813  -0.126  0.00  0.00     0.113 A 
ATOM      5  N2  <0> d          -3.611  -1.442   0.391  0.00  0.00    -0.360 N 
ATOM      6  H2  <0> d          -3.403  -1.359   1.335  0.00  0.00     0.165 HD
ENDROOT
BRANCH   1   7
ATOM      7  C9  <0> d          -1.341  -0.775  -0.523  0.00  0.00     0.268 C 
ATOM      8  N1  <0> d          -0.800  -0.584   0.697  0.00  0.00    -0.347 N 
ATOM      9  H10 <0> d          -1.335  -0.728   1.493  0.00  0.00     0.163 HD
ATOM     10  O1  <0> d          -0.669  -0.594  -1.522  0.00  0.00    -0.266 OA
BRANCH   8  11
ATOM     11  C2  <0> d           0.597  -0.159   0.820  0.00  0.00     0.117 C 
ATOM     12  C1  <0> d           0.666   1.370   0.821  0.00  0.00     0.037 C 
BRANCH  11  13
ATOM     13  C3  <0> d           1.171  -0.689   2.108  0.00  0.00     0.003 A 
ATOM     14  C8  <0> d           2.533  -0.916   2.218  0.00  0.00     0.124 A 
ATOM     15  C7  <0> d           3.060  -1.398   3.404  0.00  0.00     0.043 A 
ATOM     16  F1  <0> d           3.346  -0.663   1.170  0.00  0.00    -0.205 F 
ATOM     17  C6  <0> d           2.225  -1.661   4.474  0.00  0.00     0.003 A 
ATOM     18  C5  <0> d           0.865  -1.438   4.362  0.00  0.00     0.001 A 
ATOM     19  C4  <0> d           0.339  -0.953   3.180  0.00  0.00     0.012 A 
ENDBRANCH  11  13
ENDBRANCH   8  11
ENDBRANCH   1   7
BRANCH   3  20
ATOM     20  S1  <0> d          -6.008  -2.243  -2.600  0.00  0.00     0.264 S 
ATOM     21  O2  <0> d          -7.232  -2.019  -1.914  0.00  0.00    -0.200 OA
ATOM     22  O3  <0> d          -5.698  -1.606  -3.832  0.00  0.00    -0.200 OA
BRANCH  20  23
ATOM     23  N3  <0> d          -5.909  -3.873  -2.872  0.00  0.00    -0.278 N 
ATOM     24  H13 <0> d          -5.760  -4.207  -3.770  0.00  0.00     0.179 HD
BRANCH  23  25
ATOM     25  C14 <0> d          -6.040  -4.769  -1.806  0.00  0.00     0.081 A 
ATOM     26  C19 <0> d          -5.297  -5.944  -1.787  0.00  0.00     0.143 A 
ATOM     27  C18 <0> d          -5.426  -6.824  -0.728  0.00  0.00     0.044 A 
ATOM     28  F2  <0> d          -4.447  -6.223  -2.800  0.00  0.00    -0.204 F 
ATOM     29  C17 <0> d          -6.301  -6.541   0.305  0.00  0.00     0.003 A 
ATOM     30  C16 <0> d          -7.045  -5.376   0.286  0.00  0.00     0.002 A 
ATOM     31  C15 <0> d          -6.917  -4.489  -0.766  0.00  0.00     0.033 A 
ENDBRANCH  23  25
ENDBRANCH  20  23
ENDBRANCH   3  20
TORSDOF 6
