REMARK  4 active torsions:
REMARK  status: ('A' for Active; 'I' for Inactive)
REMARK    1  A    between atoms: C5_8  and  C6_9 
REMARK    2  A    between atoms: C9_12  and  S1_14 
REMARK    3  A    between atoms: S1_14  and  C10_15 
REMARK    4  A    between atoms: C10_15  and  C11_16 
ROOT
ATOM      1  C1  <0> d           0.986   1.151   0.594  0.00  0.00     0.081 C 
ATOM      2  C2  <0> d           0.732  -0.316   0.366  0.00  0.00     0.095 A 
ATOM      3  N1  <0> d          -0.390  -0.972   0.438  0.00  0.00    -0.161 NA
ATOM      4  N2  <0> d          -0.444  -2.327   0.189  0.00  0.00    -0.189 N 
ATOM      5  C3  <0> d          -1.615  -3.114   0.152  0.00  0.00     0.162 C 
ATOM      6  N3  <0> d          -2.808  -2.619  -0.067  0.00  0.00    -0.281 NA
ATOM      7  C4  <0> d          -1.362  -4.559   0.386  0.00  0.00     0.084 C 
ATOM      8  C5  <0> d          -2.286  -5.368   1.042  0.00  0.00     0.058 C 
ATOM      9  C15 <0> d          -0.077  -5.093  -0.113  0.00  0.00     0.283 C 
ATOM     10  O3  <0> d           0.045  -6.277  -0.391  0.00  0.00    -0.265 OA
ATOM     11  N4  <0> d           0.956  -4.237  -0.255  0.00  0.00    -0.182 NA
ATOM     12  C16 <0> d           0.753  -2.958  -0.074  0.00  0.00     0.201 A 
ATOM     13  S2  <0> d           1.894  -1.600  -0.081  0.00  0.00    -0.033 SA
ATOM     14  H4  <0> d          -2.918  -1.667  -0.214  0.00  0.00     0.188 HD
ENDROOT
BRANCH   8  15
ATOM     15  C6  <0> d          -1.922  -6.652   1.454  0.00  0.00     0.077 A 
ATOM     16  O1  <0> d          -0.680  -7.185   1.391  0.00  0.00    -0.304 OA
ATOM     17  C9  <0> d          -0.708  -8.436   1.877  0.00  0.00     0.113 A 
ATOM     18  C8  <0> d          -2.001  -8.734   2.259  0.00  0.00     0.047 A 
ATOM     19  C7  <0> d          -2.775  -7.609   1.994  0.00  0.00     0.040 A 
BRANCH  17  20
ATOM     20  S1  <0> d           0.675  -9.520   2.002  0.00  0.00    -0.098 SA
BRANCH  20  21
ATOM     21  C10 <0> d           2.057  -8.546   1.345  0.00  0.00     0.146 C 
BRANCH  21  22
ATOM     22  C11 <0> d           3.320  -9.367   1.394  0.00  0.00     0.062 A 
ATOM     23  O2  <0> d           4.186  -9.415   2.420  0.00  0.00    -0.326 OA
ATOM     24  C14 <0> d           5.191 -10.253   2.118  0.00  0.00     0.142 A 
ATOM     25  C13 <0> d           4.980 -10.743   0.883  0.00  0.00     0.027 A 
ATOM     26  C12 <0> d           3.773 -10.173   0.417  0.00  0.00     0.035 A 
ENDBRANCH  21  22
ENDBRANCH  20  21
ENDBRANCH  17  20
ENDBRANCH   8  15
TORSDOF 4
