REMARK  2 active torsions:
REMARK  status: ('A' for Active; 'I' for Inactive)
REMARK    1  A    between atoms: C4_4  and  N1_9 
REMARK    2  A    between atoms: N1_9  and  C8_10 
ROOT
ATOM      1  N1  <0> d           0.028  -2.770  -2.418  0.00  0.00    -0.376 N 
ATOM      2  H8  <0> d           0.017  -2.282  -3.256  0.00  0.00     0.160 HD
ENDROOT
BRANCH   1   3
ATOM      3  C4  <0> d           0.025  -2.076  -1.205  0.00  0.00     0.029 A 
ATOM      4  C3  <0> d           0.006  -0.687  -1.198  0.00  0.00     0.037 A 
ATOM      5  C2  <0> d           0.002  -0.004   0.002  0.00  0.00    -0.043 A 
ATOM      6  C1  <0> d          -0.018   1.503   0.010  0.00  0.00     0.049 C 
ATOM      7  C7  <0> d           0.023  -0.701   1.197  0.00  0.00     0.017 A 
ATOM      8  C6  <0> d           0.036  -2.085   1.193  0.00  0.00     0.022 A 
ATOM      9 Br1  <0> d           0.026   0.238   2.838  0.00  0.00    -0.051 Br
ATOM     10  C5  <0> d           0.040  -2.774  -0.004  0.00  0.00     0.030 A 
ENDBRANCH   1   3
BRANCH   1  11
ATOM     11  C8  <0> d           0.048  -4.235  -2.423  0.00  0.00     0.183 A 
ATOM     12  C11 <0> d           1.471  -4.748  -2.397  0.00  0.00     0.247 A 
ATOM     13  N2  <0> d           1.700  -5.461  -3.511  0.00  0.00    -0.296 N 
ATOM     14  O2  <0> d           2.274  -4.546  -1.511  0.00  0.00    -0.271 OA
ATOM     15  C10 <0> d           0.653  -5.545  -4.342  0.00  0.00     0.226 A 
ATOM     16  H11 <0> d           2.553  -5.882  -3.698  0.00  0.00     0.171 HD
ATOM     17  C9  <0> d          -0.512  -4.780  -3.753  0.00  0.00     0.138 A 
ATOM     18  O1  <0> d           0.642  -6.138  -5.399  0.00  0.00    -0.273 OA
ENDBRANCH   1  11
TORSDOF 2
