REMARK  6 active torsions:
REMARK  status: ('A' for Active; 'I' for Inactive)
REMARK    1  A    between atoms: C4_7  and  O4_28 
REMARK    2  A    between atoms: C5_8  and  C6_10 
REMARK    3  A    between atoms: C6_10  and  C7_11 
REMARK    4  A    between atoms: C6_10  and  N6_32 
REMARK    5  A    between atoms: C10_14  and  N4_17 
REMARK    6  A    between atoms: C15_22  and  C18_25 
REMARK       I    between atoms: C18_25  and  N5_27 
ROOT
ATOM      1  C6  <0> d          -0.013   1.086   0.008  0.00  0.00     0.265 C 
ENDROOT
BRANCH   1   2
ATOM      2  C5  <0> d          -0.742   1.585  -1.213  0.00  0.00     0.074 A 
ATOM      3  C4  <0> d          -1.076   0.923  -2.327  0.00  0.00     0.182 A 
ATOM      4  N2  <0> d          -1.748   1.558  -3.344  0.00  0.00    -0.184 N 
ATOM      5  C3  <0> d          -2.052   2.873  -3.164  0.00  0.00     0.198 A 
ATOM      6  N3  <0> d          -2.269   1.254  -4.628  0.00  0.00    -0.148 NA
ATOM      7  N1  <0> d          -2.685   3.323  -4.213  0.00  0.00    -0.206 NA
ATOM      8  S1  <0> d          -1.393   3.214  -1.550  0.00  0.00    -0.048 SA
ATOM      9  C2  <0> d          -2.817   2.341  -5.102  0.00  0.00     0.145 A 
ATOM     10  C1  <0> d          -3.492   2.463  -6.444  0.00  0.00     0.095 C 
BRANCH   3  11
ATOM     11  O4  <0> d          -0.747  -0.391  -2.454  0.00  0.00    -0.344 OA
ATOM     12  H20 <0> d          -1.423  -0.999  -2.124  0.00  0.00     0.219 HD
ENDBRANCH   3  11
ENDBRANCH   1   2
BRANCH   1  13
ATOM     13  C7  <0> d           1.401   1.607  -0.003  0.00  0.00    -0.022 A 
ATOM     14  C12 <0> d           2.435   0.793  -0.426  0.00  0.00     0.012 A 
ATOM     15  C11 <0> d           3.732   1.272  -0.437  0.00  0.00     0.037 A 
ATOM     16  C10 <0> d           3.995   2.565  -0.023  0.00  0.00     0.102 A 
ATOM     17  C9  <0> d           2.961   3.379   0.401  0.00  0.00     0.037 A 
ATOM     18  C8  <0> d           1.663   2.902   0.406  0.00  0.00     0.012 A 
BRANCH  16  19
ATOM     19  N4  <0> d           5.383   3.077  -0.035  0.00  0.00    -0.116 N 
ATOM     20  O1  <0> d           6.294   2.360  -0.408  0.00  0.00    -0.532 OA
ATOM     21  O2  <0> d           5.615   4.216   0.330  0.00  0.00    -0.532 OA
ENDBRANCH  16  19
ENDBRANCH   1  13
BRANCH   1  22
ATOM     22  N6  <0> d          -0.701   1.589   1.215  0.00  0.00    -0.058 N 
ATOM     23  C13 <0> d           0.038   1.176   2.427  0.00  0.00     0.237 C 
ATOM     24  C14 <0> d          -0.626   1.808   3.652  0.00  0.00     0.042 C 
ATOM     25  C15 <0> d          -2.077   1.329   3.744  0.00  0.00     0.081 C 
ATOM     26  C16 <0> d          -2.811   1.698   2.452  0.00  0.00     0.042 C 
ATOM     27  C17 <0> d          -2.084   1.070   1.261  0.00  0.00     0.237 C 
ATOM     28  H21 <0> d          -0.731   2.615   1.177  0.00  0.00     0.281 HD
BRANCH  25  29
ATOM     29  C18 <0> d          -2.755   1.993   4.915  0.00  0.00     0.219 C 
ATOM     30  O3  <0> d          -3.728   2.693   4.736  0.00  0.00    -0.273 OA
ATOM     31  N5  <0> d          -2.278   1.809   6.163  0.00  0.00    -0.370 N 
ATOM     32  H18 <0> d          -1.499   1.249   6.306  0.00  0.00     0.159 HD
ATOM     33  H19 <0> d          -2.714   2.236   6.916  0.00  0.00     0.159 HD
ENDBRANCH  25  29
ENDBRANCH   1  22
TORSDOF 6
