REMARK  1 active torsions:
REMARK  status: ('A' for Active; 'I' for Inactive)
REMARK    1  A    between atoms: C4_5  and  C6_7 
ROOT
ATOM      1  C6  <0> d           0.832  -2.011   1.198  0.00  0.00     0.106 A 
ATOM      2  N2  <0> d           1.524  -2.810   0.435  0.00  0.00    -0.247 NA
ATOM      3  C7  <0> d           1.453  -4.144   0.532  0.00  0.00     0.050 A 
ATOM      4  C8  <0> d           0.609  -4.587   1.491  0.00  0.00     0.023 A 
ATOM      5  S1  <0> d          -0.026  -3.076   2.180  0.00  0.00    -0.074 SA
ATOM      6  C9  <0> d           0.266  -5.980   1.916  0.00  0.00     0.188 C 
ATOM      7  S2  <0> d           0.815  -7.126   0.612  0.00  0.00     0.149 S 
ATOM      8  O1  <0> d          -0.037  -6.975  -0.516  0.00  0.00    -0.228 OA
ATOM      9  O2  <0> d           0.994  -8.415   1.182  0.00  0.00    -0.228 OA
ATOM     10  C10 <0> d           2.447  -6.432   0.208  0.00  0.00     0.147 C 
ATOM     11  C11 <0> d           2.265  -5.040  -0.386  0.00  0.00     0.075 C 
ENDROOT
BRANCH   1  12
ATOM     12  C4  <0> d           0.809  -0.504   1.202  0.00  0.00     0.244 C 
ATOM     13  N1  <0> d           2.183   0.005   1.120  0.00  0.00    -0.065 N 
ATOM     14  C3  <0> d           2.175   1.471   1.200  0.00  0.00     0.233 C 
ATOM     15  H8  <0> d           2.595  -0.281   0.245  0.00  0.00     0.278 HD
ATOM     16  H17 <0> d           2.725  -0.369   1.883  0.00  0.00     0.278 HD
ATOM     17  C2  <0> d           1.422   2.047  -0.001  0.00  0.00     0.027 C 
ATOM     18  C1  <0> d          -0.019   1.527   0.010  0.00  0.00     0.004 C 
ATOM     19  C5  <0> d           0.002  -0.004   0.002  0.00  0.00     0.040 C 
ENDBRANCH   1  12
TORSDOF 1
