REMARK  11 active torsions:
REMARK  status: ('A' for Active; 'I' for Inactive)
REMARK    1  A    between atoms: C2_2  and  O1_3 
REMARK    2  A    between atoms: O1_3  and  C3_4 
REMARK    3  A    between atoms: C5_6  and  C9_11 
REMARK    4  A    between atoms: C8_9  and  O2_10 
REMARK    5  A    between atoms: C10_12  and  C16_22 
REMARK    6  A    between atoms: N1_16  and  C13_17 
REMARK    7  A    between atoms: C13_17  and  C14_18 
REMARK    8  A    between atoms: C14_18  and  C15_19 
REMARK    9  A    between atoms: C15_19  and  O4_20 
REMARK   10  A    between atoms: C16_22  and  C17_24 
REMARK   11  A    between atoms: C20_27  and  O7_30 
ROOT
ATOM      1  C9  <0> d          -0.361  -4.935  -0.305  0.00  0.00     0.161 A 
ATOM      2  C10 <0> d          -1.792  -5.339  -0.033  0.00  0.00     0.062 A 
ATOM      3  C11 <0> d          -1.812  -6.691   0.023  0.00  0.00     0.187 A 
ATOM      4  C12 <0> d          -0.445  -7.207  -0.201  0.00  0.00     0.281 A 
ATOM      5  O3  <0> d          -0.136  -8.382  -0.211  0.00  0.00    -0.265 OA
ATOM      6  N1  <0> d           0.407  -6.182  -0.395  0.00  0.00    -0.333 N 
ATOM      7  O5  <0> d          -2.909  -7.449   0.250  0.00  0.00    -0.185 OA
ENDROOT
BRANCH   1   8
ATOM      8  C5  <0> d           0.161  -4.085   0.824  0.00  0.00    -0.028 A 
ATOM      9  C4  <0> d           0.436  -2.747   0.609  0.00  0.00     0.049 A 
ATOM     10  C3  <0> d           0.916  -1.964   1.646  0.00  0.00     0.102 A 
ATOM     11  C8  <0> d           1.125  -2.527   2.901  0.00  0.00     0.099 A 
ATOM     12  C7  <0> d           0.842  -3.868   3.111  0.00  0.00     0.040 A 
ATOM     13  C6  <0> d           0.363  -4.644   2.072  0.00  0.00     0.012 A 
BRANCH  10  14
ATOM     14  O1  <0> d           1.188  -0.647   1.437  0.00  0.00    -0.349 OA
BRANCH  14  15
ATOM     15  C2  <0> d           0.847  -0.110   0.158  0.00  0.00     0.171 C 
ATOM     16  C1  <0> d           1.111   1.397   0.150  0.00  0.00     0.034 C 
ENDBRANCH  14  15
ENDBRANCH  10  14
BRANCH  11  17
ATOM     17  O2  <0> d           1.602  -1.764   3.921  0.00  0.00    -0.358 OA
ATOM     18  H10 <0> d           0.912  -1.336   4.447  0.00  0.00     0.217 HD
ENDBRANCH  11  17
ENDBRANCH   1   8
BRANCH   6  19
ATOM     19  C13 <0> d           1.846  -6.292  -0.649  0.00  0.00     0.129 C 
BRANCH  19  20
ATOM     20  C14 <0> d           2.602  -6.275   0.681  0.00  0.00     0.046 C 
BRANCH  20  21
ATOM     21  C15 <0> d           4.104  -6.389   0.415  0.00  0.00     0.165 C 
BRANCH  21  22
ATOM     22  O4  <0> d           4.810  -6.373   1.657  0.00  0.00    -0.401 OA
ATOM     23  H17 <0> d           5.770  -6.443   1.565  0.00  0.00     0.209 HD
ENDBRANCH  21  22
ENDBRANCH  20  21
ENDBRANCH  19  20
ENDBRANCH   6  19
BRANCH   2  24
ATOM     24  C16 <0> d          -2.937  -4.439   0.137  0.00  0.00     0.193 C 
ATOM     25  O6  <0> d          -3.569  -4.449   1.176  0.00  0.00    -0.287 OA
BRANCH  24  26
ATOM     26  C17 <0> d          -3.323  -3.522  -0.954  0.00  0.00     0.015 A 
ATOM     27  C22 <0> d          -4.338  -2.581  -0.752  0.00  0.00     0.018 A 
ATOM     28  C21 <0> d          -4.690  -1.723  -1.769  0.00  0.00     0.037 A 
ATOM     29  C20 <0> d          -4.047  -1.799  -3.000  0.00  0.00     0.068 A 
ATOM     30  C19 <0> d          -3.041  -2.737  -3.206  0.00  0.00     0.037 A 
ATOM     31  C18 <0> d          -2.678  -3.594  -2.192  0.00  0.00     0.018 A 
BRANCH  29  32
ATOM     32  O7  <0> d          -4.402  -0.956  -4.002  0.00  0.00    -0.356 OA
ATOM     33  C23 <0> d          -5.442  -0.017  -3.722  0.00  0.00     0.210 C 
ENDBRANCH  29  32
ENDBRANCH  24  26
ENDBRANCH   2  24
TORSDOF 11
