REMARK  4 active torsions:
REMARK  status: ('A' for Active; 'I' for Inactive)
REMARK    1  A    between atoms: C2_2  and  N1_4 
REMARK    2  A    between atoms: C4_5  and  C6_10 
REMARK    3  A    between atoms: C6_10  and  N4_11 
REMARK       I    between atoms: N4_11  and  C7_12 
REMARK    4  A    between atoms: C7_12  and  C8_14 
ROOT
ATOM      1  N4  <0> d          -2.185  -2.636  -2.966  0.00  0.00    -0.350 N 
ATOM      2  C7  <0> d          -1.786  -3.195  -4.126  0.00  0.00     0.252 C 
ATOM      3  O1  <0> d          -0.653  -3.017  -4.528  0.00  0.00    -0.268 OA
ATOM      4  H11 <0> d          -3.090  -2.778  -2.645  0.00  0.00     0.163 HD
ENDROOT
BRANCH   1   5
ATOM      5  C6  <0> d          -1.253  -1.813  -2.191  0.00  0.00     0.203 C 
BRANCH   5   6
ATOM      6  C4  <0> d          -1.941  -1.311  -0.948  0.00  0.00     0.147 A 
ATOM      7  N1  <0> d          -1.372  -0.511   0.012  0.00  0.00    -0.304 N 
ATOM      8  C5  <0> d          -2.293  -0.277   0.969  0.00  0.00     0.196 A 
ATOM      9  N3  <0> d          -3.425  -0.915   0.605  0.00  0.00    -0.251 N 
ATOM     10  S1  <0> d          -2.068   0.661   2.384  0.00  0.00    -0.039 SA
ATOM     11  N2  <0> d          -3.165  -1.562  -0.611  0.00  0.00    -0.157 NA
ATOM     12  H8  <0> d          -4.261  -0.927   1.096  0.00  0.00     0.191 HD
BRANCH   7  13
ATOM     13  C2  <0> d           0.002  -0.004   0.002  0.00  0.00     0.086 C 
ATOM     14  C1  <0> d          -0.019   1.526   0.010  0.00  0.00     0.032 C 
ATOM     15  C3  <0> d           0.742  -0.511   1.242  0.00  0.00     0.032 C 
ENDBRANCH   7  13
ENDBRANCH   5   6
ENDBRANCH   1   5
BRANCH   2  16
ATOM     16  C8  <0> d          -2.726  -4.025  -4.908  0.00  0.00     0.034 A 
ATOM     17  C13 <0> d          -2.312  -4.600  -6.102  0.00  0.00     0.053 A 
ATOM     18  C12 <0> d          -3.204  -5.388  -6.834  0.00  0.00     0.110 A 
ATOM     19  C11 <0> d          -4.513  -5.576  -6.353  0.00  0.00     0.084 A 
ATOM     20  N5  <0> d          -3.096  -6.066  -8.001  0.00  0.00    -0.130 NA
ATOM     21  C10 <0> d          -4.911  -4.986  -5.155  0.00  0.00     0.034 A 
ATOM     22  N7  <0> d          -5.145  -6.376  -7.272  0.00  0.00    -0.254 N 
ATOM     23  C9  <0> d          -4.034  -4.223  -4.444  0.00  0.00     0.019 A 
ATOM     24  N6  <0> d          -4.208  -6.649  -8.279  0.00  0.00    -0.065 NA
ATOM     25  C14 <0> d          -6.529  -6.851  -7.213  0.00  0.00     0.182 C 
ENDBRANCH   2  16
TORSDOF 4
