REMARK  7 active torsions:
REMARK  status: ('A' for Active; 'I' for Inactive)
REMARK    1  A    between atoms: C4_4  and  N1_7 
REMARK    2  A    between atoms: C7_8  and  C8_12 
REMARK    3  A    between atoms: C8_12  and  S1_13 
REMARK    4  A    between atoms: S1_13  and  C9_16 
REMARK    5  A    between atoms: C9_16  and  C10_17 
REMARK    6  A    between atoms: C10_17  and  C11_18 
REMARK    7  A    between atoms: C10_17  and  O3_26 
ROOT
ATOM      1  S1  <0> d           2.276  -4.012   0.057  0.00  0.00     0.154 S 
ATOM      2  O1  <0> d           1.610  -3.339  -1.003  0.00  0.00    -0.227 OA
ATOM      3  O2  <0> d           3.321  -4.924  -0.253  0.00  0.00    -0.227 OA
ENDROOT
BRANCH   1   4
ATOM      4  C8  <0> d           2.922  -2.768   1.209  0.00  0.00     0.222 C 
BRANCH   4   5
ATOM      5  C7  <0> d           3.903  -1.878   0.490  0.00  0.00     0.167 A 
ATOM      6  N1  <0> d           5.246  -2.019   0.469  0.00  0.00    -0.197 N 
ATOM      7  N4  <0> d           5.716  -0.955  -0.320  0.00  0.00    -0.039 NA
ATOM      8  N3  <0> d           4.679  -0.293  -0.705  0.00  0.00    -0.023 NA
ATOM      9  N2  <0> d           3.611  -0.827  -0.230  0.00  0.00    -0.112 NA
BRANCH   6  10
ATOM     10  C4  <0> d           6.008  -3.010   1.104  0.00  0.00     0.062 A 
ATOM     11  C3  <0> d           7.046  -3.632   0.423  0.00  0.00     0.032 A 
ATOM     12  C2  <0> d           7.795  -4.608   1.052  0.00  0.00     0.002 A 
ATOM     13  C1  <0> d           7.513  -4.965   2.357  0.00  0.00     0.000 A 
ATOM     14  C6  <0> d           6.480  -4.347   3.038  0.00  0.00     0.002 A 
ATOM     15  C5  <0> d           5.727  -3.371   2.415  0.00  0.00     0.032 A 
ENDBRANCH   6  10
ENDBRANCH   4   5
ENDBRANCH   1   4
BRANCH   1  16
ATOM     16  C9  <0> d           1.035  -4.878   1.056  0.00  0.00     0.177 C 
BRANCH  16  17
ATOM     17  C10 <0> d           0.383  -5.980   0.218  0.00  0.00     0.168 C 
BRANCH  17  18
ATOM     18  C11 <0> d          -0.648  -6.699   1.048  0.00  0.00     0.010 A 
ATOM     19  C16 <0> d          -0.265  -7.741   1.877  0.00  0.00     0.128 A 
ATOM     20  C15 <0> d          -1.211  -8.398   2.644  0.00  0.00     0.085 A 
ATOM     21  F1  <0> d           1.033  -8.111   1.941  0.00  0.00    -0.205 F 
ATOM     22  C14 <0> d          -2.541  -8.021   2.573  0.00  0.00     0.119 A 
ATOM     23  C13 <0> d          -2.923  -6.984   1.739  0.00  0.00     0.043 A 
ATOM     24  F2  <0> d          -3.467  -8.665   3.317  0.00  0.00    -0.206 F 
ATOM     25  C12 <0> d          -1.976  -6.324   0.979  0.00  0.00     0.016 A 
ENDBRANCH  17  18
BRANCH  17  26
ATOM     26  O3  <0> d          -0.247  -5.398  -0.925  0.00  0.00    -0.390 OA
ATOM     27  H14 <0> d          -0.938  -4.757  -0.709  0.00  0.00     0.210 HD
ENDBRANCH  17  26
ENDBRANCH  16  17
ENDBRANCH   1  16
TORSDOF 7
