REMARK  6 active torsions:
REMARK  status: ('A' for Active; 'I' for Inactive)
REMARK    1  A    between atoms: C2_2  and  N3_28 
REMARK    2  A    between atoms: N1_5  and  C7_8 
REMARK    3  A    between atoms: C12_13  and  N2_14 
REMARK    4  A    between atoms: N2_14  and  S1_15 
REMARK    5  A    between atoms: S1_15  and  C13_18 
REMARK    6  A    between atoms: C16_21  and  C19_24 
ROOT
ATOM      1  C7  <0> d          -1.190  -0.248  -0.206  0.00  0.00     0.038 A 
ATOM      2  C8  <0> d          -2.072   0.231   0.751  0.00  0.00     0.026 A 
ATOM      3  C9  <0> d          -3.394  -0.171   0.736  0.00  0.00     0.002 A 
ATOM      4  C10 <0> d          -3.841  -1.058  -0.226  0.00  0.00     0.002 A 
ATOM      5  C11 <0> d          -2.968  -1.545  -1.181  0.00  0.00     0.032 A 
ATOM      6  C12 <0> d          -1.641  -1.144  -1.176  0.00  0.00     0.064 A 
ENDROOT
BRANCH   6   7
ATOM      7  N2  <0> d          -0.754  -1.636  -2.142  0.00  0.00    -0.279 N 
ATOM      8  H18 <0> d           0.170  -1.812  -1.908  0.00  0.00     0.179 HD
BRANCH   7   9
ATOM      9  S1  <0> d          -1.285  -1.918  -3.686  0.00  0.00     0.263 S 
ATOM     10  O1  <0> d          -0.142  -2.279  -4.449  0.00  0.00    -0.200 OA
ATOM     11  O2  <0> d          -2.425  -2.760  -3.576  0.00  0.00    -0.200 OA
BRANCH   9  12
ATOM     12  C13 <0> d          -1.856  -0.380  -4.329  0.00  0.00     0.079 A 
ATOM     13  C18 <0> d          -0.978   0.453  -5.002  0.00  0.00     0.026 A 
ATOM     14  C17 <0> d          -1.417   1.658  -5.508  0.00  0.00     0.017 A 
ATOM     15  C16 <0> d          -2.753   2.037  -5.341  0.00  0.00     0.009 A 
ATOM     16  C15 <0> d          -3.633   1.190  -4.661  0.00  0.00     0.017 A 
ATOM     17  C14 <0> d          -3.180  -0.014  -4.165  0.00  0.00     0.026 A 
BRANCH  15  18
ATOM     18  C19 <0> d          -3.229   3.322  -5.879  0.00  0.00     0.155 C 
ATOM     19  O3  <0> d          -2.463   4.054  -6.468  0.00  0.00    -0.293 OA
ATOM     20  C20 <0> d          -4.669   3.727  -5.697  0.00  0.00     0.096 C 
ENDBRANCH  15  18
ENDBRANCH   9  12
ENDBRANCH   7   9
ENDBRANCH   6   7
BRANCH   1  21
ATOM     21  N1  <0> d           0.149   0.161  -0.195  0.00  0.00    -0.278 NA
ATOM     22  C4  <0> d           0.256   1.617  -0.356  0.00  0.00     0.123 C 
ATOM     23  C3  <0> d           1.732   2.014  -0.419  0.00  0.00     0.249 C 
ATOM     24  N3  <0> d           2.395   1.584   0.830  0.00  0.00    -0.069 N 
ATOM     25  C6  <0> d           2.301   0.115   0.969  0.00  0.00     0.249 C 
ATOM     26  H26 <0> d           1.923   2.026   1.627  0.00  0.00     0.280 HD
ATOM     27  C5  <0> d           0.825  -0.282   1.032  0.00  0.00     0.123 C 
BRANCH  24  28
ATOM     28  C2  <0> d           3.813   2.001   0.819  0.00  0.00     0.230 C 
ATOM     29  C1  <0> d           3.880   3.527   0.901  0.00  0.00     0.034 C 
ENDBRANCH  24  28
ENDBRANCH   1  21
TORSDOF 6
