REMARK  5 active torsions:
REMARK  status: ('A' for Active; 'I' for Inactive)
REMARK    1  A    between atoms: C2_2  and  C3_3 
REMARK    2  A    between atoms: C2_2  and  N3_9 
REMARK    3  A    between atoms: C3_3  and  N1_4 
REMARK    4  A    between atoms: N3_9  and  C7_10 
REMARK    5  A    between atoms: C7_10  and  C12_16 
ROOT
ATOM      1  N3  <0> d          -0.864  -0.656  -0.459  0.00  0.00    -0.050 N 
ATOM      2  H10 <0> d          -0.945  -1.617  -0.164  0.00  0.00     0.279 HD
ATOM      3  H19 <0> d          -0.684  -0.071   0.344  0.00  0.00     0.279 HD
ENDROOT
BRANCH   1   4
ATOM      4  C2  <0> d           0.244  -0.529  -1.416  0.00  0.00     0.203 C 
ATOM      5  C1  <0> d           0.491   0.951  -1.716  0.00  0.00     0.042 C 
BRANCH   4   6
ATOM      6  C3  <0> d           1.509  -1.146  -0.816  0.00  0.00     0.183 C 
BRANCH   6   7
ATOM      7  N1  <0> d           1.312  -2.587  -0.638  0.00  0.00    -0.279 N 
ATOM      8  N2  <0> d           0.270  -3.195   0.073  0.00  0.00    -0.185 NA
ATOM      9  C6  <0> d           0.431  -4.492   0.004  0.00  0.00     0.140 A 
ATOM     10  C5  <0> d           1.584  -4.750  -0.743  0.00  0.00     0.040 A 
ATOM     11  C4  <0> d           2.107  -3.562  -1.126  0.00  0.00     0.113 A 
ENDBRANCH   6   7
ENDBRANCH   4   6
ENDBRANCH   1   4
BRANCH   1  12
ATOM     12  C7  <0> d          -2.116  -0.233  -1.101  0.00  0.00     0.221 C 
ATOM     13  C11 <0> d          -3.290  -0.509  -0.157  0.00  0.00     0.124 C 
ATOM     14  S1  <0> d          -3.305  -2.281   0.251  0.00  0.00    -0.166 SA
ATOM     15  C10 <0> d          -3.264  -3.079  -1.382  0.00  0.00     0.074 C 
ATOM     16  C9  <0> d          -2.093  -2.500  -2.182  0.00  0.00     0.013 C 
ATOM     17  C8  <0> d          -2.303  -1.005  -2.403  0.00  0.00     0.052 C 
BRANCH  12  18
ATOM     18  C12 <0> d          -2.051   1.242  -1.401  0.00  0.00     0.211 C 
ATOM     19  O1  <0> d          -1.519   2.003  -0.610  0.00  0.00    -0.646 OA
ATOM     20  O2  <0> d          -2.531   1.676  -2.434  0.00  0.00    -0.646 OA
ENDBRANCH  12  18
ENDBRANCH   1  12
TORSDOF 5
