REMARK  3 active torsions:
REMARK  status: ('A' for Active; 'I' for Inactive)
REMARK    1  A    between atoms: C2_2  and  C5_5 
REMARK    2  A    between atoms: N1_11  and  S1_19 
REMARK    3  A    between atoms: C12_13  and  C13_15 
REMARK       I    between atoms: C13_15  and  N2_17 
ROOT
ATOM      1  C5  <0> d           0.707  -0.490  -1.238  0.00  0.00    -0.048 A 
ATOM      2  C6  <0> d           0.035  -1.284  -2.148  0.00  0.00     0.011 A 
ATOM      3  C7  <0> d           0.676  -1.735  -3.287  0.00  0.00     0.040 A 
ATOM      4  C8  <0> d           1.999  -1.390  -3.522  0.00  0.00     0.097 A 
ATOM      5  C9  <0> d           2.673  -0.588  -2.605  0.00  0.00     0.078 A 
ATOM      6  C10 <0> d           2.025  -0.137  -1.467  0.00  0.00     0.041 A 
ATOM      7  N1  <0> d           4.009  -0.231  -2.843  0.00  0.00    -0.270 N 
ATOM      8  C11 <0> d           4.740  -0.968  -3.888  0.00  0.00     0.183 C 
ATOM      9  C12 <0> d           3.790  -1.143  -5.082  0.00  0.00     0.239 C 
ATOM     10  O1  <0> d           2.622  -1.841  -4.643  0.00  0.00    -0.332 OA
ENDROOT
BRANCH   9  11
ATOM     11  C13 <0> d           4.479  -1.935  -6.163  0.00  0.00     0.248 C 
ATOM     12  O2  <0> d           4.063  -3.032  -6.470  0.00  0.00    -0.271 OA
ATOM     13  N2  <0> d           5.558  -1.425  -6.789  0.00  0.00    -0.363 N 
ATOM     14  C14 <0> d           6.227  -2.194  -7.840  0.00  0.00     0.149 C 
ATOM     15  H16 <0> d           5.891  -0.547  -6.544  0.00  0.00     0.162 HD
ENDBRANCH   9  11
BRANCH   7  16
ATOM     16  S1  <0> d           4.739   0.978  -1.978  0.00  0.00     0.229 S 
ATOM     17  O3  <0> d           5.763   1.468  -2.833  0.00  0.00    -0.206 OA
ATOM     18  O4  <0> d           3.674   1.823  -1.566  0.00  0.00    -0.206 OA
ATOM     19  C15 <0> d           5.470   0.147  -0.541  0.00  0.00     0.186 C 
ENDBRANCH   7  16
BRANCH   1  20
ATOM     20  C2  <0> d           0.002  -0.004   0.002  0.00  0.00    -0.024 C 
ATOM     21  C1  <0> d          -0.019   1.526   0.010  0.00  0.00     0.019 C 
ATOM     22  C3  <0> d           0.742  -0.511   1.242  0.00  0.00     0.019 C 
ATOM     23  C4  <0> d          -1.433  -0.534   0.013  0.00  0.00     0.019 C 
ENDBRANCH   1  20
TORSDOF 3
