REMARK  7 active torsions:
REMARK  status: ('A' for Active; 'I' for Inactive)
REMARK    1  A    between atoms: C2_2  and  C3_3 
REMARK    2  A    between atoms: C2_2  and  N1_10 
REMARK    3  A    between atoms: C3_3  and  O1_4 
REMARK    4  A    between atoms: O1_4  and  C4_5 
REMARK    5  A    between atoms: C4_5  and  C5_6 
REMARK       I    between atoms: N1_10  and  C6_11 
REMARK    6  A    between atoms: C6_11  and  C7_13 
REMARK       I    between atoms: C7_13  and  N2_15 
REMARK    7  A    between atoms: N2_15  and  C8_16 
ROOT
ATOM      1  N1  <0> d           0.711  -0.485   1.190  0.00  0.00    -0.347 N 
ATOM      2  C6  <0> d           0.052  -0.627   2.357  0.00  0.00     0.310 C 
ATOM      3  O2  <0> d          -1.126  -0.347   2.427  0.00  0.00    -0.262 OA
ATOM      4  H9  <0> d           1.653  -0.709   1.134  0.00  0.00     0.163 HD
ENDROOT
BRANCH   2   5
ATOM      5  C7  <0> d           0.773  -1.130   3.565  0.00  0.00     0.313 C 
ATOM      6  O3  <0> d           1.952  -1.411   3.495  0.00  0.00    -0.262 OA
ATOM      7  N2  <0> d           0.114  -1.272   4.732  0.00  0.00    -0.319 N 
ATOM      8  H10 <0> d          -0.810  -0.986   4.806  0.00  0.00     0.169 HD
BRANCH   7   9
ATOM      9  C8  <0> d           0.762  -1.833   5.836  0.00  0.00     0.035 A 
ATOM     10  C13 <0> d           2.114  -1.592   6.047  0.00  0.00     0.031 A 
ATOM     11  C12 <0> d           2.749  -2.142   7.142  0.00  0.00     0.021 A 
ATOM     12  C11 <0> d           2.044  -2.943   8.023  0.00  0.00     0.011 A 
ATOM     13  C10 <0> d           0.699  -3.190   7.812  0.00  0.00     0.021 A 
ATOM     14 Br1  <0> d           2.920  -3.701   9.517  0.00  0.00    -0.051 Br
ATOM     15  C9  <0> d           0.056  -2.638   6.722  0.00  0.00     0.031 A 
ENDBRANCH   7   9
ENDBRANCH   2   5
BRANCH   1  16
ATOM     16  C2  <0> d           0.005   0.008   0.005  0.00  0.00     0.104 C 
ATOM     17  C1  <0> d          -0.005   1.538   0.018  0.00  0.00     0.034 C 
BRANCH  16  18
ATOM     18  C3  <0> d           0.715  -0.487  -1.256  0.00  0.00     0.192 C 
BRANCH  18  19
ATOM     19  O1  <0> d           2.020   0.092  -1.325  0.00  0.00    -0.380 OA
BRANCH  19  20
ATOM     20  C4  <0> d           2.773  -0.308  -2.473  0.00  0.00     0.285 C 
BRANCH  20  21
ATOM     21  C5  <0> d           4.145   0.368  -2.444  0.00  0.00     0.408 C 
ATOM     22  F1  <0> d           4.827  -0.011  -1.283  0.00  0.00    -0.169 F 
ATOM     23  F2  <0> d           4.881  -0.023  -3.567  0.00  0.00    -0.169 F 
ATOM     24  F3  <0> d           3.980   1.758  -2.455  0.00  0.00    -0.169 F 
ENDBRANCH  20  21
ENDBRANCH  19  20
ENDBRANCH  18  19
ENDBRANCH  16  18
ENDBRANCH   1  16
TORSDOF 7
