REMARK  7 active torsions:
REMARK  status: ('A' for Active; 'I' for Inactive)
REMARK    1  A    between atoms: C5_6  and  O3_22 
REMARK    2  A    between atoms: C6_7  and  C10_12 
REMARK    3  A    between atoms: N1_8  and  C7_9 
REMARK    4  A    between atoms: C10_12  and  N2_13 
REMARK    5  A    between atoms: N3_16  and  C15_19 
REMARK    6  A    between atoms: C15_19  and  C16_20 
REMARK    7  A    between atoms: C16_20  and  O2_21 
ROOT
ATOM      1  C1  <0> d          -0.126   1.499   0.022  0.00  0.00     0.068 C 
ATOM      2  C2  <0> d          -0.049  -0.006   0.008  0.00  0.00     0.012 A 
ATOM      3  C3  <0> d          -0.150  -0.668  -1.167  0.00  0.00     0.082 A 
ATOM      4  C4  <0> d          -0.077  -2.079  -1.173  0.00  0.00     0.208 A 
ATOM      5  O1  <0> d          -0.165  -2.704  -2.221  0.00  0.00    -0.285 OA
ATOM      6  C5  <0> d           0.100  -2.757   0.060  0.00  0.00     0.141 A 
ATOM      7  C6  <0> d           0.194  -2.035   1.202  0.00  0.00     0.078 A 
ATOM      8  N1  <0> d           0.125  -0.678   1.171  0.00  0.00    -0.345 N 
ENDROOT
BRANCH   7   9
ATOM      9  C10 <0> d           0.381  -2.742   2.519  0.00  0.00     0.332 C 
BRANCH   9  10
ATOM     10  N2  <0> d           1.693  -2.392   3.081  0.00  0.00     0.097 N 
ATOM     11  C14 <0> d           1.817  -2.868   4.465  0.00  0.00     0.303 C 
ATOM     12  C13 <0> d           3.162  -2.415   5.039  0.00  0.00     0.302 C 
ATOM     13  N3  <0> d           4.250  -2.943   4.204  0.00  0.00     0.093 N 
ATOM     14  C12 <0> d           4.126  -2.467   2.819  0.00  0.00     0.302 C 
ATOM     15  C11 <0> d           2.781  -2.920   2.246  0.00  0.00     0.303 C 
BRANCH  13  16
ATOM     16  C15 <0> d           5.562  -2.593   4.766  0.00  0.00     0.298 C 
BRANCH  16  17
ATOM     17  C16 <0> d           5.752  -3.311   6.103  0.00  0.00     0.194 C 
BRANCH  17  18
ATOM     18  O2  <0> d           5.800  -4.722   5.883  0.00  0.00    -0.399 OA
ATOM     19  H24 <0> d           5.920  -5.242   6.689  0.00  0.00     0.209 HD
ENDBRANCH  17  18
ENDBRANCH  16  17
ENDBRANCH  13  16
ENDBRANCH   9  10
ENDBRANCH   7   9
BRANCH   6  20
ATOM     20  O3  <0> d           0.174  -4.115   0.096  0.00  0.00    -0.355 OA
ATOM     21  H25 <0> d           0.096  -4.536  -0.771  0.00  0.00     0.218 HD
ENDBRANCH   6  20
BRANCH   8  22
ATOM     22  C7  <0> d           0.236   0.074   2.423  0.00  0.00     0.090 A 
ATOM     23  C9  <0> d           1.587   0.056   3.140  0.00  0.00     0.028 A 
ATOM     24  C8  <0> d           1.119   1.323   2.421  0.00  0.00     0.028 A 
ENDBRANCH   8  22
TORSDOF 7
