REMARK  4 active torsions:
REMARK  status: ('A' for Active; 'I' for Inactive)
REMARK    1  A    between atoms: C6_6  and  C7_7 
REMARK    2  A    between atoms: C8_10  and  C9_12 
REMARK    3  A    between atoms: C9_12  and  S1_13 
REMARK    4  A    between atoms: S1_13  and  C10_14 
ROOT
ATOM      1  C7  <0> d          -1.268  -0.764   0.010  0.00  0.00     0.163 A 
ATOM      2  N1  <0> d          -2.442  -0.224   0.019  0.00  0.00    -0.113 NA
ATOM      3  O1  <0> d          -3.454  -1.214   0.024  0.00  0.00    -0.228 OA
ATOM      4  C8  <0> d          -2.784  -2.483   0.018  0.00  0.00     0.264 A 
ATOM      5  N2  <0> d          -1.352  -2.145   0.004  0.00  0.00    -0.343 N 
ATOM      6  H7  <0> d          -0.610  -2.769  -0.007  0.00  0.00     0.164 HD
ENDROOT
BRANCH   4   7
ATOM      7  C9  <0> d          -3.139  -3.280   1.275  0.00  0.00     0.138 C 
BRANCH   7   8
ATOM      8  S1  <0> d          -2.666  -2.331   2.747  0.00  0.00    -0.086 SA
BRANCH   8   9
ATOM      9  C10 <0> d          -3.133  -3.369   4.092  0.00  0.00     0.192 C 
ATOM     10  N4  <0> d          -2.915  -2.951   5.349  0.00  0.00    -0.226 NA
ATOM     11  C13 <0> d          -3.647  -3.523   6.305  0.00  0.00     0.061 C 
ATOM     12  C12 <0> d          -4.880  -4.342   5.928  0.00  0.00     0.197 C 
ATOM     13  C14 <0> d          -3.334  -3.661   7.635  0.00  0.00     0.036 C 
ATOM     14  C11 <0> d          -4.519  -5.139   4.708  0.00  0.00     0.265 C 
ATOM     15  S2  <0> d          -5.096  -5.373   7.418  0.00  0.00    -0.121 SA
ATOM     16  N3  <0> d          -3.690  -4.552   3.838  0.00  0.00    -0.186 NA
ATOM     17  O2  <0> d          -4.958  -6.258   4.521  0.00  0.00    -0.269 OA
ATOM     18  C15 <0> d          -3.956  -4.579   8.414  0.00  0.00     0.048 C 
ENDBRANCH   8   9
ENDBRANCH   7   8
ENDBRANCH   4   7
BRANCH   1  19
ATOM     19  C6  <0> d           0.002  -0.004   0.002  0.00  0.00     0.012 A 
ATOM     20  C1  <0> d          -0.017   1.391   0.010  0.00  0.00     0.017 A 
ATOM     21  C2  <0> d           1.170   2.094   0.002  0.00  0.00     0.020 A 
ATOM     22  C3  <0> d           2.378   1.418  -0.013  0.00  0.00     0.011 A 
ATOM     23  C4  <0> d           2.403   0.034  -0.022  0.00  0.00     0.020 A 
ATOM     24 Br1  <0> d           4.001   2.389  -0.024  0.00  0.00    -0.051 Br
ATOM     25  C5  <0> d           1.222  -0.680  -0.014  0.00  0.00     0.017 A 
ENDBRANCH   1  19
TORSDOF 4
