REMARK  5 active torsions:
REMARK  status: ('A' for Active; 'I' for Inactive)
REMARK    1  A    between atoms: C3_4  and  C5_7 
REMARK    2  A    between atoms: C5_7  and  C6_8 
REMARK    3  A    between atoms: C6_8  and  N2_9 
REMARK       I    between atoms: N2_9  and  C7_10 
REMARK    4  A    between atoms: C7_10  and  C8_12 
REMARK    5  A    between atoms: C9_13  and  C11_17 
ROOT
ATOM      1  C8  <0> d          -7.636  -1.906  -0.522  0.00  0.00     0.062 A 
ATOM      2  C9  <0> d          -8.745  -1.547  -1.237  0.00  0.00     0.102 A 
ATOM      3  N3  <0> d          -9.782  -2.373  -0.931  0.00  0.00    -0.154 NA
ATOM      4  N4  <0> d          -9.516  -3.244  -0.101  0.00  0.00    -0.188 NA
ATOM      5  C10 <0> d          -8.105  -3.097   0.294  0.00  0.00     0.220 A 
ENDROOT
BRANCH   1   6
ATOM      6  C7  <0> d          -6.309  -1.292  -0.543  0.00  0.00     0.251 C 
ATOM      7  N2  <0> d          -5.296  -1.852   0.147  0.00  0.00    -0.357 N 
ATOM      8  H11 <0> d          -5.447  -2.662   0.658  0.00  0.00     0.162 HD
ATOM      9  O1  <0> d          -6.119  -0.274  -1.184  0.00  0.00    -0.268 OA
BRANCH   7  10
ATOM     10  C6  <0> d          -3.966  -1.236   0.126  0.00  0.00     0.128 C 
BRANCH  10  11
ATOM     11  C5  <0> d          -3.007  -2.064   0.984  0.00  0.00     0.075 C 
BRANCH  11  12
ATOM     12  C3  <0> d          -1.640  -1.431   0.962  0.00  0.00     0.019 C 
ATOM     13  N1  <0> d          -1.431  -0.381   0.305  0.00  0.00    -0.282 NA
ATOM     14  C2  <0> d          -0.089   0.237   0.285  0.00  0.00     0.165 C 
ATOM     15  C1  <0> d          -0.169   1.741   0.552  0.00  0.00     0.046 C 
ATOM     16  S1  <0> d           0.718  -0.649   1.690  0.00  0.00    -0.136 SA
ATOM     17  C4  <0> d          -0.485  -2.051   1.736  0.00  0.00     0.130 C 
ENDBRANCH  11  12
ENDBRANCH  10  11
ENDBRANCH   7  10
ENDBRANCH   1   6
BRANCH   2  18
ATOM     18  C11 <0> d          -8.808  -0.428  -2.199  0.00  0.00    -0.002 A 
ATOM     19  C16 <0> d          -9.847   0.502  -2.125  0.00  0.00     0.053 A 
ATOM     20  C15 <0> d          -9.900   1.552  -3.024  0.00  0.00     0.103 A 
ATOM     21  C14 <0> d          -8.922   1.675  -4.007  0.00  0.00     0.102 A 
ATOM     22  O2  <0> d         -10.921   2.449  -2.940  0.00  0.00    -0.346 OA
ATOM     23  C13 <0> d          -7.891   0.746  -4.085  0.00  0.00     0.040 A 
ATOM     24  O3  <0> d          -8.959   2.701  -4.899  0.00  0.00    -0.346 OA
ATOM     25  C12 <0> d          -7.830  -0.300  -3.190  0.00  0.00     0.017 A 
ATOM     26  C18 <0> d         -10.205   3.394  -5.031  0.00  0.00     0.202 C 
ATOM     27  C17 <0> d         -10.741   3.693  -3.625  0.00  0.00     0.202 C 
ENDBRANCH   2  18
TORSDOF 5
