REMARK  5 active torsions:
REMARK  status: ('A' for Active; 'I' for Inactive)
REMARK    1  A    between atoms: N1_10  and  C10_14 
REMARK    2  A    between atoms: C10_14  and  C11_15 
REMARK       I    between atoms: C11_15  and  N3_17 
REMARK    3  A    between atoms: N3_17  and  C12_18 
REMARK    4  A    between atoms: C13_20  and  C15_23 
REMARK    5  A    between atoms: C15_23  and  N5_24 
ROOT
ATOM      1  C11 <0> d           3.277   2.951   2.373  0.00  0.00     0.242 C 
ATOM      2  O3  <0> d           2.353   3.293   1.666  0.00  0.00    -0.271 OA
ATOM      3  N3  <0> d           4.255   3.827   2.674  0.00  0.00    -0.304 N 
ATOM      4  H18 <0> d           4.995   3.554   3.240  0.00  0.00     0.171 HD
ENDROOT
BRANCH   1   5
ATOM      5  C10 <0> d           3.332   1.546   2.915  0.00  0.00     0.240 C 
BRANCH   5   6
ATOM      6  N1  <0> d           2.163   0.796   2.447  0.00  0.00    -0.259 N 
ATOM      7  C8  <0> d           2.128   0.083   1.303  0.00  0.00     0.257 A 
ATOM      8  C7  <0> d           0.739  -0.509   1.238  0.00  0.00     0.119 A 
ATOM      9  O1  <0> d           3.022  -0.055   0.496  0.00  0.00    -0.270 OA
ATOM     10  C2  <0> d           0.002  -0.004   0.002  0.00  0.00     0.019 C 
ATOM     11  C6  <0> d           0.807  -2.032   1.242  0.00  0.00     0.041 C 
ATOM     12  N2  <0> d           0.086  -0.021   2.460  0.00  0.00    -0.324 N 
ATOM     13  C1  <0> d          -0.019   1.526   0.010  0.00  0.00     0.013 C 
ATOM     14  C3  <0> d           0.718  -0.497  -1.258  0.00  0.00     0.007 C 
ATOM     15  C4  <0> d           0.756  -2.027  -1.256  0.00  0.00     0.001 C 
ATOM     16  C5  <0> d           1.519  -2.517  -0.023  0.00  0.00     0.003 C 
ATOM     17  C9  <0> d           0.998   0.734   3.103  0.00  0.00     0.326 A 
ATOM     18  H15 <0> d          -0.822  -0.205   2.747  0.00  0.00     0.165 HD
ATOM     19  O2  <0> d           0.786   1.296   4.159  0.00  0.00    -0.247 OA
ENDBRANCH   5   6
ENDBRANCH   1   5
BRANCH   3  20
ATOM     20  C12 <0> d           4.205   5.124   2.175  0.00  0.00     0.173 A 
ATOM     21  S1  <0> d           3.035   5.818   1.184  0.00  0.00    -0.062 SA
ATOM     22  C14 <0> d           3.756   7.446   1.055  0.00  0.00     0.082 A 
ATOM     23  C13 <0> d           4.872   7.289   1.808  0.00  0.00     0.069 A 
ATOM     24  N4  <0> d           5.064   6.104   2.356  0.00  0.00    -0.227 NA
BRANCH  23  25
ATOM     25  C15 <0> d           5.850   8.418   2.011  0.00  0.00     0.294 C 
BRANCH  25  26
ATOM     26  N5  <0> d           5.537   9.116   3.265  0.00  0.00    -0.065 N 
ATOM     27  C20 <0> d           6.560  10.137   3.523  0.00  0.00     0.239 C 
ATOM     28  C19 <0> d           6.285  10.813   4.868  0.00  0.00     0.008 C 
ATOM     29  C18 <0> d           4.903  11.471   4.829  0.00  0.00     0.011 C 
ATOM     30  C21 <0> d           7.351  11.878   5.133  0.00  0.00     0.011 C 
ATOM     31  C17 <0> d           3.853  10.411   4.486  0.00  0.00     0.008 C 
ATOM     32  C16 <0> d           4.218   9.750   3.155  0.00  0.00     0.239 C 
ATOM     33  C22 <0> d           2.478  11.071   4.368  0.00  0.00     0.011 C 
ATOM     34  H34 <0> d           5.527   8.453   4.025  0.00  0.00     0.280 HD
ENDBRANCH  25  26
ENDBRANCH  23  25
ENDBRANCH   3  20
TORSDOF 5
