REMARK  5 active torsions:
REMARK  status: ('A' for Active; 'I' for Inactive)
REMARK    1  A    between atoms: N1_4  and  S1_9 
REMARK    2  A    between atoms: S1_9  and  C7_12 
REMARK    3  A    between atoms: C9_14  and  C12_18 
REMARK    4  A    between atoms: C13_19  and  C14_20 
REMARK    5  A    between atoms: C14_20  and  N3_21 
ROOT
ATOM      1  C7  <0> d          -1.152  -3.408  -2.154  0.00  0.00     0.098 A 
ATOM      2  C8  <0> d          -1.128  -2.620  -3.291  0.00  0.00     0.048 A 
ATOM      3  C9  <0> d          -0.260  -2.979  -4.328  0.00  0.00     0.036 A 
ATOM      4  C10 <0> d           0.543  -4.110  -4.175  0.00  0.00     0.136 A 
ATOM      5  N2  <0> d           0.484  -4.828  -3.072  0.00  0.00    -0.270 NA
ATOM      6  C11 <0> d          -0.321  -4.511  -2.076  0.00  0.00     0.141 A 
ENDROOT
BRANCH   1   7
ATOM      7  S1  <0> d          -2.225  -3.006  -0.815  0.00  0.00     0.262 S 
ATOM      8  O2  <0> d          -2.443  -4.211  -0.094  0.00  0.00    -0.200 OA
ATOM      9  O3  <0> d          -3.290  -2.243  -1.363  0.00  0.00    -0.200 OA
BRANCH   7  10
ATOM     10  N1  <0> d          -1.389  -1.995   0.196  0.00  0.00    -0.298 N 
ATOM     11  C3  <0> d          -1.436  -0.536   0.015  0.00  0.00     0.167 C 
ATOM     12  C2  <0> d           0.002  -0.004   0.002  0.00  0.00     0.136 C 
ATOM     13  C1  <0> d          -0.019   1.526   0.010  0.00  0.00     0.041 C 
ATOM     14  O1  <0> d           0.691  -0.479   1.161  0.00  0.00    -0.383 OA
ATOM     15  C5  <0> d           0.818  -1.901   1.226  0.00  0.00     0.193 C 
ATOM     16  C4  <0> d          -0.578  -2.530   1.302  0.00  0.00     0.115 C 
ATOM     17  C6  <0> d          -1.232  -2.175   2.639  0.00  0.00     0.035 C 
ENDBRANCH   7  10
ENDBRANCH   1   7
BRANCH   3  18
ATOM     18  C12 <0> d          -0.196  -2.198  -5.527  0.00  0.00    -0.064 C 
ATOM     19  C13 <0> d          -0.144  -1.558  -6.510  0.00  0.00    -0.074 C 
BRANCH  19  20
ATOM     20  C14 <0> d          -0.078  -0.756  -7.742  0.00  0.00     0.323 C 
BRANCH  20  21
ATOM     21  N3  <0> d           0.905  -1.347  -8.660  0.00  0.00    -0.069 N 
ATOM     22  H18 <0> d           1.812  -1.360  -8.218  0.00  0.00     0.275 HD
ATOM     23  H19 <0> d           0.629  -2.291  -8.887  0.00  0.00     0.275 HD
ATOM     24  H20 <0> d           0.950  -0.797  -9.505  0.00  0.00     0.275 HD
ENDBRANCH  20  21
ENDBRANCH  19  20
ENDBRANCH   3  18
TORSDOF 5
