REMARK  7 active torsions:
REMARK  status: ('A' for Active; 'I' for Inactive)
REMARK    1  A    between atoms: C3_5  and  N3_7 
REMARK       I    between atoms: N3_7  and  C4_8 
REMARK    2  A    between atoms: C4_8  and  C5_10 
REMARK       I    between atoms: C5_10  and  N4_12 
REMARK    3  A    between atoms: N4_12  and  C6_13 
REMARK    4  A    between atoms: C6_13  and  C7_14 
REMARK    5  A    between atoms: C7_14  and  C8_15 
REMARK    6  A    between atoms: C7_14  and  N5_23 
REMARK    7  A    between atoms: C12_19  and  O3_21 
ROOT
ATOM      1  C6  <0> d           2.448   3.681   1.300  0.00  0.00     0.161 C 
ENDROOT
BRANCH   1   2
ATOM      2  N4  <0> d           3.659   4.285   1.861  0.00  0.00    -0.351 N 
ATOM      3  C5  <0> d           3.912   4.187   3.181  0.00  0.00     0.311 C 
ATOM      4  O2  <0> d           3.137   3.598   3.905  0.00  0.00    -0.262 OA
ATOM      5  H5  <0> d           4.362   4.819   1.204  0.00  0.00     0.162 HD
BRANCH   3   6
ATOM      6  C4  <0> d           5.146   4.803   3.752  0.00  0.00     0.337 C 
ATOM      7  N3  <0> d           5.399   4.705   5.072  0.00  0.00    -0.177 NA
ATOM      8  O1  <0> d           5.921   5.393   3.028  0.00  0.00    -0.260 OA
BRANCH   7   9
ATOM      9  C3  <0> d           6.547   5.278   5.604  0.00  0.00     0.218 A 
ATOM     10  N2  <0> d           7.516   5.958   5.006  0.00  0.00    -0.121 NA
ATOM     11  N1  <0> d           8.501   6.415   5.648  0.00  0.00    -0.145 NA
ATOM     12  C2  <0> d           8.630   6.247   6.950  0.00  0.00     0.097 A 
ATOM     13  C1  <0> d           9.718   6.711   7.883  0.00  0.00     0.081 C 
ATOM     14  S1  <0> d           7.138   5.318   7.293  0.00  0.00    -0.032 SA
ENDBRANCH   7   9
ENDBRANCH   3   6
ENDBRANCH   1   2
BRANCH   1  15
ATOM     15  C7  <0> d           2.461   3.831  -0.223  0.00  0.00     0.237 C 
BRANCH  15  16
ATOM     16  C8  <0> d           1.255   3.140  -0.806  0.00  0.00    -0.023 A 
ATOM     17  C13 <0> d           0.124   3.871  -1.116  0.00  0.00     0.046 A 
ATOM     18  C12 <0> d          -0.985   3.234  -1.653  0.00  0.00     0.068 A 
ATOM     19  C11 <0> d          -0.955   1.866  -1.881  0.00  0.00     0.037 A 
ATOM     20  C10 <0> d           0.177   1.139  -1.564  0.00  0.00     0.003 A 
ATOM     21  C9  <0> d           1.281   1.776  -1.029  0.00  0.00     0.009 A 
BRANCH  18  22
ATOM     22  O3  <0> d          -2.099   3.950  -1.960  0.00  0.00    -0.356 OA
ATOM     23  C14 <0> d          -3.203   3.229  -2.509  0.00  0.00     0.210 C 
ENDBRANCH  18  22
ENDBRANCH  15  16
BRANCH  15  24
ATOM     24  N5  <0> d           3.683   3.223  -0.764  0.00  0.00    -0.069 N 
ATOM     25  C15 <0> d           4.062   2.029   0.003  0.00  0.00     0.270 C 
ATOM     26  C16 <0> d           3.526   2.905  -2.190  0.00  0.00     0.270 C 
ATOM     27  H21 <0> d           4.497   3.958  -0.670  0.00  0.00     0.279 HD
ENDBRANCH  15  24
ENDBRANCH   1  15
TORSDOF 7
