REMARK  2 active torsions:
REMARK  status: ('A' for Active; 'I' for Inactive)
REMARK    1  A    between atoms: C2_2  and  C6_11 
REMARK    2  A    between atoms: N1_3  and  N2_4 
ROOT
ATOM      1  C6  <0> d          -0.000  -0.731  -1.273  0.00  0.00     0.066 C 
ATOM      2  C7  <0> d          -0.015  -0.058  -2.487  0.00  0.00     0.034 C 
ATOM      3  C8  <0> d          -0.048  -0.831  -3.678  0.00  0.00    -0.001 A 
ATOM      4  C9  <0> d           0.137  -0.220  -4.927  0.00  0.00     0.014 A 
ATOM      5  C10 <0> d           0.145  -0.982  -6.060  0.00  0.00     0.001 A 
ATOM      6  C11 <0> d          -0.037  -2.356  -5.988  0.00  0.00     0.003 A 
ATOM      7  C12 <0> d          -0.240  -2.975  -4.771  0.00  0.00     0.038 A 
ATOM      8  C13 <0> d          -0.259  -2.220  -3.607  0.00  0.00     0.089 A 
ATOM      9  O2  <0> d          -0.501  -2.810  -2.411  0.00  0.00    -0.274 OA
ATOM     10  C14 <0> d           0.020  -2.207  -1.315  0.00  0.00     0.300 C 
ATOM     11  O3  <0> d           0.483  -2.857  -0.397  0.00  0.00    -0.259 OA
ENDROOT
BRANCH   1  12
ATOM     12  C2  <0> d           0.002  -0.004   0.002  0.00  0.00     0.069 C 
ATOM     13  C1  <0> d          -0.018   1.503   0.010  0.00  0.00     0.073 C 
ATOM     14  N1  <0> d           0.022  -0.664   1.130  0.00  0.00    -0.152 NA
BRANCH  14  15
ATOM     15  N2  <0> d           0.024  -0.025   2.251  0.00  0.00    -0.124 NA
ATOM     16  C3  <0> d           0.043  -0.689   3.388  0.00  0.00     0.190 A 
ATOM     17  S1  <0> d           0.069  -2.459   3.631  0.00  0.00    -0.081 SA
ATOM     18  N3  <0> d           0.043  -0.183   4.670  0.00  0.00    -0.304 N 
ATOM     19  C5  <0> d           0.090  -2.455   5.471  0.00  0.00     0.185 A 
ATOM     20  C4  <0> d           0.065  -0.959   5.740  0.00  0.00     0.233 A 
ATOM     21  O1  <0> d           0.065  -0.506   6.865  0.00  0.00    -0.272 OA
ATOM     22  H4  <0> d           0.027   0.779   4.792  0.00  0.00     0.171 HD
ENDBRANCH  14  15
ENDBRANCH   1  12
TORSDOF 2
