REMARK  4 active torsions:
REMARK  status: ('A' for Active; 'I' for Inactive)
REMARK    1  A    between atoms: C2_2  and  C4_4 
REMARK    2  A    between atoms: C4_4  and  N1_5 
REMARK       I    between atoms: N1_5  and  C5_6 
REMARK    3  A    between atoms: N1_5  and  O3_22 
REMARK    4  A    between atoms: C5_6  and  C6_8 
ROOT
ATOM      1  C6  <0> d          -1.452  -4.306   0.585  0.00  0.00     0.292 C 
ATOM      2  C7  <0> d          -2.912  -4.635   0.190  0.00  0.00     0.126 C 
ATOM      3  C8  <0> d          -3.396  -5.631   1.245  0.00  0.00     0.179 C 
ATOM      4  C9  <0> d          -2.100  -6.222   1.760  0.00  0.00     0.358 C 
ATOM      5  N2  <0> d          -2.200  -6.742   3.126  0.00  0.00    -0.356 N 
ATOM      6  C10 <0> d          -0.972  -6.923   3.792  0.00  0.00     0.037 A 
ATOM      7  C11 <0> d          -0.925  -7.681   4.953  0.00  0.00     0.030 A 
ATOM      8  C12 <0> d           0.279  -7.870   5.602  0.00  0.00     0.002 A 
ATOM      9  C13 <0> d           1.435  -7.305   5.093  0.00  0.00     0.001 A 
ATOM     10  C14 <0> d           1.389  -6.546   3.939  0.00  0.00     0.011 A 
ATOM     11  C15 <0> d           0.187  -6.347   3.286  0.00  0.00    -0.006 A 
ATOM     12  C16 <0> d           0.154  -5.490   2.039  0.00  0.00     0.279 C 
ATOM     13  N3  <0> d          -1.210  -5.026   1.838  0.00  0.00    -0.026 N 
ATOM     14  O2  <0> d          -4.528  -5.882   1.584  0.00  0.00    -0.294 OA
ATOM     15  H23 <0> d          -3.051  -6.947   3.542  0.00  0.00     0.162 HD
ATOM     16  H24 <0> d          -1.485  -4.450   2.619  0.00  0.00     0.284 HD
ENDROOT
BRANCH   1  17
ATOM     17  C5  <0> d          -1.292  -2.822   0.797  0.00  0.00     0.275 C 
ATOM     18  N1  <0> d          -1.494  -1.969  -0.227  0.00  0.00    -0.225 N 
ATOM     19  O1  <0> d          -0.980  -2.396   1.889  0.00  0.00    -0.269 OA
BRANCH  18  20
ATOM     20  C4  <0> d          -1.448  -0.523   0.004  0.00  0.00     0.163 C 
BRANCH  20  21
ATOM     21  C2  <0> d          -2.744  -0.073   0.681  0.00  0.00    -0.002 C 
ATOM     22  C1  <0> d          -2.664   1.423   0.992  0.00  0.00     0.011 C 
ATOM     23  C3  <0> d          -3.926  -0.338  -0.253  0.00  0.00     0.011 C 
ENDBRANCH  20  21
ENDBRANCH  18  20
BRANCH  18  24
ATOM     24  O3  <0> d          -1.753  -2.471  -1.526  0.00  0.00    -0.280 OA
ATOM     25  C17 <0> d          -0.578  -2.677  -2.313  0.00  0.00     0.238 C 
ENDBRANCH  18  24
ENDBRANCH   1  17
TORSDOF 4
