REMARK  4 active torsions:
REMARK  status: ('A' for Active; 'I' for Inactive)
REMARK    1  A    between atoms: C7_7  and  C8_8 
REMARK    2  A    between atoms: C8_8  and  N2_11 
REMARK    3  A    between atoms: N3_14  and  S1_17 
REMARK    4  A    between atoms: S1_17  and  C14_20 
ROOT
ATOM      1  C8  <0> d           0.025   0.045   2.504  0.00  0.00     0.362 C 
ATOM      2  C9  <0> d          -0.228  -0.675   1.246  0.00  0.00     0.100 C 
ATOM      3  N1  <0> d          -0.423  -1.231   0.274  0.00  0.00    -0.195 NA
ENDROOT
BRANCH   1   4
ATOM      4  C7  <0> d           0.910   1.234   2.233  0.00  0.00    -0.005 A 
ATOM      5  C2  <0> d           0.351   2.439   1.852  0.00  0.00    -0.053 A 
ATOM      6  C1  <0> d          -1.143   2.564   1.706  0.00  0.00     0.049 C 
ATOM      7  C3  <0> d           1.163   3.532   1.609  0.00  0.00     0.007 A 
ATOM      8  C4  <0> d           2.534   3.417   1.742  0.00  0.00     0.001 A 
ATOM      9  C5  <0> d           3.094   2.211   2.119  0.00  0.00     0.001 A 
ATOM     10  C6  <0> d           2.282   1.119   2.363  0.00  0.00     0.011 A 
ENDBRANCH   1   4
BRANCH   1  11
ATOM     11  N2  <0> d           0.690  -0.854   3.458  0.00  0.00     0.114 N 
ATOM     12  C13 <0> d           0.810  -0.223   4.779  0.00  0.00     0.295 C 
ATOM     13  C12 <0> d           1.664  -1.112   5.689  0.00  0.00     0.165 C 
ATOM     14  N3  <0> d           1.088  -2.465   5.696  0.00  0.00    -0.303 N 
ATOM     15  C11 <0> d           0.810  -3.109   4.403  0.00  0.00     0.165 C 
ATOM     16  C10 <0> d          -0.011  -2.142   3.543  0.00  0.00     0.295 C 
BRANCH  14  17
ATOM     17  S1  <0> d           0.760  -3.243   7.121  0.00  0.00     0.264 S 
ATOM     18  O1  <0> d           0.594  -2.232   8.106  0.00  0.00    -0.200 OA
ATOM     19  O2  <0> d          -0.248  -4.203   6.837  0.00  0.00    -0.200 OA
BRANCH  17  20
ATOM     20  C14 <0> d           2.206  -4.147   7.565  0.00  0.00     0.129 A 
ATOM     21  C16 <0> d           3.264  -3.674   8.348  0.00  0.00     0.076 A 
ATOM     22  N5  <0> d           4.148  -4.632   8.462  0.00  0.00    -0.178 NA
ATOM     23  C17 <0> d           3.365  -2.300   8.960  0.00  0.00     0.074 C 
ATOM     24  N4  <0> d           3.685  -5.742   7.745  0.00  0.00    -0.281 N 
ATOM     25  C15 <0> d           2.491  -5.419   7.204  0.00  0.00     0.049 A 
ATOM     26  H2  <0> d           4.141  -6.593   7.653  0.00  0.00     0.189 HD
ATOM     27  C18 <0> d           1.631  -6.315   6.351  0.00  0.00     0.071 C 
ENDBRANCH  17  20
ENDBRANCH  14  17
ENDBRANCH   1  11
TORSDOF 4
