REMARK  5 active torsions:
REMARK  status: ('A' for Active; 'I' for Inactive)
REMARK    1  A    between atoms: N1_2  and  C2_3 
REMARK    2  A    between atoms: N1_2  and  C8_10 
REMARK    3  A    between atoms: C8_10  and  C9_11 
REMARK    4  A    between atoms: C8_10  and  C10_13 
REMARK    5  A    between atoms: C9_11  and  N2_12 
ROOT
ATOM      1  C8  <0> d           0.148  -0.509  -1.215  0.00  0.00     0.145 C 
ENDROOT
BRANCH   1   2
ATOM      2  N1  <0> d           0.346   0.752  -0.497  0.00  0.00    -0.374 N 
ATOM      3  C1  <0> d           0.698   1.968  -1.236  0.00  0.00     0.150 C 
BRANCH   2   4
ATOM      4  C2  <0> d           0.201   0.796   0.891  0.00  0.00     0.033 A 
ATOM      5  C7  <0> d           0.491   1.964   1.585  0.00  0.00     0.071 A 
ATOM      6  C6  <0> d           0.341   2.005   2.959  0.00  0.00     0.118 A 
ATOM      7  C5  <0> d          -0.088   0.880   3.643  0.00  0.00     0.042 A 
ATOM      8  F1  <0> d           0.618   3.142   3.635  0.00  0.00    -0.206 F 
ATOM      9  C4  <0> d          -0.372  -0.285   2.955  0.00  0.00     0.005 A 
ATOM     10  C3  <0> d          -0.230  -0.330   1.582  0.00  0.00     0.029 A 
ENDBRANCH   2   4
ENDBRANCH   1   2
BRANCH   1  11
ATOM     11  C9  <0> d           1.354  -0.778  -2.116  0.00  0.00     0.259 C 
BRANCH  11  12
ATOM     12  N2  <0> d           2.585  -0.728  -1.315  0.00  0.00    -0.077 N 
ATOM     13  H11 <0> d           3.383  -0.667  -1.929  0.00  0.00     0.274 HD
ATOM     14  H12 <0> d           2.561   0.081  -0.713  0.00  0.00     0.274 HD
ATOM     15  H16 <0> d           2.655  -1.564  -0.754  0.00  0.00     0.274 HD
ENDBRANCH  11  12
ENDBRANCH   1  11
BRANCH   1  16
ATOM     16  C10 <0> d          -1.098  -0.417  -2.058  0.00  0.00     0.005 A 
ATOM     17  C15 <0> d          -1.614  -1.553  -2.657  0.00  0.00     0.126 A 
ATOM     18  C14 <0> d          -2.762  -1.468  -3.427  0.00  0.00     0.062 A 
ATOM     19  F2  <0> d          -1.002  -2.745  -2.487  0.00  0.00    -0.205 F 
ATOM     20  C13 <0> d          -3.385  -0.247  -3.605  0.00  0.00     0.013 A 
ATOM     21  C12 <0> d          -2.865   0.889  -3.010  0.00  0.00     0.020 A 
ATOM     22 Br1  <0> d          -4.949  -0.128  -4.662  0.00  0.00    -0.051 Br
ATOM     23  C11 <0> d          -1.723   0.803  -2.237  0.00  0.00     0.013 A 
ENDBRANCH   1  16
TORSDOF 5
