REMARK  4 active torsions:
REMARK  status: ('A' for Active; 'I' for Inactive)
REMARK    1  A    between atoms: C5_8  and  C6_9 
REMARK    2  A    between atoms: C8_12  and  C9_14 
REMARK       I    between atoms: C9_14  and  N4_16 
REMARK    3  A    between atoms: N4_16  and  C10_17 
REMARK    4  A    between atoms: C10_17  and  C12_19 
ROOT
ATOM      1  C6  <0> d           5.840   3.616   0.681  0.00  0.00     0.115 A 
ATOM      2  N3  <0> d           5.471   3.352   1.928  0.00  0.00    -0.244 NA
ATOM      3  C7  <0> d           4.282   2.891   2.205  0.00  0.00     0.054 A 
ATOM      4  C8  <0> d           3.409   2.672   1.147  0.00  0.00     0.099 A 
ATOM      5  S1  <0> d           4.426   3.187  -0.230  0.00  0.00    -0.062 SA
ATOM      6  C16 <0> d           3.872   2.603   3.626  0.00  0.00     0.072 C 
ENDROOT
BRANCH   4   7
ATOM      7  C9  <0> d           2.034   2.164   1.157  0.00  0.00     0.261 C 
ATOM      8  O2  <0> d           1.505   1.862   2.211  0.00  0.00    -0.267 OA
ATOM      9  N4  <0> d           1.356   2.033   0.000  0.00  0.00    -0.350 N 
ATOM     10  H6  <0> d           1.834   2.306  -0.952  0.00  0.00     0.163 HD
BRANCH   9  11
ATOM     11  C10 <0> d          -0.019   1.526   0.010  0.00  0.00     0.109 C 
ATOM     12  C11 <0> d           0.002  -0.004   0.002  0.00  0.00     0.035 C 
BRANCH  11  13
ATOM     13  C12 <0> d          -0.759   2.033  -1.229  0.00  0.00     0.143 C 
ATOM     14  O3  <0> d          -0.186   1.454  -2.408  0.00  0.00    -0.384 OA
ATOM     15  C15 <0> d          -1.166   0.653  -3.087  0.00  0.00     0.168 C 
ATOM     16  C14 <0> d          -2.535   1.230  -2.648  0.00  0.00     0.029 C 
ATOM     17  C13 <0> d          -2.239   1.599  -1.169  0.00  0.00     0.036 C 
ENDBRANCH  11  13
ENDBRANCH   9  11
ENDBRANCH   4   7
BRANCH   1  18
ATOM     18  C5  <0> d           7.128   4.141   0.191  0.00  0.00     0.077 A 
ATOM     19  C2  <0> d           8.173   4.437   1.064  0.00  0.00    -0.017 A 
ATOM     20  C1  <0> d           8.027   4.230   2.550  0.00  0.00     0.051 C 
ATOM     21  C3  <0> d           9.364   4.931   0.518  0.00  0.00     0.058 A 
ATOM     22  N1  <0> d           9.495   5.111  -0.766  0.00  0.00    -0.174 NA
ATOM     23  C18 <0> d          10.515   5.263   1.433  0.00  0.00     0.072 C 
ATOM     24  N2  <0> d           8.570   4.857  -1.617  0.00  0.00    -0.238 N 
ATOM     25  C4  <0> d           7.371   4.370  -1.238  0.00  0.00     0.277 A 
ATOM     26  C17 <0> d           8.825   5.095  -3.039  0.00  0.00     0.183 C 
ATOM     27  O1  <0> d           6.506   4.129  -2.064  0.00  0.00    -0.266 OA
ENDBRANCH   1  18
TORSDOF 4
