REMARK  4 active torsions:
REMARK  status: ('A' for Active; 'I' for Inactive)
REMARK    1  A    between atoms: N1_5  and  C7_8 
REMARK    2  A    between atoms: N2_12  and  C11_15 
REMARK    3  A    between atoms: C14_18  and  N3_21 
REMARK    4  A    between atoms: C19_25  and  N4_28 
ROOT
ATOM      1  C11 <0> d           4.614  -5.495  -1.630  0.00  0.00     0.045 A 
ATOM      2  C12 <0> d           4.384  -5.532  -2.999  0.00  0.00     0.032 A 
ATOM      3  C13 <0> d           5.342  -6.050  -3.846  0.00  0.00     0.032 A 
ATOM      4  C14 <0> d           6.537  -6.533  -3.330  0.00  0.00     0.045 A 
ATOM      5  C15 <0> d           6.768  -6.495  -1.962  0.00  0.00     0.032 A 
ATOM      6  C16 <0> d           5.811  -5.973  -1.114  0.00  0.00     0.032 A 
ENDROOT
BRANCH   1   7
ATOM      7  N2  <0> d           3.640  -4.969  -0.769  0.00  0.00    -0.251 N 
ATOM      8  C9  <0> d           2.463  -5.570  -0.552  0.00  0.00     0.233 A 
ATOM      9  C8  <0> d           1.654  -4.743   0.423  0.00  0.00     0.146 A 
ATOM     10  O1  <0> d           2.103  -6.611  -1.058  0.00  0.00    -0.273 OA
ATOM     11  C7  <0> d           2.576  -3.547   0.736  0.00  0.00     0.289 A 
ATOM     12  C10 <0> d           3.811  -3.820  -0.096  0.00  0.00     0.262 A 
ATOM     13  O2  <0> d           4.795  -3.114  -0.144  0.00  0.00    -0.270 OA
BRANCH  11  14
ATOM     14  N1  <0> d           2.913  -3.514   2.165  0.00  0.00    -0.058 N 
ATOM     15  C4  <0> d           3.831  -2.399   2.425  0.00  0.00     0.236 C 
ATOM     16  C3  <0> d           4.248  -2.409   3.897  0.00  0.00     0.032 C 
ATOM     17  C2  <0> d           3.003  -2.262   4.776  0.00  0.00    -0.015 C 
ATOM     18  C1  <0> d           3.404  -2.350   6.250  0.00  0.00     0.010 C 
ATOM     19  C6  <0> d           2.020  -3.388   4.444  0.00  0.00     0.032 C 
ATOM     20  C5  <0> d           1.685  -3.342   2.951  0.00  0.00     0.236 C 
ATOM     21  H35 <0> d           3.358  -4.382   2.424  0.00  0.00     0.281 HD
ENDBRANCH  11  14
ENDBRANCH   1   7
BRANCH   4  22
ATOM     22  N3  <0> d           7.511  -7.060  -4.191  0.00  0.00    -0.251 N 
ATOM     23  C20 <0> d           8.189  -6.306  -5.066  0.00  0.00     0.262 A 
ATOM     24  C19 <0> d           9.158  -7.181  -5.831  0.00  0.00     0.289 A 
ATOM     25  O4  <0> d           8.050  -5.112  -5.219  0.00  0.00    -0.270 OA
ATOM     26  C18 <0> d           8.913  -8.588  -5.247  0.00  0.00     0.146 A 
ATOM     27  C17 <0> d           7.836  -8.359  -4.210  0.00  0.00     0.233 A 
ATOM     28  O3  <0> d           7.344  -9.216  -3.507  0.00  0.00    -0.273 OA
BRANCH  24  29
ATOM     29  N4  <0> d          10.545  -6.758  -5.596  0.00  0.00    -0.058 N 
ATOM     30  C25 <0> d          11.460  -7.708  -6.241  0.00  0.00     0.236 C 
ATOM     31  C24 <0> d          12.907  -7.317  -5.931  0.00  0.00     0.032 C 
ATOM     32  C23 <0> d          13.174  -5.906  -6.463  0.00  0.00    -0.015 C 
ATOM     33  C22 <0> d          12.166  -4.937  -5.840  0.00  0.00     0.032 C 
ATOM     34  C26 <0> d          14.594  -5.478  -6.088  0.00  0.00     0.010 C 
ATOM     35  C21 <0> d          10.746  -5.415  -6.153  0.00  0.00     0.236 C 
ATOM     36  H36 <0> d          10.726  -6.739  -4.604  0.00  0.00     0.281 HD
ENDBRANCH  24  29
ENDBRANCH   4  22
TORSDOF 4
