REMARK  4 active torsions:
REMARK  status: ('A' for Active; 'I' for Inactive)
REMARK    1  A    between atoms: C3_4  and  S1_10 
REMARK    2  A    between atoms: C5_6  and  C6_7 
REMARK    3  A    between atoms: S1_10  and  N2_13 
REMARK    4  A    between atoms: N2_13  and  C8_15 
ROOT
ATOM      1  S1  <0> d           0.043  -3.480  -1.794  0.00  0.00     0.262 S 
ATOM      2  O3  <0> d          -0.489  -4.570  -1.053  0.00  0.00    -0.200 OA
ATOM      3  O4  <0> d          -0.520  -3.049  -3.025  0.00  0.00    -0.200 OA
ENDROOT
BRANCH   1   4
ATOM      4  C3  <0> d           0.028  -2.085  -0.718  0.00  0.00     0.097 A 
ATOM      5  C2  <0> d           0.008  -0.784  -1.098  0.00  0.00     0.116 A 
ATOM      6  N1  <0> d           0.002  -0.004   0.002  0.00  0.00    -0.354 N 
ATOM      7  C1  <0> d          -0.018   1.461   0.010  0.00  0.00     0.156 C 
ATOM      8  C5  <0> d           0.024  -0.813   1.117  0.00  0.00     0.113 A 
ATOM      9  C4  <0> d           0.035  -2.123   0.678  0.00  0.00     0.063 A 
BRANCH   8  10
ATOM     10  C6  <0> d           0.030  -0.367   2.509  0.00  0.00     0.227 C 
ATOM     11  O1  <0> d           0.015   0.830   2.769  0.00  0.00    -0.643 OA
ATOM     12  O2  <0> d           0.050  -1.190   3.416  0.00  0.00    -0.643 OA
ENDBRANCH   8  10
ENDBRANCH   1   4
BRANCH   1  13
ATOM     13  N2  <0> d           1.628  -3.846  -2.100  0.00  0.00    -0.305 N 
ATOM     14  C7  <0> d           2.345  -4.782  -1.232  0.00  0.00     0.163 C 
BRANCH  13  15
ATOM     15  C8  <0> d           2.314  -3.233  -3.241  0.00  0.00     0.121 C 
ATOM     16  C12 <0> d           3.517  -2.429  -2.742  0.00  0.00     0.260 C 
ATOM     17  N3  <0> d           4.208  -1.816  -3.883  0.00  0.00    -0.073 N 
ATOM     18  C11 <0> d           4.737  -2.862  -4.766  0.00  0.00     0.234 C 
ATOM     19  C13 <0> d           5.315  -0.984  -3.393  0.00  0.00     0.269 C 
ATOM     20  H21 <0> d           3.558  -1.240  -4.397  0.00  0.00     0.279 HD
ATOM     21  C10 <0> d           3.581  -3.682  -5.342  0.00  0.00     0.030 C 
ATOM     22  C9  <0> d           2.799  -4.328  -4.195  0.00  0.00     0.029 C 
ENDBRANCH  13  15
ENDBRANCH   1  13
TORSDOF 4
