REMARK  6 active torsions:
REMARK  status: ('A' for Active; 'I' for Inactive)
REMARK    1  A    between atoms: C3_3  and  C16_26 
REMARK    2  A    between atoms: C6_9  and  S1_11 
REMARK    3  A    between atoms: S1_11  and  C7_12 
REMARK    4  A    between atoms: C7_12  and  C9_14 
REMARK       I    between atoms: C9_14  and  N5_16 
REMARK    5  A    between atoms: N5_16  and  C11_18 
REMARK    6  A    between atoms: C16_26  and  C17_27 
ROOT
ATOM      1  C1  <0> d          -0.981  -2.227   2.515  0.00  0.00     0.072 C 
ATOM      2  C2  <0> d          -0.847  -2.954   1.202  0.00  0.00     0.058 A 
ATOM      3  C3  <0> d          -0.997  -2.253  -0.001  0.00  0.00     0.002 A 
ATOM      4  C4  <0> d          -0.879  -2.922  -1.177  0.00  0.00     0.059 A 
ATOM      5  N1  <0> d          -0.608  -4.253  -1.155  0.00  0.00    -0.061 N 
ATOM      6  C5  <0> d          -0.467  -4.907   0.036  0.00  0.00     0.752 A 
ATOM      7  N2  <0> d          -0.590  -4.242   1.190  0.00  0.00    -0.065 NA
ATOM      8  N3  <0> d          -0.216  -6.183  -0.240  0.00  0.00    -0.033 NA
ATOM      9  C6  <0> d          -0.192  -6.361  -1.559  0.00  0.00     0.227 A 
ATOM     10  N4  <0> d          -0.426  -5.211  -2.161  0.00  0.00    -0.124 NA
ATOM     11  C15 <0> d          -1.042  -2.196  -2.488  0.00  0.00     0.072 C 
ENDROOT
BRANCH   9  12
ATOM     12  S1  <0> d           0.106  -7.894  -2.375  0.00  0.00    -0.074 SA
BRANCH  12  13
ATOM     13  C7  <0> d           0.352  -9.072  -1.017  0.00  0.00     0.143 C 
ATOM     14  C8  <0> d          -0.947  -9.210  -0.220  0.00  0.00     0.031 C 
BRANCH  13  15
ATOM     15  C9  <0> d           0.741 -10.414  -1.582  0.00  0.00     0.233 C 
ATOM     16  O1  <0> d           0.498 -10.678  -2.740  0.00  0.00    -0.272 OA
ATOM     17  N5  <0> d           1.357 -11.322  -0.799  0.00  0.00    -0.350 N 
ATOM     18  C10 <0> d           1.650 -11.003   0.601  0.00  0.00     0.153 C 
BRANCH  17  19
ATOM     19  C11 <0> d           1.735 -12.626  -1.347  0.00  0.00     0.101 C 
ATOM     20  C14 <0> d           1.048 -13.758  -0.531  0.00  0.00     0.165 C 
ATOM     21  S2  <0> d           2.114 -15.192  -0.979  0.00  0.00     0.146 S 
ATOM     22  C13 <0> d           3.627 -14.293  -1.511  0.00  0.00     0.142 C 
ATOM     23  O2  <0> d           1.550 -15.854  -2.103  0.00  0.00    -0.228 OA
ATOM     24  O3  <0> d           2.407 -15.936   0.195  0.00  0.00    -0.228 OA
ATOM     25  C12 <0> d           3.257 -12.815  -1.238  0.00  0.00     0.041 C 
ENDBRANCH  17  19
ENDBRANCH  13  15
ENDBRANCH  12  13
ENDBRANCH   9  12
BRANCH   3  26
ATOM     26  C16 <0> d          -1.293  -0.775   0.010  0.00  0.00     0.155 C 
BRANCH  26  27
ATOM     27  C17 <0> d           0.002  -0.004   0.002  0.00  0.00     0.177 C 
ATOM     28  O4  <0> d           1.056  -0.594  -0.011  0.00  0.00    -0.648 OA
ATOM     29  O5  <0> d          -0.016   1.338   0.009  0.00  0.00    -0.648 OA
ENDBRANCH  26  27
ENDBRANCH   3  26
TORSDOF 6
