REMARK  5 active torsions:
REMARK  status: ('A' for Active; 'I' for Inactive)
REMARK    1  A    between atoms: C3_4  and  C5_7 
REMARK    2  A    between atoms: C5_7  and  N2_8 
REMARK    3  A    between atoms: N2_8  and  S2_9 
REMARK    4  A    between atoms: S2_9  and  C6_12 
REMARK    5  A    between atoms: C9_15  and  N4_18 
ROOT
ATOM      1  S2  <0> d          -3.921  -4.014   1.660  0.00  0.00     0.260 S 
ATOM      2  O1  <0> d          -4.052  -4.118   3.071  0.00  0.00    -0.200 OA
ATOM      3  O2  <0> d          -4.864  -3.317   0.857  0.00  0.00    -0.200 OA
ENDROOT
BRANCH   1   4
ATOM      4  N2  <0> d          -2.447  -3.317   1.371  0.00  0.00    -0.310 N 
ATOM      5  H7  <0> d          -1.880  -3.056   2.114  0.00  0.00     0.172 HD
BRANCH   4   6
ATOM      6  C5  <0> d          -1.999  -3.093  -0.006  0.00  0.00     0.192 C 
BRANCH   6   7
ATOM      7  C3  <0> d          -0.834  -2.137  -0.006  0.00  0.00     0.060 A 
ATOM      8  N1  <0> d          -1.013  -0.832   0.002  0.00  0.00    -0.249 NA
ATOM      9  C2  <0> d           0.002  -0.004   0.002  0.00  0.00     0.071 A 
ATOM     10  C1  <0> d          -0.018   1.503   0.010  0.00  0.00     0.078 C 
ATOM     11  S1  <0> d           1.335  -1.032  -0.017  0.00  0.00    -0.085 SA
ATOM     12  C4  <0> d           0.449  -2.582  -0.014  0.00  0.00     0.080 A 
ENDBRANCH   6   7
ENDBRANCH   4   6
ENDBRANCH   1   4
BRANCH   1  13
ATOM     13  C6  <0> d          -3.849  -5.660   1.037  0.00  0.00     0.097 A 
ATOM     14  C10 <0> d          -3.432  -6.695   1.850  0.00  0.00     0.144 A 
ATOM     15  N3  <0> d          -3.380  -7.934   1.396  0.00  0.00    -0.242 NA
ATOM     16  C9  <0> d          -3.712  -8.230   0.149  0.00  0.00     0.120 A 
ATOM     17  C8  <0> d          -4.135  -7.236  -0.727  0.00  0.00     0.051 A 
ATOM     18  C7  <0> d          -4.206  -5.930  -0.278  0.00  0.00     0.030 A 
BRANCH  16  19
ATOM     19  N4  <0> d          -3.636  -9.548  -0.288  0.00  0.00    -0.384 N 
ATOM     20  H11 <0> d          -3.878  -9.770  -1.201  0.00  0.00     0.157 HD
ATOM     21  H12 <0> d          -3.341 -10.244   0.319  0.00  0.00     0.157 HD
ENDBRANCH  16  19
ENDBRANCH   1  13
TORSDOF 5
