REMARK  5 active torsions:
REMARK  status: ('A' for Active; 'I' for Inactive)
REMARK    1  A    between atoms: C2_2  and  C3_3 
REMARK    2  A    between atoms: C2_2  and  N3_9 
REMARK    3  A    between atoms: N3_9  and  C7_10 
REMARK    4  A    between atoms: C7_10  and  C8_11 
REMARK    5  A    between atoms: C7_10  and  C11_14 
ROOT
ATOM      1  N3  <0> d           0.699  -0.388   1.310  0.00  0.00    -0.053 N 
ATOM      2  H11 <0> d           0.269  -0.048   2.157  0.00  0.00     0.279 HD
ATOM      3  H19 <0> d           0.725  -1.396   1.327  0.00  0.00     0.279 HD
ENDROOT
BRANCH   1   4
ATOM      4  C2  <0> d          -0.081   0.063   0.149  0.00  0.00     0.218 C 
ATOM      5  C1  <0> d          -1.540  -0.366   0.317  0.00  0.00     0.045 C 
BRANCH   4   6
ATOM      6  C3  <0> d           0.483  -0.553  -1.105  0.00  0.00     0.008 A 
ATOM      7  C5  <0> d           0.629   0.065  -2.300  0.00  0.00     0.122 A 
ATOM      8  N2  <0> d           1.170  -0.823  -3.159  0.00  0.00    -0.285 N 
ATOM      9  N1  <0> d           1.353  -2.031  -2.473  0.00  0.00    -0.185 NA
ATOM     10  C6  <0> d           1.501  -0.572  -4.564  0.00  0.00     0.179 C 
ATOM     11  C4  <0> d           0.942  -1.867  -1.242  0.00  0.00     0.149 A 
ENDBRANCH   4   6
ENDBRANCH   1   4
BRANCH   1  12
ATOM     12  C7  <0> d           2.069   0.135   1.212  0.00  0.00     0.289 C 
BRANCH  12  13
ATOM     13  C8  <0> d           2.922  -0.458   2.335  0.00  0.00     0.019 C 
ATOM     14  C9  <0> d           2.947  -1.982   2.206  0.00  0.00     0.012 C 
ATOM     15  C10 <0> d           4.348   0.087   2.234  0.00  0.00     0.012 C 
ENDBRANCH  12  13
BRANCH  12  16
ATOM     16  C11 <0> d           2.043   1.637   1.340  0.00  0.00     0.205 C 
ATOM     17  O1  <0> d           1.101   2.186   1.884  0.00  0.00    -0.646 OA
ATOM     18  O2  <0> d           2.965   2.301   0.898  0.00  0.00    -0.646 OA
ENDBRANCH  12  16
ENDBRANCH   1  12
TORSDOF 5
