REMARK  5 active torsions:
REMARK  status: ('A' for Active; 'I' for Inactive)
REMARK    1  A    between atoms: C2_2  and  C3_3 
REMARK    2  A    between atoms: C2_2  and  N3_14 
REMARK    3  A    between atoms: C3_3  and  N1_4 
REMARK       I    between atoms: N1_4  and  C4_5 
REMARK    4  A    between atoms: C4_5  and  C5_7 
REMARK       I    between atoms: N3_14  and  C10_15 
REMARK    5  A    between atoms: C10_15  and  C11_17 
ROOT
ATOM      1  C1  <0> d           4.370   9.294  -0.118  0.00  0.00     0.034 C 
ATOM      2  C2  <0> d           3.100   8.452   0.015  0.00  0.00     0.098 C 
ENDROOT
BRANCH   2   3
ATOM      3  C3  <0> d           3.468   6.967   0.004  0.00  0.00     0.147 C 
BRANCH   3   4
ATOM      4  N1  <0> d           2.245   6.160   0.012  0.00  0.00    -0.355 N 
ATOM      5  C4  <0> d           2.326   4.815   0.005  0.00  0.00     0.253 C 
ATOM      6  O1  <0> d           3.413   4.271  -0.009  0.00  0.00    -0.268 OA
ATOM      7  H7  <0> d           1.378   6.595   0.023  0.00  0.00     0.162 HD
BRANCH   5   8
ATOM      8  C5  <0> d           1.092   4.001   0.013  0.00  0.00     0.050 A 
ATOM      9  C9  <0> d          -0.162   4.613   0.027  0.00  0.00     0.133 A 
ATOM     10  N2  <0> d          -1.262   3.889   0.034  0.00  0.00    -0.271 NA
ATOM     11  C8  <0> d          -1.228   2.570   0.022  0.00  0.00     0.135 A 
ATOM     12  C7  <0> d          -0.024   1.887   0.012  0.00  0.00     0.029 A 
ATOM     13  C6  <0> d           1.161   2.603   0.005  0.00  0.00     0.039 A 
ATOM     14 Br1  <0> d           0.002  -0.004   0.002  0.00  0.00    -0.050 Br
ENDBRANCH   5   8
ENDBRANCH   3   4
ENDBRANCH   2   3
BRANCH   2  15
ATOM     15  N3  <0> d           2.202   8.741  -1.106  0.00  0.00    -0.351 N 
ATOM     16  C10 <0> d           1.359   9.790  -1.041  0.00  0.00     0.253 C 
ATOM     17  O2  <0> d           1.343  10.497  -0.052  0.00  0.00    -0.268 OA
ATOM     18  H11 <0> d           2.215   8.177  -1.895  0.00  0.00     0.163 HD
BRANCH  16  19
ATOM     19  C11 <0> d           0.453  10.082  -2.173  0.00  0.00     0.050 A 
ATOM     20  C15 <0> d           0.462   9.278  -3.313  0.00  0.00     0.133 A 
ATOM     21  N4  <0> d          -0.344   9.537  -4.322  0.00  0.00    -0.271 NA
ATOM     22  C14 <0> d          -1.185  10.553  -4.299  0.00  0.00     0.135 A 
ATOM     23  C13 <0> d          -1.255  11.398  -3.204  0.00  0.00     0.029 A 
ATOM     24  C12 <0> d          -0.432  11.165  -2.115  0.00  0.00     0.039 A 
ATOM     25 Br2  <0> d          -2.467  12.849  -3.192  0.00  0.00    -0.050 Br
ENDBRANCH  16  19
ENDBRANCH   2  15
TORSDOF 5
