REMARK  4 active torsions:
REMARK  status: ('A' for Active; 'I' for Inactive)
REMARK    1  A    between atoms: C3_3  and  N1_17 
REMARK    2  A    between atoms: C4_4  and  O4_16 
REMARK    3  A    between atoms: C8_8  and  O2_13 
REMARK    4  A    between atoms: C10_10  and  O1_11 
ROOT
ATOM      1  C1  <0> d           0.216   1.359   0.785  0.00  0.00     0.048 C 
ATOM      2  C2  <0> d           0.057   0.018   0.065  0.00  0.00     0.092 C 
ATOM      3  C3  <0> d           0.446   0.174  -1.410  0.00  0.00     0.255 C 
ATOM      4  C4  <0> d           1.862   0.751  -1.475  0.00  0.00     0.190 C 
ATOM      5  C5  <0> d           2.768  -0.022  -0.550  0.00  0.00     0.039 A 
ATOM      6  C6  <0> d           2.258  -0.819   0.460  0.00  0.00     0.084 A 
ATOM      7  C7  <0> d           3.125  -1.513   1.297  0.00  0.00     0.074 A 
ATOM      8  C8  <0> d           4.495  -1.413   1.121  0.00  0.00     0.073 A 
ATOM      9  C9  <0> d           5.006  -0.618   0.107  0.00  0.00     0.074 A 
ATOM     10  C10 <0> d           4.144   0.076  -0.726  0.00  0.00     0.082 A 
ATOM     11  O3  <0> d           0.921  -0.952   0.659  0.00  0.00    -0.338 OA
ATOM     12  C17 <0> d          -1.395  -0.453   0.169  0.00  0.00     0.048 C 
ENDROOT
BRANCH   3  13
ATOM     13  N1  <0> d           0.414  -1.137  -2.072  0.00  0.00    -0.061 N 
ATOM     14  C16 <0> d           0.963  -1.031  -3.441  0.00  0.00     0.235 C 
ATOM     15  C15 <0> d           0.156  -1.997  -4.328  0.00  0.00     0.029 C 
ATOM     16  C14 <0> d          -0.896  -2.626  -3.386  0.00  0.00     0.029 C 
ATOM     17  C13 <0> d          -0.990  -1.595  -2.233  0.00  0.00     0.235 C 
ATOM     18  H26 <0> d           0.941  -1.811  -1.537  0.00  0.00     0.280 HD
ENDBRANCH   3  13
BRANCH   4  19
ATOM     19  O4  <0> d           1.835   2.123  -1.075  0.00  0.00    -0.388 OA
ATOM     20  H14 <0> d           2.701   2.554  -1.092  0.00  0.00     0.210 HD
ENDBRANCH   4  19
BRANCH  10  21
ATOM     21  O1  <0> d           4.644   0.856  -1.720  0.00  0.00    -0.355 OA
ATOM     22  C11 <0> d           6.066   0.913  -1.846  0.00  0.00     0.210 C 
ENDBRANCH  10  21
BRANCH   8  23
ATOM     23  O2  <0> d           5.338  -2.093   1.942  0.00  0.00    -0.356 OA
ATOM     24  C12 <0> d           6.739  -1.943   1.703  0.00  0.00     0.210 C 
ENDBRANCH   8  23
TORSDOF 4
