REMARK  8 active torsions:
REMARK  status: ('A' for Active; 'I' for Inactive)
REMARK    1  A    between atoms: N1_2  and  S1_3 
REMARK    2  A    between atoms: S1_3  and  C2_6 
REMARK    3  A    between atoms: C2_6  and  C3_7 
REMARK    4  A    between atoms: C7_11  and  C9_13 
REMARK    5  A    between atoms: C9_13  and  N2_14 
REMARK       I    between atoms: N2_14  and  C10_15 
REMARK    6  A    between atoms: C10_15  and  C11_17 
REMARK    7  A    between atoms: C14_20  and  C17_23 
REMARK    8  A    between atoms: C17_23  and  N3_24 
ROOT
ATOM      1  N2  <0> d           3.155  -0.746  -6.695  0.00  0.00    -0.353 N 
ATOM      2  C10 <0> d           3.104  -0.247  -7.946  0.00  0.00     0.251 C 
ATOM      3  O3  <0> d           3.985   0.492  -8.342  0.00  0.00    -0.268 OA
ATOM      4  H13 <0> d           2.452  -1.335  -6.379  0.00  0.00     0.163 HD
ENDROOT
BRANCH   1   5
ATOM      5  C9  <0> d           4.272  -0.399  -5.813  0.00  0.00     0.161 C 
BRANCH   5   6
ATOM      6  C7  <0> d           4.092  -1.082  -4.482  0.00  0.00    -0.040 A 
ATOM      7  C6  <0> d           4.621  -2.342  -4.274  0.00  0.00     0.009 A 
ATOM      8  C5  <0> d           4.456  -2.969  -3.053  0.00  0.00     0.001 A 
ATOM      9  C4  <0> d           3.762  -2.335  -2.040  0.00  0.00     0.008 A 
ATOM     10  C3  <0> d           3.233  -1.075  -2.247  0.00  0.00    -0.042 A 
ATOM     11  C8  <0> d           3.394  -0.450  -3.470  0.00  0.00     0.017 A 
BRANCH  10  12
ATOM     12  C2  <0> d           2.477  -0.384  -1.142  0.00  0.00     0.201 C 
BRANCH  12  13
ATOM     13  S1  <0> d           0.718  -0.816  -1.251  0.00  0.00     0.230 S 
ATOM     14  O1  <0> d           0.532  -2.191  -0.946  0.00  0.00    -0.206 OA
ATOM     15  O2  <0> d           0.147  -0.250  -2.423  0.00  0.00    -0.206 OA
BRANCH  13  16
ATOM     16  N1  <0> d           0.002  -0.004   0.002  0.00  0.00    -0.324 N 
ATOM     17  C1  <0> d          -0.018   1.461   0.010  0.00  0.00     0.159 C 
ATOM     18  H4  <0> d          -0.404  -0.499   0.731  0.00  0.00     0.171 HD
ENDBRANCH  13  16
ENDBRANCH  12  13
ENDBRANCH  10  12
ENDBRANCH   5   6
ENDBRANCH   1   5
BRANCH   2  19
ATOM     19  C11 <0> d           1.977  -0.597  -8.836  0.00  0.00     0.032 A 
ATOM     20  C16 <0> d           1.921  -0.081 -10.132  0.00  0.00     0.017 A 
ATOM     21  C15 <0> d           0.869  -0.416 -10.960  0.00  0.00     0.010 A 
ATOM     22  C14 <0> d          -0.135  -1.252 -10.504  0.00  0.00    -0.040 A 
ATOM     23  C13 <0> d          -0.088  -1.762  -9.218  0.00  0.00     0.010 A 
ATOM     24  C12 <0> d           0.961  -1.439  -8.383  0.00  0.00     0.017 A 
BRANCH  22  25
ATOM     25  C17 <0> d          -1.284  -1.609 -11.411  0.00  0.00     0.167 C 
BRANCH  25  26
ATOM     26  N3  <0> d          -2.360  -0.628 -11.245  0.00  0.00    -0.346 N 
ATOM     27  C20 <0> d          -2.515   0.517 -11.943  0.00  0.00     0.209 A 
ATOM     28  N4  <0> d          -3.587   1.126 -11.516  0.00  0.00    -0.255 NA
ATOM     29  C19 <0> d          -4.146   0.401 -10.534  0.00  0.00     0.135 A 
ATOM     30  C18 <0> d          -3.393  -0.700 -10.350  0.00  0.00     0.111 A 
ENDBRANCH  25  26
ENDBRANCH  22  25
ENDBRANCH   2  19
TORSDOF 8
