REMARK  7 active torsions:
REMARK  status: ('A' for Active; 'I' for Inactive)
REMARK    1  A    between atoms: C2_2  and  C3_3 
REMARK    2  A    between atoms: C3_3  and  C4_4 
REMARK    3  A    between atoms: C3_3  and  N4_21 
REMARK    4  A    between atoms: C4_4  and  C5_5 
REMARK    5  A    between atoms: C4_4  and  S2_11 
REMARK    6  A    between atoms: S2_11  and  C9_12 
REMARK    7  A    between atoms: N3_18  and  C11_19 
ROOT
ATOM      1  C4  <0> d           0.636  -2.012   1.254  0.00  0.00     0.125 C 
ENDROOT
BRANCH   1   2
ATOM      2  C3  <0> d           0.558  -0.491   1.399  0.00  0.00     0.202 C 
BRANCH   2   3
ATOM      3  C2  <0> d           0.048  -0.137   2.797  0.00  0.00     0.030 C 
ATOM      4  C1  <0> d           0.088   1.381   2.986  0.00  0.00     0.007 C 
ENDBRANCH   2   3
BRANCH   2   5
ATOM      5  N4  <0> d          -0.362   0.051   0.390  0.00  0.00    -0.074 N 
ATOM      6  H16 <0> d          -0.343   1.059   0.424  0.00  0.00     0.274 HD
ATOM      7  H17 <0> d          -0.077  -0.260  -0.526  0.00  0.00     0.274 HD
ATOM      8  H18 <0> d          -1.298  -0.274   0.580  0.00  0.00     0.274 HD
ENDBRANCH   2   5
ENDBRANCH   1   2
BRANCH   1   9
ATOM      9  C5  <0> d          -0.754  -2.593   1.305  0.00  0.00     0.000 A 
ATOM     10  S1  <0> d          -1.965  -2.499   2.613  0.00  0.00    -0.081 SA
ATOM     11  C8  <0> d          -3.263  -3.435   1.823  0.00  0.00     0.075 A 
ATOM     12  C7  <0> d          -2.693  -3.759   0.636  0.00  0.00     0.032 A 
ATOM     13 Cl1  <0> d          -4.843  -3.834   2.422  0.00  0.00    -0.076 Cl
ATOM     14  C6  <0> d          -1.407  -3.327   0.371  0.00  0.00     0.018 A 
ENDBRANCH   1   9
BRANCH   1  15
ATOM     15  S2  <0> d           1.628  -2.699   2.608  0.00  0.00    -0.078 SA
BRANCH  15  16
ATOM     16  C9  <0> d           3.265  -2.148   2.260  0.00  0.00     0.192 A 
ATOM     17  N3  <0> d           4.362  -2.329   3.070  0.00  0.00    -0.276 N 
ATOM     18  C10 <0> d           5.432  -1.775   2.465  0.00  0.00     0.344 A 
ATOM     19  N2  <0> d           5.011  -1.245   1.298  0.00  0.00    -0.226 N 
ATOM     20  O1  <0> d           6.571  -1.752   2.897  0.00  0.00    -0.245 OA
ATOM     21  N1  <0> d           3.636  -1.496   1.196  0.00  0.00    -0.145 NA
ATOM     22  H3  <0> d           5.559  -0.776   0.650  0.00  0.00     0.194 HD
BRANCH  17  23
ATOM     23  C11 <0> d           4.368  -3.012   4.366  0.00  0.00     0.132 C 
ATOM     24  C12 <0> d           4.651  -4.501   4.157  0.00  0.00     0.027 C 
ENDBRANCH  17  23
ENDBRANCH  15  16
ENDBRANCH   1  15
TORSDOF 7
