REMARK  4 active torsions:
REMARK  status: ('A' for Active; 'I' for Inactive)
REMARK    1  A    between atoms: C5_5  and  S1_9 
REMARK    2  A    between atoms: S1_9  and  N1_12 
REMARK    3  A    between atoms: N1_12  and  C9_13 
REMARK    4  A    between atoms: N3_17  and  C12_18 
ROOT
ATOM      1  C9  <0> d           1.832  -4.858   1.897  0.00  0.00     0.136 A 
ATOM      2  C10 <0> d           0.983  -4.285   2.794  0.00  0.00     0.079 A 
ATOM      3  C11 <0> d           1.604  -4.308   4.045  0.00  0.00     0.054 A 
ATOM      4  N2  <0> d           2.778  -4.870   3.912  0.00  0.00    -0.175 NA
ATOM      5  N3  <0> d           2.945  -5.231   2.569  0.00  0.00    -0.247 N 
ATOM      6  C16 <0> d           1.022  -3.776   5.330  0.00  0.00     0.072 C 
ENDROOT
BRANCH   1   7
ATOM      7  N1  <0> d           1.595  -5.034   0.536  0.00  0.00    -0.264 N 
ATOM      8  H11 <0> d           2.292  -5.391  -0.035  0.00  0.00     0.180 HD
BRANCH   7   9
ATOM      9  S1  <0> d           0.123  -4.631  -0.107  0.00  0.00     0.264 S 
ATOM     10  O1  <0> d          -0.861  -5.225   0.729  0.00  0.00    -0.200 OA
ATOM     11  O2  <0> d           0.201  -4.900  -1.500  0.00  0.00    -0.200 OA
BRANCH   9  12
ATOM     12  C5  <0> d          -0.060  -2.887   0.060  0.00  0.00     0.085 A 
ATOM     13  C4  <0> d          -1.058  -2.370   0.865  0.00  0.00     0.026 A 
ATOM     14  C3  <0> d          -1.201  -1.002   0.997  0.00  0.00     0.008 A 
ATOM     15  C2  <0> d          -0.345  -0.149   0.325  0.00  0.00    -0.061 A 
ATOM     16  C1  <0> d          -0.500   1.343   0.469  0.00  0.00     0.048 C 
ATOM     17  C7  <0> d           0.650  -0.666  -0.484  0.00  0.00     0.015 A 
ATOM     18  C6  <0> d           0.796  -2.035  -0.612  0.00  0.00    -0.038 A 
ATOM     19  C8  <0> d           1.884  -2.598  -1.489  0.00  0.00     0.050 C 
ENDBRANCH   9  12
ENDBRANCH   7   9
ENDBRANCH   1   7
BRANCH   5  20
ATOM     20  C12 <0> d           4.118  -5.892   1.993  0.00  0.00     0.127 C 
ATOM     21  C15 <0> d           5.379  -5.007   2.209  0.00  0.00     0.167 C 
ATOM     22  S2  <0> d           6.712  -6.259   1.988  0.00  0.00     0.146 S 
ATOM     23  C14 <0> d           5.752  -7.790   2.330  0.00  0.00     0.142 C 
ATOM     24  O3  <0> d           7.122  -6.263   0.628  0.00  0.00    -0.228 OA
ATOM     25  O4  <0> d           7.684  -6.085   3.011  0.00  0.00    -0.228 OA
ATOM     26  C13 <0> d           4.353  -7.239   2.697  0.00  0.00     0.043 C 
ENDBRANCH   5  20
TORSDOF 4
