REMARK  5 active torsions:
REMARK  status: ('A' for Active; 'I' for Inactive)
REMARK    1  A    between atoms: C2_2  and  C4_4 
REMARK    2  A    between atoms: C2_2  and  N1_6 
REMARK    3  A    between atoms: C4_4  and  O1_5 
REMARK    4  A    between atoms: N1_6  and  S1_7 
REMARK    5  A    between atoms: S1_7  and  C5_10 
ROOT
ATOM      1  N1  <0> d          -1.557   3.412  -1.831  0.00  0.00    -0.304 N 
ATOM      2  H10 <0> d          -1.354   4.335  -2.394  0.00  0.00     0.173 HD
ENDROOT
BRANCH   1   3
ATOM      3  C2  <0> d          -2.253   2.297  -2.479  0.00  0.00     0.054 C 
ATOM      4  C1  <0> d          -1.342   1.069  -2.498  0.00  0.00     0.041 C 
ATOM      5  C3  <0> d          -3.530   1.973  -1.700  0.00  0.00     0.041 C 
BRANCH   3   6
ATOM      6  C4  <0> d          -2.616   2.687  -3.913  0.00  0.00     0.194 C 
BRANCH   6   7
ATOM      7  O1  <0> d          -3.295   1.600  -4.544  0.00  0.00    -0.398 OA
ATOM      8  H9  <0> d          -3.636   1.695  -5.586  0.00  0.00     0.209 HD
ENDBRANCH   6   7
ENDBRANCH   3   6
ENDBRANCH   1   3
BRANCH   1   9
ATOM      9  S1  <0> d          -0.858   3.200  -0.345  0.00  0.00     0.266 S 
ATOM     10  O2  <0> d          -1.813   2.525   0.461  0.00  0.00    -0.200 OA
ATOM     11  O3  <0> d          -0.300   4.454   0.024  0.00  0.00    -0.200 OA
BRANCH   9  12
ATOM     12  C5  <0> d           0.495   2.092  -0.559  0.00  0.00     0.119 A 
ATOM     13  S2  <0> d           0.566   0.333  -0.259  0.00  0.00    -0.088 SA
ATOM     14  C8  <0> d           2.263   0.064  -0.741  0.00  0.00     0.051 A 
ATOM     15  C7  <0> d           2.657   1.312  -1.093  0.00  0.00     0.009 A 
ATOM     16  C6  <0> d           1.750   2.352  -0.999  0.00  0.00     0.033 A 
ENDBRANCH   9  12
ENDBRANCH   1   9
TORSDOF 5
