REMARK  6 active torsions:
REMARK  status: ('A' for Active; 'I' for Inactive)
REMARK    1  A    between atoms: C2_2  and  C3_3 
REMARK    2  A    between atoms: C4_5  and  C5_8 
REMARK    3  A    between atoms: C5_8  and  S1_9 
REMARK    4  A    between atoms: S1_9  and  C6_11 
REMARK    5  A    between atoms: C6_11  and  C8_13 
REMARK       I    between atoms: C8_13  and  N3_15 
REMARK    6  A    between atoms: N3_15  and  C9_16 
ROOT
ATOM      1  C6  <0> d           0.563  -0.696  -7.438  0.00  0.00     0.168 C 
ATOM      2  C7  <0> d           1.508  -1.857  -7.754  0.00  0.00     0.034 C 
ENDROOT
BRANCH   1   3
ATOM      3  S1  <0> d           0.905  -0.075  -5.768  0.00  0.00     0.035 S 
ATOM      4  O2  <0> d           2.237   0.417  -5.709  0.00  0.00    -0.257 OA
BRANCH   3   5
ATOM      5  C5  <0> d           0.756  -1.544  -4.715  0.00  0.00     0.198 C 
BRANCH   5   6
ATOM      6  C4  <0> d           1.020  -1.163  -3.281  0.00  0.00     0.184 A 
ATOM      7  N1  <0> d           0.125  -0.767  -2.418  0.00  0.00    -0.208 NA
ATOM      8  C3  <0> d           0.705  -0.511  -1.240  0.00  0.00     0.155 A 
ATOM      9  N2  <0> d           1.983  -0.737  -1.341  0.00  0.00    -0.111 NA
ATOM     10  O1  <0> d           2.213  -1.171  -2.673  0.00  0.00    -0.195 OA
BRANCH   8  11
ATOM     11  C2  <0> d          -0.005  -0.034   0.001  0.00  0.00     0.078 C 
ATOM     12  C1  <0> d          -0.036   1.496   0.014  0.00  0.00     0.013 C 
ENDBRANCH   8  11
ENDBRANCH   5   6
ENDBRANCH   3   5
ENDBRANCH   1   3
BRANCH   1  13
ATOM     13  C8  <0> d           0.775   0.411  -8.439  0.00  0.00     0.238 C 
ATOM     14  O3  <0> d           1.524   1.329  -8.178  0.00  0.00    -0.272 OA
ATOM     15  N3  <0> d           0.134   0.381  -9.623  0.00  0.00    -0.326 N 
ATOM     16  H12 <0> d          -0.412  -0.386  -9.860  0.00  0.00     0.169 HD
BRANCH  15  17
ATOM     17  C9  <0> d           0.255   1.454 -10.512  0.00  0.00     0.036 A 
ATOM     18  C14 <0> d           1.454   2.147 -10.607  0.00  0.00     0.048 A 
ATOM     19  C13 <0> d           1.572   3.203 -11.491  0.00  0.00     0.013 A 
ATOM     20  C12 <0> d           0.493   3.578 -12.271  0.00  0.00     0.019 A 
ATOM     21 Br1  <0> d           3.208   4.143 -11.627  0.00  0.00    -0.051 Br
ATOM     22  C11 <0> d          -0.704   2.893 -12.175  0.00  0.00     0.004 A 
ATOM     23  C10 <0> d          -0.826   1.833 -11.298  0.00  0.00     0.029 A 
ENDBRANCH  15  17
ENDBRANCH   1  13
TORSDOF 6
