REMARK  7 active torsions:
REMARK  status: ('A' for Active; 'I' for Inactive)
REMARK    1  A    between atoms: C2_2  and  C3_3 
REMARK    2  A    between atoms: C8_8  and  N1_9 
REMARK       I    between atoms: N1_9  and  C9_10 
REMARK    3  A    between atoms: C9_10  and  C10_12 
REMARK    4  A    between atoms: C10_12  and  N2_13 
REMARK    5  A    between atoms: N2_13  and  C12_15 
REMARK    6  A    between atoms: C12_15  and  C13_16 
REMARK       I    between atoms: C13_16  and  N3_18 
REMARK    7  A    between atoms: N3_18  and  C14_19 
ROOT
ATOM      1  N2  <0> d           6.437   1.012   1.200  0.00  0.00    -0.058 N 
ATOM      2  C11 <0> d           6.443   0.026   0.111  0.00  0.00     0.270 C 
ATOM      3  H30 <0> d           6.864   1.869   0.880  0.00  0.00     0.280 HD
ENDROOT
BRANCH   1   4
ATOM      4  C10 <0> d           5.052   1.279   1.612  0.00  0.00     0.337 C 
BRANCH   4   5
ATOM      5  C9  <0> d           4.308   1.933   0.477  0.00  0.00     0.248 C 
ATOM      6  N1  <0> d           3.012   2.271   0.628  0.00  0.00    -0.325 N 
ATOM      7  H10 <0> d           2.578   2.160   1.488  0.00  0.00     0.169 HD
ATOM      8  O1  <0> d           4.875   2.156  -0.572  0.00  0.00    -0.271 OA
BRANCH   6   9
ATOM      9  C8  <0> d           2.292   2.783  -0.457  0.00  0.00     0.041 A 
ATOM     10  C3  <0> d           0.937   2.506  -0.587  0.00  0.00    -0.032 A 
ATOM     11  C4  <0> d           0.228   3.018  -1.656  0.00  0.00     0.009 A 
ATOM     12  C5  <0> d           0.867   3.801  -2.600  0.00  0.00     0.001 A 
ATOM     13  C6  <0> d           2.216   4.075  -2.476  0.00  0.00     0.002 A 
ATOM     14  C7  <0> d           2.931   3.566  -1.410  0.00  0.00     0.030 A 
BRANCH  10  15
ATOM     15  C2  <0> d           0.240   1.653   0.442  0.00  0.00     0.036 C 
ATOM     16  C1  <0> d          -0.201   2.528   1.616  0.00  0.00     0.010 C 
ENDBRANCH  10  15
ENDBRANCH   6   9
ENDBRANCH   4   5
ENDBRANCH   1   4
BRANCH   1  17
ATOM     17  C12 <0> d           7.195   0.485   2.342  0.00  0.00     0.337 C 
BRANCH  17  18
ATOM     18  C13 <0> d           8.643   0.327   1.955  0.00  0.00     0.248 C 
ATOM     19  O2  <0> d           9.007   0.625   0.837  0.00  0.00    -0.271 OA
ATOM     20  N3  <0> d           9.533  -0.144   2.851  0.00  0.00    -0.325 N 
ATOM     21  H18 <0> d           9.229  -0.458   3.717  0.00  0.00     0.169 HD
BRANCH  20  22
ATOM     22  C14 <0> d          10.894  -0.182   2.531  0.00  0.00     0.046 A 
ATOM     23  C19 <0> d          11.816   0.475   3.335  0.00  0.00    -0.034 A 
ATOM     24  C18 <0> d          13.160   0.431   3.020  0.00  0.00     0.015 A 
ATOM     25  C20 <0> d          11.351   1.231   4.553  0.00  0.00     0.050 C 
ATOM     26  C17 <0> d          13.587  -0.256   1.899  0.00  0.00    -0.061 A 
ATOM     27  C16 <0> d          12.671  -0.907   1.093  0.00  0.00     0.015 A 
ATOM     28  C21 <0> d          15.054  -0.297   1.554  0.00  0.00     0.048 C 
ATOM     29  C15 <0> d          11.326  -0.872   1.406  0.00  0.00    -0.034 A 
ATOM     30  C22 <0> d          10.328  -1.581   0.527  0.00  0.00     0.050 C 
ENDBRANCH  20  22
ENDBRANCH  17  18
ENDBRANCH   1  17
TORSDOF 7
