REMARK  6 active torsions:
REMARK  status: ('A' for Active; 'I' for Inactive)
REMARK    1  A    between atoms: O1_2  and  C2_3 
REMARK    2  A    between atoms: C6_7  and  C8_9 
REMARK    3  A    between atoms: N3_25  and  C22_28 
REMARK    4  A    between atoms: C22_28  and  C23_29 
REMARK    5  A    between atoms: C23_29  and  C24_30 
REMARK    6  A    between atoms: C24_30  and  O4_31 
ROOT
ATOM      1  C8  <0> d          -2.540  -4.171   0.015  0.00  0.00     0.148 C 
ATOM      2  C9  <0> d          -2.697  -4.685   1.449  0.00  0.00     0.139 A 
ATOM      3  C10 <0> d          -3.022  -6.170   1.349  0.00  0.00    -0.040 A 
ATOM      4  C11 <0> d          -2.108  -6.804   2.074  0.00  0.00    -0.005 A 
ATOM      5  C12 <0> d          -1.942  -8.226   2.414  0.00  0.00     0.014 A 
ATOM      6  C13 <0> d          -0.865  -8.536   3.183  0.00  0.00     0.001 A 
ATOM      7  C14 <0> d           0.053  -7.585   3.641  0.00  0.00     0.002 A 
ATOM      8  C15 <0> d          -0.026  -6.256   3.381  0.00  0.00     0.030 A 
ATOM      9  C16 <0> d          -1.119  -5.806   2.585  0.00  0.00     0.039 A 
ATOM     10  N1  <0> d          -1.448  -4.586   2.207  0.00  0.00    -0.378 N 
ATOM     11  C17 <0> d          -4.146  -6.695   0.489  0.00  0.00     0.072 C 
ATOM     12  C18 <0> d          -3.972  -6.055  -0.900  0.00  0.00     0.184 A 
ATOM     13  N2  <0> d          -3.717  -4.625  -0.759  0.00  0.00    -0.326 N 
ATOM     14  C19 <0> d          -4.508  -3.692  -1.300  0.00  0.00     0.239 A 
ATOM     15  O2  <0> d          -4.222  -2.529  -1.108  0.00  0.00    -0.271 OA
ATOM     16  C20 <0> d          -5.718  -3.981  -2.125  0.00  0.00     0.228 A 
ATOM     17  N3  <0> d          -5.946  -5.407  -2.287  0.00  0.00    -0.342 N 
ATOM     18  C21 <0> d          -5.172  -6.343  -1.740  0.00  0.00     0.243 A 
ATOM     19  O3  <0> d          -5.458  -7.505  -1.942  0.00  0.00    -0.271 OA
ATOM     20  H26 <0> d          -0.958  -3.768   2.387  0.00  0.00     0.160 HD
ENDROOT
BRANCH   1  21
ATOM     21  C6  <0> d          -2.479  -2.665   0.017  0.00  0.00    -0.030 A 
ATOM     22  C5  <0> d          -3.187  -1.946   0.962  0.00  0.00     0.009 A 
ATOM     23  C4  <0> d          -3.133  -0.564   0.966  0.00  0.00     0.003 A 
ATOM     24  C3  <0> d          -2.372   0.101   0.025  0.00  0.00     0.037 A 
ATOM     25  C2  <0> d          -1.661  -0.618  -0.925  0.00  0.00     0.068 A 
ATOM     26  C7  <0> d          -1.720  -2.004  -0.930  0.00  0.00     0.046 A 
BRANCH  25  27
ATOM     27  O1  <0> d          -0.911   0.034  -1.852  0.00  0.00    -0.356 OA
ATOM     28  C1  <0> d          -0.896   1.462  -1.787  0.00  0.00     0.210 C 
ENDBRANCH  25  27
ENDBRANCH   1  21
BRANCH  17  29
ATOM     29  C22 <0> d          -7.091  -5.839  -3.092  0.00  0.00     0.128 C 
BRANCH  29  30
ATOM     30  C23 <0> d          -6.660  -5.987  -4.553  0.00  0.00     0.046 C 
BRANCH  30  31
ATOM     31  C24 <0> d          -7.857  -6.438  -5.394  0.00  0.00     0.165 C 
BRANCH  31  32
ATOM     32  O4  <0> d          -7.455  -6.577  -6.758  0.00  0.00    -0.401 OA
ATOM     33  H25 <0> d          -8.164  -6.861  -7.350  0.00  0.00     0.209 HD
ENDBRANCH  31  32
ENDBRANCH  30  31
ENDBRANCH  29  30
ENDBRANCH  17  29
TORSDOF 6
