REMARK  5 active torsions:
REMARK  status: ('A' for Active; 'I' for Inactive)
REMARK    1  A    between atoms: C2_2  and  N1_3 
REMARK    2  A    between atoms: C4_5  and  C11_12 
REMARK    3  A    between atoms: C11_12  and  N2_13 
REMARK    4  A    between atoms: C14_16  and  C17_19 
REMARK       I    between atoms: C17_19  and  N3_21 
REMARK    5  A    between atoms: N3_21  and  C18_22 
ROOT
ATOM      1  N2  <0> d           0.754  -3.145  -4.734  0.00  0.00    -0.067 N 
ATOM      2  C12 <0> d          -0.340  -3.690  -3.920  0.00  0.00     0.236 C 
ATOM      3  C13 <0> d          -0.255  -5.218  -3.903  0.00  0.00     0.042 C 
ATOM      4  C14 <0> d          -0.369  -5.746  -5.335  0.00  0.00     0.081 C 
ATOM      5  C15 <0> d           0.731  -5.114  -6.192  0.00  0.00     0.042 C 
ATOM      6  C16 <0> d           0.610  -3.590  -6.125  0.00  0.00     0.236 C 
ATOM      7  H34 <0> d           1.637  -3.469  -4.368  0.00  0.00     0.280 HD
ENDROOT
BRANCH   4   8
ATOM      8  C17 <0> d          -0.208  -7.245  -5.334  0.00  0.00     0.222 C 
ATOM      9  O1  <0> d          -0.019  -7.833  -4.291  0.00  0.00    -0.273 OA
ATOM     10  N3  <0> d          -0.273  -7.931  -6.492  0.00  0.00    -0.352 N 
ATOM     11  H23 <0> d          -0.423  -7.460  -7.327  0.00  0.00     0.163 HD
BRANCH  10  12
ATOM     12  C18 <0> d          -0.116  -9.387  -6.491  0.00  0.00     0.118 C 
ATOM     13  C23 <0> d          -1.444 -10.029  -6.187  0.00  0.00    -0.029 A 
ATOM     14  C22 <0> d          -1.901 -11.141  -6.858  0.00  0.00    -0.050 A 
ATOM     15  C24 <0> d          -2.222  -9.463  -5.186  0.00  0.00     0.010 A 
ATOM     16  C21 <0> d          -1.115 -11.803  -7.959  0.00  0.00     0.039 C 
ATOM     17  C27 <0> d          -3.132 -11.689  -6.523  0.00  0.00     0.007 A 
ATOM     18  C20 <0> d           0.349 -11.371  -7.909  0.00  0.00     0.007 C 
ATOM     19  C19 <0> d           0.399  -9.839  -7.856  0.00  0.00     0.030 C 
ATOM     20  C26 <0> d          -3.903 -11.126  -5.529  0.00  0.00     0.001 A 
ATOM     21  C25 <0> d          -3.446 -10.008  -4.857  0.00  0.00     0.001 A 
ENDBRANCH  10  12
ENDBRANCH   4   8
BRANCH   1  22
ATOM     22  C11 <0> d           0.714  -1.677  -4.684  0.00  0.00     0.275 C 
BRANCH  22  23
ATOM     23  C4  <0> d           0.985  -1.215  -3.276  0.00  0.00    -0.004 A 
ATOM     24  C3  <0> d           0.070  -0.827  -2.373  0.00  0.00     0.101 A 
ATOM     25  N1  <0> d           0.688  -0.476  -1.203  0.00  0.00    -0.356 N 
ATOM     26  C6  <0> d           2.050  -0.628  -1.330  0.00  0.00     0.045 A 
ATOM     27  C5  <0> d           2.296  -1.103  -2.631  0.00  0.00     0.000 A 
ATOM     28  C7  <0> d           3.122  -0.415  -0.469  0.00  0.00     0.030 A 
ATOM     29  C10 <0> d           3.605  -1.356  -3.045  0.00  0.00     0.014 A 
ATOM     30  C9  <0> d           4.643  -1.132  -2.186  0.00  0.00     0.001 A 
ATOM     31  C8  <0> d           4.406  -0.667  -0.900  0.00  0.00     0.002 A 
BRANCH  25  32
ATOM     32  C2  <0> d           0.002  -0.004   0.002  0.00  0.00     0.124 C 
ATOM     33  C1  <0> d          -0.019   1.526   0.010  0.00  0.00     0.027 C 
ENDBRANCH  25  32
ENDBRANCH  22  23
ENDBRANCH   1  22
TORSDOF 5
