REMARK  6 active torsions:
REMARK  status: ('A' for Active; 'I' for Inactive)
REMARK    1  A    between atoms: C4_5  and  N1_11 
REMARK    2  A    between atoms: C5_6  and  C6_7 
REMARK    3  A    between atoms: C6_7  and  O2_9 
REMARK       I    between atoms: N1_11  and  C8_12 
REMARK    4  A    between atoms: C8_12  and  C9_14 
REMARK    5  A    between atoms: C9_14  and  N2_16 
REMARK    6  A    between atoms: C13_19  and  C16_22 
ROOT
ATOM      1  N1  <0> d          -6.165   5.605  -1.379  0.00  0.00    -0.319 N 
ATOM      2  C8  <0> d          -5.068   4.849  -1.176  0.00  0.00     0.245 C 
ATOM      3  O3  <0> d          -4.159   4.872  -1.978  0.00  0.00    -0.271 OA
ATOM      4  H8  <0> d          -6.990   5.585  -0.651  0.00  0.00     0.169 HD
ENDROOT
BRANCH   1   5
ATOM      5  C4  <0> d          -6.255   6.407  -2.506  0.00  0.00     0.094 A 
ATOM      6  S1  <0> d          -5.096   6.612  -3.776  0.00  0.00    -0.076 SA
ATOM      7  C3  <0> d          -5.974   7.778  -4.795  0.00  0.00    -0.012 A 
ATOM      8  C2  <0> d          -7.121   7.976  -4.122  0.00  0.00    -0.030 A 
ATOM      9  C18 <0> d          -5.535   8.399  -6.096  0.00  0.00     0.057 C 
ATOM     10  C1  <0> d          -8.181   8.917  -4.635  0.00  0.00     0.050 C 
ATOM     11  C5  <0> d          -7.295   7.249  -2.886  0.00  0.00     0.080 A 
BRANCH  11  12
ATOM     12  C6  <0> d          -8.505   7.391  -2.075  0.00  0.00     0.296 C 
ATOM     13  O1  <0> d          -8.561   8.242  -1.208  0.00  0.00    -0.259 OA
BRANCH  12  14
ATOM     14  O2  <0> d          -9.559   6.576  -2.288  0.00  0.00    -0.322 OA
ATOM     15  C7  <0> d         -10.726   6.773  -1.446  0.00  0.00     0.213 C 
ENDBRANCH  12  14
ENDBRANCH  11  12
ENDBRANCH   1   5
BRANCH   2  16
ATOM     16  C9  <0> d          -4.971   3.976   0.049  0.00  0.00     0.177 C 
ATOM     17  C10 <0> d          -5.058   4.847   1.304  0.00  0.00     0.043 C 
BRANCH  16  18
ATOM     18  N2  <0> d          -3.692   3.261   0.039  0.00  0.00    -0.353 N 
ATOM     19  C15 <0> d          -2.572   3.957   0.037  0.00  0.00     0.092 A 
ATOM     20  C14 <0> d          -1.344   3.324   0.032  0.00  0.00     0.032 A 
ATOM     21  C13 <0> d          -1.302   1.924   0.019  0.00  0.00     0.012 A 
ATOM     22  C12 <0> d          -2.517   1.228   0.021  0.00  0.00     0.032 A 
ATOM     23  C11 <0> d          -3.698   1.943   0.031  0.00  0.00     0.092 A 
BRANCH  21  24
ATOM     24  C16 <0> d          -0.014   1.204   0.009  0.00  0.00     0.155 C 
ATOM     25  O4  <0> d           0.002  -0.004   0.002  0.00  0.00    -0.293 OA
ATOM     26  C17 <0> d           1.280   1.975   0.000  0.00  0.00     0.096 C 
ENDBRANCH  21  24
ENDBRANCH  16  18
ENDBRANCH   2  16
TORSDOF 6
