REMARK  5 active torsions:
REMARK  status: ('A' for Active; 'I' for Inactive)
REMARK    1  A    between atoms: N1_4  and  C5_7 
REMARK    2  A    between atoms: C5_7  and  C6_8 
REMARK    3  A    between atoms: C6_8  and  C7_9 
REMARK    4  A    between atoms: C6_8  and  C13_15 
REMARK    5  A    between atoms: C6_8  and  N4_18 
REMARK       I    between atoms: C13_15  and  N3_17 
ROOT
ATOM      1  C6  <0> d           1.478  -3.394  -1.697  0.00  0.00     0.279 C 
ENDROOT
BRANCH   1   2
ATOM      2  C5  <0> d           0.152  -2.809  -1.206  0.00  0.00     0.186 C 
BRANCH   2   3
ATOM      3  N1  <0> d           0.416  -1.769  -0.209  0.00  0.00    -0.342 N 
ATOM      4  C3  <0> d           0.640  -0.442  -0.458  0.00  0.00     0.031 A 
ATOM      5  C2  <0> d           0.838   0.151   0.735  0.00  0.00     0.028 A 
ATOM      6  C15 <0> d           0.660   0.227  -1.808  0.00  0.00     0.070 C 
ATOM      7  C1  <0> d           1.122   1.614   0.960  0.00  0.00     0.070 C 
ATOM      8  N2  <0> d           0.743  -0.789   1.686  0.00  0.00    -0.354 N 
ATOM      9  C4  <0> d           0.486  -1.941   1.129  0.00  0.00     0.183 A 
ATOM     10  H21 <0> d           0.847  -0.637   2.639  0.00  0.00     0.166 HD
ENDBRANCH   2   3
ENDBRANCH   1   2
BRANCH   1  11
ATOM     11  C7  <0> d           1.204  -4.520  -2.660  0.00  0.00    -0.009 A 
ATOM     12  C12 <0> d           2.100  -4.795  -3.676  0.00  0.00     0.010 A 
ATOM     13  C11 <0> d           1.851  -5.830  -4.557  0.00  0.00     0.001 A 
ATOM     14  C10 <0> d           0.701  -6.586  -4.427  0.00  0.00     0.000 A 
ATOM     15  C9  <0> d          -0.198  -6.309  -3.414  0.00  0.00     0.001 A 
ATOM     16  C8  <0> d           0.053  -5.275  -2.531  0.00  0.00     0.010 A 
ENDBRANCH   1  11
BRANCH   1  17
ATOM     17  C13 <0> d           2.262  -3.917  -0.522  0.00  0.00     0.261 C 
ATOM     18  O1  <0> d           1.685  -4.256   0.490  0.00  0.00    -0.270 OA
ATOM     19  N3  <0> d           3.604  -4.009  -0.595  0.00  0.00    -0.368 N 
ATOM     20  H12 <0> d           4.066  -3.738  -1.404  0.00  0.00     0.159 HD
ATOM     21  H13 <0> d           4.109  -4.346   0.162  0.00  0.00     0.159 HD
ENDBRANCH   1  17
BRANCH   1  22
ATOM     22  N4  <0> d           2.253  -2.347  -2.376  0.00  0.00     0.104 N 
ATOM     23  C14 <0> d           1.597  -1.931  -3.623  0.00  0.00     0.309 C 
ATOM     24  H14 <0> d           2.405  -1.557  -1.767  0.00  0.00     0.317 HD
ENDBRANCH   1  22
TORSDOF 5
