REMARK  4 active torsions:
REMARK  status: ('A' for Active; 'I' for Inactive)
REMARK    1  A    between atoms: C4_4  and  C13_14 
REMARK    2  A    between atoms: N1_6  and  C6_7 
REMARK    3  A    between atoms: C13_14  and  N2_22 
REMARK    4  A    between atoms: C14_15  and  N2_22 
ROOT
ATOM      1  C1  <0> d          -1.172  -0.877  -0.489  0.00  0.00     0.068 C 
ATOM      2  C2  <0> d           0.017   0.008  -0.215  0.00  0.00     0.009 A 
ATOM      3  C3  <0> d          -0.002   1.353  -0.129  0.00  0.00     0.035 A 
ATOM      4  C4  <0> d           1.315   1.778   0.137  0.00  0.00    -0.009 A 
ATOM      5  C5  <0> d           2.089   0.675   0.203  0.00  0.00     0.016 A 
ATOM      6  N1  <0> d           1.298  -0.414  -0.012  0.00  0.00    -0.349 N 
ATOM      7  C12 <0> d           3.572   0.651   0.470  0.00  0.00     0.069 C 
ENDROOT
BRANCH   4   8
ATOM      8  C13 <0> d           1.775   3.202   0.314  0.00  0.00     0.273 C 
BRANCH   8   9
ATOM      9  N2  <0> d           2.392   3.670  -0.941  0.00  0.00    -0.066 N 
ATOM     10  H28 <0> d           1.701   3.619  -1.698  0.00  0.00     0.278 HD
ATOM     11  H29 <0> d           3.194   3.071  -1.168  0.00  0.00     0.278 HD
BRANCH   9  12
ATOM     12  C14 <0> d           2.852   5.064  -0.796  0.00  0.00     0.201 C 
ATOM     13  C17 <0> d           2.877   5.736  -2.190  0.00  0.00     0.173 C 
ATOM     14  S1  <0> d           4.275   6.922  -2.042  0.00  0.00     0.146 S 
ATOM     15  C16 <0> d           4.847   6.509  -0.340  0.00  0.00     0.142 C 
ATOM     16  O1  <0> d           5.289   6.560  -2.970  0.00  0.00    -0.228 OA
ATOM     17  O2  <0> d           3.761   8.246  -2.049  0.00  0.00    -0.228 OA
ATOM     18  C15 <0> d           4.263   5.076  -0.185  0.00  0.00     0.049 C 
ENDBRANCH   9  12
ENDBRANCH   8   9
ENDBRANCH   4   8
BRANCH   6  19
ATOM     19  C6  <0> d           1.749  -1.808  -0.023  0.00  0.00     0.090 C 
ATOM     20  C11 <0> d           1.129  -2.554   1.160  0.00  0.00     0.026 C 
ATOM     21  C10 <0> d           1.600  -4.010   1.149  0.00  0.00     0.002 C 
ATOM     22  C9  <0> d           1.166  -4.676  -0.158  0.00  0.00     0.000 C 
ATOM     23  C8  <0> d           1.786  -3.930  -1.341  0.00  0.00     0.002 C 
ATOM     24  C7  <0> d           1.315  -2.475  -1.330  0.00  0.00     0.026 C 
ENDBRANCH   6  19
TORSDOF 4
