REMARK  9 active torsions:
REMARK  status: ('A' for Active; 'I' for Inactive)
REMARK    1  A    between atoms: C2_2  and  N1_3 
REMARK    2  A    between atoms: N1_3  and  C3_4 
REMARK    3  A    between atoms: N1_3  and  C10_11 
REMARK    4  A    between atoms: C3_4  and  C4_5 
REMARK    5  A    between atoms: C10_11  and  C11_12 
REMARK    6  A    between atoms: C14_16  and  O3_23 
REMARK    7  A    between atoms: N2_18  and  C16_19 
REMARK    8  A    between atoms: C16_19  and  C17_20 
REMARK    9  A    between atoms: C17_20  and  O2_22 
ROOT
ATOM      1  C11 <0> d          -0.120   1.503  -2.890  0.00  0.00     0.043 A 
ATOM      2  C12 <0> d           0.466   2.047  -3.981  0.00  0.00     0.084 A 
ATOM      3  C13 <0> d           0.394   3.443  -4.181  0.00  0.00     0.208 A 
ATOM      4  O1  <0> d           0.915   3.961  -5.159  0.00  0.00    -0.285 OA
ATOM      5  C14 <0> d          -0.294   4.233  -3.225  0.00  0.00     0.131 A 
ATOM      6  C15 <0> d          -0.859   3.628  -2.153  0.00  0.00     0.131 A 
ATOM      7  N2  <0> d          -0.775   2.281  -1.995  0.00  0.00    -0.353 N 
ENDROOT
BRANCH   1   8
ATOM      8  C10 <0> d          -0.047   0.014  -2.670  0.00  0.00     0.330 C 
BRANCH   8   9
ATOM      9  N1  <0> d           0.784  -0.267  -1.492  0.00  0.00     0.097 N 
BRANCH   9  10
ATOM     10  C2  <0> d           0.704  -1.686  -1.119  0.00  0.00     0.268 C 
ATOM     11  C1  <0> d          -0.723  -2.017  -0.677  0.00  0.00     0.037 C 
ENDBRANCH   9  10
BRANCH   9  12
ATOM     12  C3  <0> d           2.177   0.140  -1.722  0.00  0.00     0.311 C 
BRANCH  12  13
ATOM     13  C4  <0> d           2.941   0.067  -0.425  0.00  0.00    -0.030 A 
ATOM     14  C9  <0> d           3.585  -1.103  -0.066  0.00  0.00     0.009 A 
ATOM     15  C8  <0> d           4.290  -1.168   1.121  0.00  0.00     0.001 A 
ATOM     16  C7  <0> d           4.343  -0.066   1.954  0.00  0.00     0.000 A 
ATOM     17  C6  <0> d           3.695   1.102   1.598  0.00  0.00     0.001 A 
ATOM     18  C5  <0> d           2.994   1.169   0.409  0.00  0.00     0.009 A 
ENDBRANCH  12  13
ENDBRANCH   9  12
ENDBRANCH   8   9
ENDBRANCH   1   8
BRANCH   7  19
ATOM     19  C16 <0> d          -1.403   1.656  -0.828  0.00  0.00     0.159 C 
BRANCH  19  20
ATOM     20  C17 <0> d          -0.454   1.743   0.369  0.00  0.00     0.132 C 
ATOM     21  C18 <0> d          -1.081   1.032   1.570  0.00  0.00     0.041 C 
BRANCH  20  22
ATOM     22  O2  <0> d          -0.223   3.115   0.695  0.00  0.00    -0.394 OA
ATOM     23  H23 <0> d          -1.011   3.584   1.003  0.00  0.00     0.210 HD
ENDBRANCH  20  22
ENDBRANCH  19  20
ENDBRANCH   7  19
BRANCH   5  24
ATOM     24  O3  <0> d          -0.384   5.582  -3.381  0.00  0.00    -0.356 OA
ATOM     25  H24 <0> d           0.052   5.915  -4.177  0.00  0.00     0.218 HD
ENDBRANCH   5  24
TORSDOF 9
