REMARK  4 active torsions:
REMARK  status: ('A' for Active; 'I' for Inactive)
REMARK    1  A    between atoms: C3_3  and  C6_8 
REMARK    2  A    between atoms: C6_8  and  N2_10 
REMARK    3  A    between atoms: N2_10  and  C8_11 
REMARK    4  A    between atoms: C8_11  and  C10_13 
REMARK       I    between atoms: C10_13  and  N3_15 
ROOT
ATOM      1  N2  <0> d          -2.861  -0.733  -1.653  0.00  0.00    -0.053 N 
ATOM      2  H12 <0> d          -2.637  -0.446  -2.593  0.00  0.00     0.279 HD
ATOM      3  H22 <0> d          -2.691  -1.723  -1.554  0.00  0.00     0.279 HD
ENDROOT
BRANCH   1   4
ATOM      4  C6  <0> d          -2.019   0.005  -0.701  0.00  0.00     0.235 C 
ATOM      5  C7  <0> d          -0.554  -0.380  -0.911  0.00  0.00     0.047 C 
BRANCH   4   6
ATOM      6  C3  <0> d          -2.187   1.486  -0.926  0.00  0.00     0.078 A 
ATOM      7  C2  <0> d          -2.354   2.347   0.110  0.00  0.00     0.007 A 
ATOM      8  C1  <0> d          -2.409   2.072   1.590  0.00  0.00     0.058 C 
ATOM      9  S1  <0> d          -2.498   3.894  -0.769  0.00  0.00    -0.078 SA
ATOM     10  C4  <0> d          -2.323   3.291  -2.330  0.00  0.00     0.072 A 
ATOM     11  N1  <0> d          -2.178   2.004  -2.139  0.00  0.00    -0.248 NA
ATOM     12  C5  <0> d          -2.337   4.048  -3.634  0.00  0.00     0.078 C 
ENDBRANCH   4   6
ENDBRANCH   1   4
BRANCH   1  13
ATOM     13  C8  <0> d          -4.276  -0.450  -1.377  0.00  0.00     0.274 C 
ATOM     14  C9  <0> d          -4.648  -1.002  -0.000  0.00  0.00     0.050 C 
BRANCH  13  15
ATOM     15  C10 <0> d          -5.133  -1.104  -2.430  0.00  0.00     0.249 C 
ATOM     16  O1  <0> d          -4.677  -1.994  -3.117  0.00  0.00    -0.271 OA
ATOM     17  N3  <0> d          -6.407  -0.701  -2.608  0.00  0.00    -0.359 N 
ATOM     18  C11 <0> d          -7.263  -1.386  -3.580  0.00  0.00     0.152 C 
ATOM     19  C12 <0> d          -6.935   0.421  -1.829  0.00  0.00     0.152 C 
ENDBRANCH  13  15
ENDBRANCH   1  13
TORSDOF 4
