REMARK  2 active torsions:
REMARK  status: ('A' for Active; 'I' for Inactive)
REMARK    1  A    between atoms: C2_2  and  N4_24 
REMARK    2  A    between atoms: N2_12  and  C10_16 
ROOT
ATOM      1  C4  <0> d          -0.609   1.645   3.685  0.00  0.00     0.284 C 
ATOM      2  C5  <0> d          -0.019   0.946   4.883  0.00  0.00     0.075 A 
ATOM      3  C6  <0> d          -0.191   1.516   6.157  0.00  0.00     0.260 A 
ATOM      4  O1  <0> d          -0.807   2.560   6.283  0.00  0.00    -0.267 OA
ATOM      5  N1  <0> d           0.327   0.903   7.239  0.00  0.00    -0.274 N 
ATOM      6  H1  <0> d           0.208   1.308   8.145  0.00  0.00     0.173 HD
ATOM      7  C7  <0> d           1.004  -0.253   7.107  0.00  0.00     0.335 A 
ATOM      8  O2  <0> d           1.461  -0.795   8.094  0.00  0.00    -0.246 OA
ATOM      9  N2  <0> d           1.182  -0.817   5.900  0.00  0.00    -0.250 N 
ATOM     10  C8  <0> d           0.674  -0.219   4.763  0.00  0.00     0.106 A 
ATOM     11  N3  <0> d           0.898  -0.822   3.555  0.00  0.00    -0.254 NA
ATOM     12  C9  <0> d          -0.039  -0.379   2.519  0.00  0.00     0.331 C 
ATOM     13  H11 <0> d           0.889  -1.827   3.645  0.00  0.00     0.130 HD
ATOM     14  N4  <0> d           0.002   1.095   2.462  0.00  0.00    -0.052 N 
ATOM     15  H18 <0> d           0.979   1.404   2.405  0.00  0.00     0.282 HD
ENDROOT
BRANCH   9  16
ATOM     16  C10 <0> d           1.889  -2.023   5.794  0.00  0.00     0.084 A 
ATOM     17  C15 <0> d           3.266  -2.009   5.606  0.00  0.00     0.143 A 
ATOM     18  C14 <0> d           3.960  -3.201   5.503  0.00  0.00     0.044 A 
ATOM     19  F1  <0> d           3.926  -0.833   5.526  0.00  0.00    -0.204 F 
ATOM     20  C13 <0> d           3.284  -4.404   5.585  0.00  0.00     0.003 A 
ATOM     21  C12 <0> d           1.914  -4.420   5.772  0.00  0.00     0.002 A 
ATOM     22  C11 <0> d           1.216  -3.233   5.882  0.00  0.00     0.033 A 
ENDBRANCH   9  16
BRANCH  14  23
ATOM     23  C2  <0> d          -0.729   1.579   1.267  0.00  0.00     0.182 C 
ATOM     24  C1  <0> d          -0.013   1.086   0.008  0.00  0.00     0.040 C 
ATOM     25  C3  <0> d          -2.164   1.050   1.278  0.00  0.00     0.040 C 
ENDBRANCH  14  23
TORSDOF 2
