REMARK  5 active torsions:
REMARK  status: ('A' for Active; 'I' for Inactive)
REMARK    1  A    between atoms: C6_6  and  N1_8 
REMARK       I    between atoms: N1_8  and  C8_9 
REMARK       I    between atoms: C8_9  and  N2_11 
REMARK    2  A    between atoms: N2_11  and  C9_12 
REMARK    3  A    between atoms: C9_12  and  C10_13 
REMARK    4  A    between atoms: C10_13  and  C11_14 
REMARK    5  A    between atoms: C10_13  and  N4_25 
ROOT
ATOM      1  C10 <0> d          -0.094  -2.800   7.541  0.00  0.00     0.237 C 
ENDROOT
BRANCH   1   2
ATOM      2  C9  <0> d           0.123  -2.006   6.251  0.00  0.00     0.162 C 
BRANCH   2   3
ATOM      3  N2  <0> d           1.434  -1.354   6.294  0.00  0.00    -0.341 N 
ATOM      4  C8  <0> d           1.800  -0.511   5.309  0.00  0.00     0.320 C 
ATOM      5  N1  <0> d           3.006   0.089   5.348  0.00  0.00    -0.309 N 
ATOM      6  O1  <0> d           1.042  -0.292   4.383  0.00  0.00    -0.247 OA
ATOM      7  H8  <0> d           3.639  -0.140   6.046  0.00  0.00     0.170 HD
ATOM      8  H9  <0> d           2.039  -1.529   7.032  0.00  0.00     0.164 HD
BRANCH   5   9
ATOM      9  C6  <0> d           3.345   1.044   4.383  0.00  0.00     0.037 A 
ATOM     10  C5  <0> d           2.372   1.891   3.871  0.00  0.00     0.036 A 
ATOM     11  C4  <0> d           2.709   2.833   2.918  0.00  0.00    -0.059 A 
ATOM     12  C3  <0> d           4.015   2.932   2.474  0.00  0.00     0.013 A 
ATOM     13  C23 <0> d           1.653   3.753   2.362  0.00  0.00     0.048 C 
ATOM     14  C2  <0> d           4.987   2.089   2.982  0.00  0.00    -0.059 A 
ATOM     15  C1  <0> d           6.409   2.200   2.496  0.00  0.00     0.048 C 
ATOM     16  C7  <0> d           4.654   1.142   3.930  0.00  0.00     0.036 A 
ENDBRANCH   5   9
ENDBRANCH   2   3
ENDBRANCH   1   2
BRANCH   1  17
ATOM     17  C11 <0> d          -0.125  -1.854   8.714  0.00  0.00    -0.025 A 
ATOM     18  C16 <0> d           0.998  -1.699   9.503  0.00  0.00     0.018 A 
ATOM     19  C15 <0> d           0.980  -0.828  10.580  0.00  0.00    -0.031 A 
ATOM     20  C14 <0> d          -0.175  -0.117  10.866  0.00  0.00     0.036 A 
ATOM     21  C17 <0> d           2.220  -0.686  11.422  0.00  0.00     0.042 C 
ATOM     22  C13 <0> d          -1.306  -0.280  10.073  0.00  0.00     0.030 A 
ATOM     23  N3  <0> d          -0.222   0.771  11.946  0.00  0.00    -0.385 N 
ATOM     24  C12 <0> d          -1.279  -1.147   9.000  0.00  0.00     0.011 A 
ATOM     25  C19 <0> d           0.848   0.724  12.951  0.00  0.00     0.123 C 
ATOM     26  C20 <0> d          -1.321   1.732  12.072  0.00  0.00     0.149 C 
ATOM     27  C18 <0> d           2.186   0.625  12.207  0.00  0.00     0.024 C 
ENDBRANCH   1  17
BRANCH   1  28
ATOM     28  N4  <0> d          -1.371  -3.523   7.462  0.00  0.00    -0.069 N 
ATOM     29  C21 <0> d          -1.314  -4.497   6.364  0.00  0.00     0.270 C 
ATOM     30  C22 <0> d          -1.615  -4.226   8.728  0.00  0.00     0.270 C 
ATOM     31  H33 <0> d          -2.119  -2.867   7.292  0.00  0.00     0.279 HD
ENDBRANCH   1  28
TORSDOF 5
