REMARK  6 active torsions:
REMARK  status: ('A' for Active; 'I' for Inactive)
REMARK    1  A    between atoms: C2_2  and  C14_22 
REMARK    2  A    between atoms: N1_3  and  N2_4 
REMARK    3  A    between atoms: N2_4  and  C3_5 
REMARK    4  A    between atoms: C3_5  and  S1_7 
REMARK    5  A    between atoms: S1_7  and  C4_8 
REMARK    6  A    between atoms: N4_12  and  C8_15 
ROOT
ATOM      1  C3  <0> d          -0.260  -1.318   3.578  0.00  0.00     0.155 C 
ATOM      2  N3  <0> d          -0.290  -2.600   3.819  0.00  0.00    -0.379 N 
ATOM      3  H6  <0> d          -0.220  -2.923   4.731  0.00  0.00     0.158 HD
ATOM      4  H17 <0> d          -0.384  -3.229   3.087  0.00  0.00     0.158 HD
ENDROOT
BRANCH   1   5
ATOM      5  N2  <0> d          -0.360  -0.858   2.283  0.00  0.00    -0.257 N 
ATOM      6  H5  <0> d          -0.337   0.095   2.104  0.00  0.00     0.191 HD
BRANCH   5   7
ATOM      7  N1  <0> d          -0.495  -1.767   1.226  0.00  0.00    -0.177 NA
ATOM      8  C2  <0> d          -0.590  -1.334   0.006  0.00  0.00     0.061 C 
ATOM      9  C1  <0> d          -0.554   0.146  -0.273  0.00  0.00     0.073 C 
BRANCH   8  10
ATOM     10  C14 <0> d          -0.732  -2.291  -1.107  0.00  0.00    -0.010 A 
ATOM     11  C19 <0> d          -0.765  -3.664  -0.852  0.00  0.00     0.015 A 
ATOM     12  C18 <0> d          -0.903  -4.553  -1.897  0.00  0.00     0.024 A 
ATOM     13  C17 <0> d          -0.998  -4.088  -3.198  0.00  0.00     0.034 A 
ATOM     14  C16 <0> d          -0.961  -2.728  -3.458  0.00  0.00     0.024 A 
ATOM     15 Cl1  <0> d          -1.166  -5.214  -4.508  0.00  0.00    -0.084 Cl
ATOM     16  C15 <0> d          -0.828  -1.828  -2.422  0.00  0.00     0.015 A 
ENDBRANCH   8  10
ENDBRANCH   5   7
ENDBRANCH   1   5
BRANCH   1  17
ATOM     17  S1  <0> d          -0.090  -0.175   4.908  0.00  0.00    -0.078 SA
BRANCH  17  18
ATOM     18  C4  <0> d           0.003  -1.228   6.382  0.00  0.00     0.157 A 
ATOM     19  C7  <0> d           1.297  -2.012   6.396  0.00  0.00     0.246 A 
ATOM     20  N4  <0> d           2.005  -1.668   7.483  0.00  0.00    -0.251 N 
ATOM     21  O2  <0> d           1.637  -2.820   5.559  0.00  0.00    -0.271 OA
ATOM     22  C6  <0> d           1.417  -0.753   8.263  0.00  0.00     0.232 A 
ATOM     23  C5  <0> d           0.084  -0.367   7.659  0.00  0.00     0.129 A 
ATOM     24  O1  <0> d           1.879  -0.304   9.290  0.00  0.00    -0.273 OA
BRANCH  20  25
ATOM     25  C8  <0> d           3.258  -2.225   7.778  0.00  0.00     0.045 A 
ATOM     26  C13 <0> d           4.349  -1.952   6.964  0.00  0.00     0.033 A 
ATOM     27  C12 <0> d           5.584  -2.497   7.260  0.00  0.00     0.044 A 
ATOM     28  C11 <0> d           5.731  -3.323   8.361  0.00  0.00     0.116 A 
ATOM     29  C10 <0> d           4.643  -3.601   9.171  0.00  0.00     0.044 A 
ATOM     30  F1  <0> d           6.938  -3.859   8.646  0.00  0.00    -0.206 F 
ATOM     31  C9  <0> d           3.408  -3.054   8.882  0.00  0.00     0.033 A 
ENDBRANCH  20  25
ENDBRANCH  17  18
ENDBRANCH   1  17
TORSDOF 6
