REMARK  5 active torsions:
REMARK  status: ('A' for Active; 'I' for Inactive)
REMARK    1  A    between atoms: C6_6  and  O1_7 
REMARK    2  A    between atoms: O1_7  and  C7_8 
REMARK    3  A    between atoms: C10_11  and  C14_18 
REMARK    4  A    between atoms: C11_12  and  C13_14 
REMARK    5  A    between atoms: C14_18  and  N1_19 
ROOT
ATOM      1  C7  <0> d          -1.077  -1.966  -0.204  0.00  0.00     0.076 A 
ATOM      2  C8  <0> d          -0.005  -2.851  -0.188  0.00  0.00     0.038 A 
ATOM      3  C9  <0> d          -0.232  -4.208  -0.135  0.00  0.00     0.019 A 
ATOM      4  C10 <0> d          -1.540  -4.696  -0.099  0.00  0.00     0.022 A 
ATOM      5  C11 <0> d          -2.615  -3.804  -0.116  0.00  0.00     0.064 A 
ATOM      6  C12 <0> d          -2.381  -2.447  -0.163  0.00  0.00     0.054 A 
ENDROOT
BRANCH   1   7
ATOM      7  O1  <0> d          -0.851  -0.629  -0.255  0.00  0.00    -0.311 OA
BRANCH   7   8
ATOM      8  C6  <0> d          -0.476  -0.091  -1.446  0.00  0.00     0.076 A 
ATOM      9  C1  <0> d          -0.241  -0.914  -2.537  0.00  0.00     0.038 A 
ATOM     10  C2  <0> d           0.140  -0.364  -3.746  0.00  0.00     0.022 A 
ATOM     11  C3  <0> d           0.286   1.006  -3.869  0.00  0.00     0.011 A 
ATOM     12  C4  <0> d           0.052   1.829  -2.781  0.00  0.00     0.022 A 
ATOM     13 Br1  <0> d           0.808   1.755  -5.525  0.00  0.00    -0.051 Br
ATOM     14  C5  <0> d          -0.328   1.283  -1.571  0.00  0.00     0.038 A 
ENDBRANCH   7   8
ENDBRANCH   1   7
BRANCH   5  15
ATOM     15  C13 <0> d          -4.028  -4.325  -0.077  0.00  0.00     0.418 C 
ATOM     16  F1  <0> d          -4.917  -3.252   0.045  0.00  0.00    -0.166 F 
ATOM     17  F2  <0> d          -4.300  -5.024  -1.258  0.00  0.00    -0.166 F 
ATOM     18  F3  <0> d          -4.179  -5.182   1.018  0.00  0.00    -0.166 F 
ENDBRANCH   5  15
BRANCH   4  19
ATOM     19  C14 <0> d          -1.787  -6.151  -0.043  0.00  0.00     0.103 C 
ATOM     20  N2  <0> d          -1.293  -6.873   0.962  0.00  0.00    -0.385 N 
ATOM     21  H9  <0> d          -0.772  -6.442   1.658  0.00  0.00     0.157 HD
ATOM     22  H10 <0> d          -1.455  -7.829   0.999  0.00  0.00     0.157 HD
BRANCH  19  23
ATOM     23  N1  <0> d          -2.503  -6.743  -0.998  0.00  0.00    -0.385 N 
ATOM     24  H8  <0> d          -2.737  -7.681  -0.919  0.00  0.00     0.157 HD
ATOM     25  H11 <0> d          -2.792  -6.235  -1.773  0.00  0.00     0.157 HD
ENDBRANCH  19  23
ENDBRANCH   4  19
TORSDOF 5
