REMARK  4 active torsions:
REMARK  status: ('A' for Active; 'I' for Inactive)
REMARK    1  A    between atoms: C5_5  and  N1_9 
REMARK       I    between atoms: N1_9  and  C9_10 
REMARK    2  A    between atoms: C9_10  and  C10_12 
REMARK    3  A    between atoms: C10_12  and  N2_13 
REMARK    4  A    between atoms: N3_18  and  C15_21 
ROOT
ATOM      1  N2  <0> d          -0.238  -6.825  -2.570  0.00  0.00    -0.262 N 
ATOM      2  C11 <0> d           0.892  -7.190  -3.442  0.00  0.00     0.235 A 
ATOM      3  C12 <0> d           0.173  -7.611  -4.753  0.00  0.00     0.259 A 
ATOM      4  C13 <0> d           0.610  -6.556  -5.744  0.00  0.00     0.260 A 
ATOM      5  O2  <0> d           0.278  -6.510  -6.909  0.00  0.00    -0.270 OA
ATOM      6  N3  <0> d           1.420  -5.683  -5.136  0.00  0.00    -0.248 N 
ATOM      7  C14 <0> d           1.658  -5.944  -3.825  0.00  0.00     0.258 A 
ATOM      8  O3  <0> d           2.359  -5.295  -3.079  0.00  0.00    -0.270 OA
ATOM      9  N4  <0> d          -1.251  -7.452  -4.435  0.00  0.00    -0.157 NA
ATOM     10  N5  <0> d          -1.412  -7.030  -3.295  0.00  0.00    -0.074 NA
ENDROOT
BRANCH   1  11
ATOM     11  C10 <0> d          -0.146  -6.339  -1.191  0.00  0.00     0.250 C 
BRANCH  11  12
ATOM     12  C9  <0> d          -0.055  -4.835  -1.193  0.00  0.00     0.241 C 
ATOM     13  N1  <0> d           0.039  -4.164  -0.028  0.00  0.00    -0.325 N 
ATOM     14  H12 <0> d           0.113  -4.651   0.808  0.00  0.00     0.169 HD
ATOM     15  O1  <0> d          -0.067  -4.228  -2.243  0.00  0.00    -0.271 OA
BRANCH  13  16
ATOM     16  C5  <0> d           0.029  -2.764  -0.024  0.00  0.00     0.040 A 
ATOM     17  C4  <0> d           0.623  -2.062  -1.064  0.00  0.00     0.030 A 
ATOM     18  C3  <0> d           0.612  -0.681  -1.058  0.00  0.00     0.009 A 
ATOM     19  C2  <0> d           0.010   0.002  -0.016  0.00  0.00    -0.061 A 
ATOM     20  C1  <0> d          -0.001   1.509  -0.012  0.00  0.00     0.048 C 
ATOM     21  C7  <0> d          -0.577  -0.695   1.024  0.00  0.00     0.015 A 
ATOM     22  C6  <0> d          -0.574  -2.076   1.020  0.00  0.00    -0.035 A 
ATOM     23  C8  <0> d          -1.219  -2.835   2.151  0.00  0.00     0.050 C 
ENDBRANCH  13  16
ENDBRANCH  11  12
ENDBRANCH   1  11
BRANCH   6  24
ATOM     24  C15 <0> d           1.988  -4.585  -5.800  0.00  0.00     0.047 A 
ATOM     25  C20 <0> d           3.363  -4.514  -5.975  0.00  0.00     0.057 A 
ATOM     26  C19 <0> d           3.920  -3.434  -6.633  0.00  0.00     0.074 A 
ATOM     27  C18 <0> d           3.107  -2.418  -7.109  0.00  0.00     0.138 A 
ATOM     28 Cl1  <0> d           5.639  -3.348  -6.859  0.00  0.00    -0.081 Cl
ATOM     29  C17 <0> d           1.736  -2.485  -6.930  0.00  0.00     0.046 A 
ATOM     30  F1  <0> d           3.653  -1.360  -7.748  0.00  0.00    -0.204 F 
ATOM     31  C16 <0> d           1.175  -3.565  -6.277  0.00  0.00     0.033 A 
ENDBRANCH   6  24
TORSDOF 4
