REMARK  5 active torsions:
REMARK  status: ('A' for Active; 'I' for Inactive)
REMARK    1  A    between atoms: C3_3  and  S1_12 
REMARK    2  A    between atoms: C4_4  and  N2_10 
REMARK    3  A    between atoms: C6_6  and  N1_7 
REMARK    4  A    between atoms: N2_10  and  N3_11 
REMARK    5  A    between atoms: S1_12  and  N4_15 
ROOT
ATOM      1  C1  <0> d           0.907  -0.245   0.954  0.00  0.00     0.038 A 
ATOM      2  C2  <0> d           2.094   0.464   0.960  0.00  0.00     0.030 A 
ATOM      3  C3  <0> d           2.341   1.409  -0.017  0.00  0.00     0.107 A 
ATOM      4  C4  <0> d           1.394   1.646  -1.006  0.00  0.00     0.068 A 
ATOM      5  C5  <0> d           0.203   0.932  -1.009  0.00  0.00     0.068 A 
ATOM      6  C6  <0> d          -0.037  -0.012  -0.029  0.00  0.00     0.105 A 
ENDROOT
BRANCH   3   7
ATOM      7  S1  <0> d           3.853   2.313  -0.008  0.00  0.00     0.263 S 
ATOM      8  O3  <0> d           4.705   1.688  -0.958  0.00  0.00    -0.200 OA
ATOM      9  O4  <0> d           3.505   3.688  -0.085  0.00  0.00    -0.200 OA
BRANCH   7  10
ATOM     10  N4  <0> d           4.552   2.084   1.476  0.00  0.00    -0.305 N 
ATOM     11  C10 <0> d           5.553   1.031   1.649  0.00  0.00     0.148 C 
ATOM     12  C9  <0> d           6.914   1.674   1.964  0.00  0.00     0.129 C 
ATOM     13  S2  <0> d           6.737   2.708   3.450  0.00  0.00     0.018 S 
ATOM     14  C8  <0> d           5.345   3.800   3.030  0.00  0.00     0.129 C 
ATOM     15  O5  <0> d           7.913   3.486   3.627  0.00  0.00    -0.258 OA
ATOM     16  C7  <0> d           4.155   2.934   2.600  0.00  0.00     0.148 C 
ENDBRANCH   7  10
ENDBRANCH   3   7
BRANCH   4  17
ATOM     17  N2  <0> d           1.640   2.601  -1.995  0.00  0.00    -0.322 N 
ATOM     18  H4  <0> d           2.502   3.045  -2.037  0.00  0.00     0.180 HD
BRANCH  17  19
ATOM     19  N3  <0> d           0.667   2.911  -2.902  0.00  0.00    -0.249 NA
ATOM     20  H5  <0> d          -0.179   3.207  -2.439  0.00  0.00     0.143 HD
ATOM     21  H6  <0> d           0.988   3.613  -3.551  0.00  0.00     0.143 HD
ENDBRANCH  17  19
ENDBRANCH   4  17
BRANCH   6  22
ATOM     22  N1  <0> d          -1.306  -0.774  -0.031  0.00  0.00    -0.116 N 
ATOM     23  O1  <0> d          -1.516  -1.600   0.826  0.00  0.00    -0.532 OA
ATOM     24  O2  <0> d          -2.131  -0.570  -0.890  0.00  0.00    -0.532 OA
ENDBRANCH   6  22
TORSDOF 5
