REMARK  5 active torsions:
REMARK  status: ('A' for Active; 'I' for Inactive)
REMARK    1  A    between atoms: C8_8  and  C9_10 
REMARK       I    between atoms: C9_10  and  N1_12 
REMARK    2  A    between atoms: N1_12  and  C10_13 
REMARK    3  A    between atoms: C13_16  and  S2_19 
REMARK    4  A    between atoms: S2_19  and  N2_22 
REMARK    5  A    between atoms: N2_22  and  C16_23 
ROOT
ATOM      1  C10 <0> d           1.182   1.791   0.007  0.00  0.00     0.034 A 
ATOM      2  C11 <0> d          -0.013   1.084   0.012  0.00  0.00     0.031 A 
ATOM      3  C12 <0> d          -1.215   1.762   0.028  0.00  0.00     0.027 A 
ATOM      4  C13 <0> d          -1.230   3.145   0.050  0.00  0.00     0.082 A 
ATOM      5  C14 <0> d          -0.042   3.853   0.044  0.00  0.00     0.027 A 
ATOM      6  C15 <0> d           1.164   3.180   0.023  0.00  0.00     0.031 A 
ENDROOT
BRANCH   1   7
ATOM      7  N1  <0> d           2.402   1.106  -0.014  0.00  0.00    -0.326 N 
ATOM      8  C9  <0> d           3.450   1.617  -0.691  0.00  0.00     0.236 C 
ATOM      9  O1  <0> d           3.362   2.709  -1.211  0.00  0.00    -0.272 OA
ATOM     10  H8  <0> d           2.506   0.151   0.522  0.00  0.00     0.169 HD
BRANCH   8  11
ATOM     11  C8  <0> d           4.731   0.831  -0.801  0.00  0.00     0.149 C 
ATOM     12  C7  <0> d           5.477   1.150  -2.116  0.00  0.00     0.065 C 
ATOM     13  C5  <0> d           6.974   1.149  -1.926  0.00  0.00    -0.040 A 
ATOM     14  C4  <0> d           7.430   1.313  -0.621  0.00  0.00     0.007 A 
ATOM     15  C6  <0> d           7.940   1.002  -2.925  0.00  0.00     0.008 A 
ATOM     16  C3  <0> d           8.779   1.353  -0.318  0.00  0.00     0.019 A 
ATOM     17  S1  <0> d           5.985   1.419   0.412  0.00  0.00    -0.115 SA
ATOM     18  C2  <0> d           9.716   1.214  -1.324  0.00  0.00     0.001 A 
ATOM     19  C1  <0> d           9.283   1.034  -2.626  0.00  0.00     0.001 A 
ENDBRANCH   8  11
ENDBRANCH   1   7
BRANCH   4  20
ATOM     20  S2  <0> d          -2.767   4.007   0.076  0.00  0.00     0.298 S 
ATOM     21  O2  <0> d          -3.724   3.114   0.628  0.00  0.00    -0.198 OA
ATOM     22  O3  <0> d          -2.505   5.286   0.639  0.00  0.00    -0.198 OA
BRANCH  20  23
ATOM     23  N2  <0> d          -3.211   4.264  -1.498  0.00  0.00     0.034 NA
BRANCH  23  24
ATOM     24  C16 <0> d          -3.509   3.190  -2.317  0.00  0.00     0.759 A 
ATOM     25  N4  <0> d          -4.142   3.404  -3.461  0.00  0.00    -0.073 NA
ATOM     26  C19 <0> d          -4.441   2.399  -4.267  0.00  0.00     0.138 A 
ATOM     27  C18 <0> d          -4.084   1.110  -3.903  0.00  0.00     0.040 A 
ATOM     28  C17 <0> d          -3.422   0.922  -2.700  0.00  0.00     0.138 A 
ATOM     29  N3  <0> d          -3.148   1.971  -1.942  0.00  0.00    -0.073 NA
ENDBRANCH  23  24
ENDBRANCH  20  23
ENDBRANCH   4  20
TORSDOF 5
