REMARK  6 active torsions:
REMARK  status: ('A' for Active; 'I' for Inactive)
REMARK    1  A    between atoms: C2_2  and  C3_3 
REMARK    2  A    between atoms: C7_7  and  C8_9 
REMARK    3  A    between atoms: C9_10  and  C19_24 
REMARK    4  A    between atoms: C10_12  and  C11_14 
REMARK    5  A    between atoms: C11_14  and  N4_15 
REMARK    6  A    between atoms: N4_15  and  C12_16 
ROOT
ATOM      1  C12 <0> d           1.909   2.559  -9.687  0.00  0.00     0.028 A 
ATOM      2  C13 <0> d           1.794   1.753 -10.816  0.00  0.00     0.030 A 
ATOM      3  C14 <0> d           2.276   2.190 -12.028  0.00  0.00     0.025 A 
ATOM      4  C15 <0> d           2.883   3.446 -12.125  0.00  0.00     0.044 A 
ATOM      5  C16 <0> d           2.998   4.253 -10.989  0.00  0.00     0.025 A 
ATOM      6  C17 <0> d           2.508   3.812  -9.781  0.00  0.00     0.030 A 
ATOM      7  C18 <0> d           3.387   3.905 -13.385  0.00  0.00     0.099 C 
ATOM      8  N5  <0> d           3.787   4.268 -14.384  0.00  0.00    -0.191 NA
ENDROOT
BRANCH   1   9
ATOM      9  N4  <0> d           1.420   2.113  -8.462  0.00  0.00    -0.383 N 
ATOM     10  H13 <0> d           1.496   2.675  -7.676  0.00  0.00     0.160 HD
BRANCH   9  11
ATOM     11  C11 <0> d           0.790   0.794  -8.362  0.00  0.00     0.198 C 
BRANCH  11  12
ATOM     12  C10 <0> d           0.350   0.555  -6.940  0.00  0.00     0.123 A 
ATOM     13  N2  <0> d          -0.894   0.796  -6.454  0.00  0.00    -0.340 N 
ATOM     14  C9  <0> d          -0.887   0.449  -5.124  0.00  0.00     0.075 A 
ATOM     15  H25 <0> d          -1.648   1.147  -6.952  0.00  0.00     0.167 HD
ATOM     16  C8  <0> d           0.393  -0.000  -4.848  0.00  0.00     0.115 A 
ATOM     17  N3  <0> d           1.107   0.091  -5.986  0.00  0.00    -0.229 NA
BRANCH  14  18
ATOM     18  C19 <0> d          -2.018   0.536  -4.179  0.00  0.00    -0.009 C 
ATOM     19  C24 <0> d          -2.058   1.612  -3.162  0.00  0.00     0.012 C 
ATOM     20  C23 <0> d          -2.786   1.454  -2.058  0.00  0.00     0.003 C 
ATOM     21  C22 <0> d          -3.550   0.173  -1.887  0.00  0.00     0.167 C 
ATOM     22  C21 <0> d          -4.141  -0.238  -3.239  0.00  0.00     0.273 C 
ATOM     23  N6  <0> d          -4.618   0.289  -0.909  0.00  0.00    -0.292 NA
ATOM     24  C20 <0> d          -3.022  -0.368  -4.234  0.00  0.00     0.024 C 
ATOM     25  N7  <0> d          -4.865  -1.497  -3.038  0.00  0.00     0.098 N 
ATOM     26  C26 <0> d          -6.073  -1.206  -2.206  0.00  0.00     0.316 C 
ATOM     27  H24 <0> d          -5.132  -1.906  -3.921  0.00  0.00     0.317 HD
ATOM     28  C25 <0> d          -5.723  -0.325  -1.044  0.00  0.00     0.114 C 
ENDBRANCH  14  18
BRANCH  16  29
ATOM     29  C7  <0> d           0.888  -0.485  -3.540  0.00  0.00     0.088 A 
ATOM     30  C6  <0> d           1.972  -1.361  -3.492  0.00  0.00     0.034 A 
ATOM     31  C5  <0> d           2.424  -1.805  -2.262  0.00  0.00     0.004 A 
ATOM     32  C4  <0> d           1.777  -1.358  -1.118  0.00  0.00     0.027 A 
ATOM     33  C3  <0> d           0.707  -0.490  -1.238  0.00  0.00     0.035 A 
ATOM     34  N1  <0> d           0.293  -0.086  -2.421  0.00  0.00    -0.251 NA
BRANCH  33  35
ATOM     35  C2  <0> d           0.002  -0.004   0.002  0.00  0.00     0.055 C 
ATOM     36  C1  <0> d          -0.019   1.526   0.010  0.00  0.00     0.011 C 
ENDBRANCH  33  35
ENDBRANCH  16  29
ENDBRANCH  11  12
ENDBRANCH   9  11
ENDBRANCH   1   9
TORSDOF 6
