REMARK  7 active torsions:
REMARK  status: ('A' for Active; 'I' for Inactive)
REMARK    1  A    between atoms: C8_9  and  N4_20 
REMARK    2  A    between atoms: N2_10  and  C9_11 
REMARK    3  A    between atoms: C9_11  and  C10_12 
REMARK    4  A    between atoms: N4_20  and  C16_21 
REMARK    5  A    between atoms: N5_24  and  C21_27 
REMARK    6  A    between atoms: C21_27  and  C22_28 
REMARK    7  A    between atoms: C22_28  and  N6_29 
ROOT
ATOM      1  C1  <0> d          -0.018   1.503   0.010  0.00  0.00     0.050 C 
ATOM      2  C2  <0> d           0.002  -0.004   0.002  0.00  0.00    -0.032 A 
ATOM      3  C3  <0> d           0.006  -0.689  -1.193  0.00  0.00     0.009 A 
ATOM      4  C4  <0> d           0.024  -2.075  -1.210  0.00  0.00     0.003 A 
ATOM      5  C5  <0> d           0.039  -2.788  -0.029  0.00  0.00     0.032 A 
ATOM      6  C6  <0> d           0.036  -2.116   1.183  0.00  0.00     0.080 A 
ATOM      7  C7  <0> d           0.023  -0.711   1.206  0.00  0.00     0.082 A 
ATOM      8  N1  <0> d           0.030  -0.332   2.511  0.00  0.00    -0.189 N 
ATOM      9  C8  <0> d           0.052  -1.395   3.277  0.00  0.00     0.682 A 
ATOM     10  N2  <0> d           0.047  -2.522   2.508  0.00  0.00    -0.175 N 
ATOM     11  H38 <0> d           0.021   0.585   2.828  0.00  0.00     0.184 HD
ENDROOT
BRANCH   9  12
ATOM     12  N4  <0> d           0.066  -1.377   4.656  0.00  0.00    -0.221 N 
ATOM     13  H15 <0> d           0.082  -2.210   5.152  0.00  0.00     0.178 HD
BRANCH  12  14
ATOM     14  C16 <0> d           0.055  -0.099   5.372  0.00  0.00     0.102 C 
ATOM     15  C20 <0> d          -0.538  -0.299   6.770  0.00  0.00     0.053 C 
ATOM     16  C19 <0> d          -0.473   1.021   7.540  0.00  0.00     0.237 C 
ATOM     17  N5  <0> d           0.925   1.454   7.658  0.00  0.00    -0.069 N 
ATOM     18  C18 <0> d           1.479   1.718   6.324  0.00  0.00     0.237 C 
ATOM     19  H37 <0> d           1.464   0.730   8.108  0.00  0.00     0.279 HD
ATOM     20  C17 <0> d           1.488   0.424   5.507  0.00  0.00     0.053 C 
BRANCH  17  21
ATOM     21  C21 <0> d           0.989   2.680   8.465  0.00  0.00     0.265 C 
BRANCH  21  22
ATOM     22  C22 <0> d           0.529   2.377   9.892  0.00  0.00     0.300 C 
BRANCH  22  23
ATOM     23  N6  <0> d           0.594   3.603  10.698  0.00  0.00     0.094 N 
ATOM     24  C26 <0> d          -0.060   3.412  12.001  0.00  0.00     0.298 C 
ATOM     25  C25 <0> d          -0.022   4.727  12.783  0.00  0.00     0.198 C 
ATOM     26  O2  <0> d           1.335   5.158  12.916  0.00  0.00    -0.388 OA
ATOM     27  C24 <0> d           2.002   5.355  11.666  0.00  0.00     0.198 C 
ATOM     28  C23 <0> d           1.984   4.046  10.873  0.00  0.00     0.298 C 
ENDBRANCH  22  23
ENDBRANCH  21  22
ENDBRANCH  17  21
ENDBRANCH  12  14
ENDBRANCH   9  12
BRANCH  10  29
ATOM     29  C9  <0> d           0.067  -3.905   2.992  0.00  0.00     0.208 C 
BRANCH  29  30
ATOM     30  C10 <0> d           1.494  -4.361   3.152  0.00  0.00     0.065 A 
ATOM     31  C11 <0> d           2.211  -4.774   2.038  0.00  0.00     0.131 A 
ATOM     32  O1  <0> d           1.635  -4.771   0.807  0.00  0.00    -0.190 OA
ATOM     33  C12 <0> d           3.528  -5.193   2.200  0.00  0.00     0.044 A 
ATOM     34  C13 <0> d           4.071  -5.179   3.475  0.00  0.00     0.027 A 
ATOM     35  C14 <0> d           3.293  -4.754   4.535  0.00  0.00     0.005 A 
ATOM     36  N3  <0> d           2.050  -4.359   4.347  0.00  0.00    -0.360 N 
ATOM     37  C15 <0> d           3.877  -4.736   5.925  0.00  0.00     0.068 C 
ATOM     38  H14 <0> d           1.529  -4.061   5.109  0.00  0.00     0.165 HD
ENDBRANCH  29  30
ENDBRANCH  10  29
TORSDOF 7
