REMARK  4 active torsions:
REMARK  status: ('A' for Active; 'I' for Inactive)
REMARK    1  A    between atoms: C2_2  and  C3_3 
REMARK    2  A    between atoms: C4_6  and  N3_8 
REMARK       I    between atoms: N3_8  and  C5_9 
REMARK    3  A    between atoms: C5_9  and  C6_11 
REMARK    4  A    between atoms: C7_12  and  N5_24 
ROOT
ATOM      1  C6  <0> d          -0.650   9.391   1.412  0.00  0.00     0.102 A 
ATOM      2  C7  <0> d          -1.362  10.503   1.019  0.00  0.00     0.062 A 
ATOM      3  C8  <0> d          -0.826  11.816   1.344  0.00  0.00     0.028 A 
ATOM      4  C9  <0> d          -1.368  13.091   1.054  0.00  0.00     0.027 A 
ATOM      5  C10 <0> d          -0.687  14.224   1.450  0.00  0.00    -0.007 A 
ATOM      6  C11 <0> d           0.514  14.109   2.129  0.00  0.00     0.045 A 
ATOM      7  N4  <0> d           1.016  12.913   2.396  0.00  0.00    -0.245 NA
ATOM      8  C12 <0> d           0.405  11.807   2.037  0.00  0.00     0.111 A 
ATOM      9  S2  <0> d           0.778  10.081   2.225  0.00  0.00    -0.062 SA
ATOM     10  C13 <0> d           1.284  15.323   2.584  0.00  0.00     0.087 C 
ATOM     11  C14 <0> d           0.790  16.563   1.838  0.00  0.00     0.240 C 
ATOM     12  C15 <0> d          -1.284  15.567   1.117  0.00  0.00     0.275 C 
ATOM     13  C16 <0> d          -1.184  17.942   1.563  0.00  0.00     0.270 C 
ATOM     14  N6  <0> d          -0.682  16.610   1.965  0.00  0.00    -0.071 N 
ATOM     15  H19 <0> d          -0.941  16.437   2.943  0.00  0.00     0.279 HD
ENDROOT
BRANCH   1  16
ATOM     16  C5  <0> d          -0.972   8.026   1.213  0.00  0.00     0.267 C 
ATOM     17  N3  <0> d          -0.144   7.064   1.668  0.00  0.00    -0.299 N 
ATOM     18  H6  <0> d           0.672   7.307   2.131  0.00  0.00     0.171 HD
ATOM     19  O1  <0> d          -1.998   7.721   0.631  0.00  0.00    -0.267 OA
BRANCH  17  20
ATOM     20  C4  <0> d          -0.461   5.726   1.473  0.00  0.00     0.196 A 
ATOM     21  N2  <0> d          -1.508   5.175   0.875  0.00  0.00    -0.123 NA
ATOM     22  N1  <0> d          -1.640   3.924   0.783  0.00  0.00    -0.145 NA
ATOM     23  C3  <0> d          -0.749   3.086   1.275  0.00  0.00     0.100 A 
ATOM     24  S1  <0> d           0.426   4.249   1.962  0.00  0.00    -0.033 SA
BRANCH  23  25
ATOM     25  C2  <0> d          -0.729   1.579   1.267  0.00  0.00     0.064 C 
ATOM     26  C1  <0> d          -0.013   1.086   0.008  0.00  0.00     0.012 C 
ENDBRANCH  23  25
ENDBRANCH  17  20
ENDBRANCH   1  16
BRANCH   2  27
ATOM     27  N5  <0> d          -2.561  10.373   0.333  0.00  0.00    -0.397 N 
ATOM     28  H17 <0> d          -2.909   9.492   0.125  0.00  0.00     0.156 HD
ATOM     29  H18 <0> d          -3.052  11.165   0.061  0.00  0.00     0.156 HD
ENDBRANCH   2  27
TORSDOF 4
