REMARK  4 active torsions:
REMARK  status: ('A' for Active; 'I' for Inactive)
REMARK    1  A    between atoms: C2_2  and  N1_3 
REMARK    2  A    between atoms: N2_6  and  C7_9 
REMARK    3  A    between atoms: C7_9  and  C8_10 
REMARK    4  A    between atoms: C16_19  and  N3_20 
ROOT
ATOM      1  C8  <0> d          -4.907  -4.135  -0.919  0.00  0.00     0.073 C 
ATOM      2  C9  <0> d          -4.315  -4.636  -2.242  0.00  0.00     0.184 C 
ATOM      3  O1  <0> d          -4.214  -6.060  -2.179  0.00  0.00    -0.349 OA
ATOM      4  C10 <0> d          -5.307  -6.756  -1.773  0.00  0.00     0.083 A 
ATOM      5  C11 <0> d          -5.364  -8.120  -2.045  0.00  0.00    -0.022 A 
ATOM      6  C12 <0> d          -6.455  -8.863  -1.644  0.00  0.00    -0.053 A 
ATOM      7  C13 <0> d          -7.496  -8.252  -0.969  0.00  0.00     0.008 A 
ATOM      8  C14 <0> d          -7.444  -6.899  -0.699  0.00  0.00     0.012 A 
ATOM      9  C15 <0> d          -6.352  -6.147  -1.101  0.00  0.00     0.006 A 
ATOM     10  C16 <0> d          -6.336  -4.671  -0.796  0.00  0.00     0.227 C 
ATOM     11  C17 <0> d          -6.513 -10.339  -1.942  0.00  0.00     0.049 C 
ATOM     12  C18 <0> d          -4.231  -8.787  -2.781  0.00  0.00     0.052 C 
ENDROOT
BRANCH   1  13
ATOM     13  C7  <0> d          -4.928  -2.605  -0.910  0.00  0.00     0.281 C 
BRANCH  13  14
ATOM     14  N2  <0> d          -3.550  -2.096  -0.921  0.00  0.00     0.092 N 
ATOM     15  C4  <0> d          -3.526  -0.645  -1.151  0.00  0.00     0.302 C 
ATOM     16  C3  <0> d          -2.074  -0.169  -1.234  0.00  0.00     0.302 C 
ATOM     17  N1  <0> d          -1.376  -0.512   0.012  0.00  0.00     0.091 N 
ATOM     18  C6  <0> d          -1.400  -1.964   0.243  0.00  0.00     0.302 C 
ATOM     19  C5  <0> d          -2.852  -2.440   0.326  0.00  0.00     0.302 C 
BRANCH  17  20
ATOM     20  C2  <0> d           0.002  -0.004   0.002  0.00  0.00     0.268 C 
ATOM     21  C1  <0> d          -0.019   1.526   0.010  0.00  0.00     0.037 C 
ENDBRANCH  17  20
ENDBRANCH  13  14
ENDBRANCH   1  13
BRANCH  10  22
ATOM     22  N3  <0> d          -6.826  -4.447   0.570  0.00  0.00    -0.070 N 
ATOM     23  H22 <0> d          -6.819  -3.459   0.773  0.00  0.00     0.275 HD
ATOM     24  H29 <0> d          -7.768  -4.801   0.652  0.00  0.00     0.275 HD
ATOM     25  H30 <0> d          -6.229  -4.929   1.225  0.00  0.00     0.275 HD
ENDBRANCH  10  22
TORSDOF 4
