REMARK  3 active torsions:
REMARK  status: ('A' for Active; 'I' for Inactive)
REMARK    1  A    between atoms: C3_3  and  C5_6 
REMARK    2  A    between atoms: C7_8  and  C8_11 
REMARK    3  A    between atoms: C9_13  and  C10_16 
ROOT
ATOM      1  C8  <0> d           6.500  -0.474   1.186  0.00  0.00     0.285 A 
ATOM      2  N3  <0> d           7.859   0.088   1.211  0.00  0.00    -0.342 N 
ATOM      3  C9  <0> d           8.736  -0.983   1.178  0.00  0.00     0.170 A 
ATOM      4  N4  <0> d           8.096  -2.110   1.138  0.00  0.00    -0.112 NA
ATOM      5  O2  <0> d           6.694  -1.896   1.141  0.00  0.00    -0.226 OA
ATOM      6  H7  <0> d           8.096   1.028   1.244  0.00  0.00     0.164 HD
ENDROOT
BRANCH   1   7
ATOM      7  C7  <0> d           5.748   0.002  -0.058  0.00  0.00     0.207 A 
ATOM      8  C6  <0> d           4.318  -0.508  -0.048  0.00  0.00     0.042 A 
ATOM      9  C5  <0> d           3.574   0.619  -0.029  0.00  0.00     0.111 A 
ATOM     10  N2  <0> d           4.377   1.716  -0.033  0.00  0.00    -0.152 NA
ATOM     11  N1  <0> d           5.584   1.465  -0.043  0.00  0.00    -0.178 NA
BRANCH   9  12
ATOM     12  C3  <0> d           2.097   0.654  -0.014  0.00  0.00     0.105 A 
ATOM     13  C2  <0> d           1.325   1.774  -0.001  0.00  0.00     0.041 A 
ATOM     14  C1  <0> d          -0.016   1.343   0.009  0.00  0.00     0.027 A 
ATOM     15  C4  <0> d           0.002  -0.004   0.002  0.00  0.00     0.142 A 
ATOM     16  O1  <0> d           1.280  -0.417  -0.012  0.00  0.00    -0.320 OA
ENDBRANCH   9  12
ENDBRANCH   1   7
BRANCH   3  17
ATOM     17  C10 <0> d          10.203  -0.859   1.188  0.00  0.00     0.052 A 
ATOM     18  S1  <0> d          11.207   0.616   1.240  0.00  0.00    -0.098 SA
ATOM     19  C13 <0> d          12.810  -0.169   1.223  0.00  0.00     0.050 A 
ATOM     20  C12 <0> d          12.481  -1.487   1.171  0.00  0.00     0.009 A 
ATOM     21  C11 <0> d          11.154  -1.847   1.153  0.00  0.00     0.023 A 
ENDBRANCH   3  17
TORSDOF 3
