REMARK  7 active torsions:
REMARK  status: ('A' for Active; 'I' for Inactive)
REMARK    1  A    between atoms: C2_2  and  O1_3 
REMARK    2  A    between atoms: O1_3  and  C3_4 
REMARK    3  A    between atoms: N1_8  and  C8_10 
REMARK    4  A    between atoms: C8_10  and  C9_11 
REMARK    5  A    between atoms: C13_15  and  C15_17 
REMARK    6  A    between atoms: C15_17  and  N3_20 
REMARK    7  A    between atoms: N2_18  and  O2_19 
ROOT
ATOM      1  C9  <0> d          -4.051  -5.720  -1.578  0.00  0.00    -0.032 A 
ATOM      2  C10 <0> d          -3.444  -6.340  -2.656  0.00  0.00     0.009 A 
ATOM      3  C11 <0> d          -3.470  -7.718  -2.773  0.00  0.00     0.002 A 
ATOM      4  C12 <0> d          -4.104  -8.482  -1.815  0.00  0.00     0.015 A 
ATOM      5  C13 <0> d          -4.717  -7.864  -0.726  0.00  0.00     0.012 A 
ATOM      6  C14 <0> d          -4.683  -6.474  -0.610  0.00  0.00     0.024 A 
ENDROOT
BRANCH   1   7
ATOM      7  C8  <0> d          -4.018  -4.218  -1.458  0.00  0.00     0.273 C 
BRANCH   7   8
ATOM      8  N1  <0> d          -2.820  -3.813  -0.709  0.00  0.00    -0.065 N 
ATOM      9  C6  <0> d          -2.914  -4.312   0.668  0.00  0.00     0.235 C 
ATOM     10  C5  <0> d          -1.633  -3.963   1.429  0.00  0.00     0.030 C 
ATOM     11  C4  <0> d          -1.454  -2.442   1.446  0.00  0.00     0.035 C 
ATOM     12  C3  <0> d          -1.432  -1.925   0.005  0.00  0.00     0.147 C 
ATOM     13  C7  <0> d          -2.720  -2.349  -0.704  0.00  0.00     0.267 C 
ATOM     14  H24 <0> d          -2.002  -4.203  -1.152  0.00  0.00     0.280 HD
BRANCH  12  15
ATOM     15  O1  <0> d          -1.339  -0.499   0.012  0.00  0.00    -0.385 OA
BRANCH  15  16
ATOM     16  C2  <0> d           0.002  -0.004   0.002  0.00  0.00     0.163 C 
ATOM     17  C1  <0> d          -0.019   1.526   0.010  0.00  0.00     0.033 C 
ENDBRANCH  15  16
ENDBRANCH  12  15
ENDBRANCH   7   8
ENDBRANCH   1   7
BRANCH   5  18
ATOM     18  C15 <0> d          -5.398  -8.678   0.305  0.00  0.00     0.158 C 
ATOM     19  N2  <0> d          -5.970  -8.098   1.320  0.00  0.00    -0.118 NA
BRANCH  19  20
ATOM     20  O2  <0> d          -6.621  -8.878   2.306  0.00  0.00    -0.264 OA
ATOM     21  H21 <0> d          -7.016  -8.359   3.020  0.00  0.00     0.247 HD
ENDBRANCH  19  20
BRANCH  18  22
ATOM     22  N3  <0> d          -5.427 -10.058   0.191  0.00  0.00    -0.382 N 
ATOM     23  H22 <0> d          -5.000 -10.491  -0.566  0.00  0.00     0.157 HD
ATOM     24  H23 <0> d          -5.873 -10.592   0.867  0.00  0.00     0.157 HD
ENDBRANCH  18  22
ENDBRANCH   5  18
TORSDOF 7
