REMARK  4 active torsions:
REMARK  status: ('A' for Active; 'I' for Inactive)
REMARK    1  A    between atoms: C5_5  and  C7_8 
REMARK    2  A    between atoms: C7_8  and  N2_10 
REMARK    3  A    between atoms: N2_10  and  C9_11 
REMARK    4  A    between atoms: C12_15  and  C13_17 
ROOT
ATOM      1  C9  <0> d           1.549  -5.916   1.090  0.00  0.00     0.723 A 
ATOM      2  N3  <0> d           1.295  -6.702   0.054  0.00  0.00    -0.075 NA
ATOM      3  C10 <0> d           1.840  -7.905  -0.040  0.00  0.00     0.139 A 
ATOM      4  C11 <0> d           2.688  -8.343   0.961  0.00  0.00     0.053 A 
ATOM      5  C12 <0> d           2.938  -7.492   2.042  0.00  0.00     0.090 A 
ATOM      6  N4  <0> d           2.359  -6.294   2.067  0.00  0.00    -0.062 NA
ENDROOT
BRANCH   1   7
ATOM      7  N2  <0> d           0.958  -4.666   1.149  0.00  0.00    -0.214 N 
ATOM      8  H11 <0> d           1.139  -4.079   1.899  0.00  0.00     0.178 HD
BRANCH   7   9
ATOM      9  C7  <0> d           0.059  -4.229   0.077  0.00  0.00     0.130 C 
ATOM     10  C8  <0> d          -1.353  -4.748   0.354  0.00  0.00     0.038 C 
BRANCH   9  11
ATOM     11  C5  <0> d           0.039  -2.724   0.021  0.00  0.00    -0.018 A 
ATOM     12  C4  <0> d           0.024  -2.067  -1.200  0.00  0.00     0.012 A 
ATOM     13  C3  <0> d           0.005  -0.681  -1.203  0.00  0.00     0.027 A 
ATOM     14  C2  <0> d           0.002  -0.004   0.002  0.00  0.00     0.030 A 
ATOM     15  C1  <0> d          -0.018   1.503   0.010  0.00  0.00     0.070 C 
ATOM     16  N1  <0> d           0.022  -0.662   1.145  0.00  0.00    -0.265 NA
ATOM     17  C6  <0> d           0.035  -1.980   1.186  0.00  0.00     0.126 A 
ENDBRANCH   9  11
ENDBRANCH   7   9
ENDBRANCH   1   7
BRANCH   5  18
ATOM     18  C13 <0> d           3.840  -7.915   3.139  0.00  0.00     0.030 A 
ATOM     19  C15 <0> d           4.165  -7.182   4.245  0.00  0.00     0.127 A 
ATOM     20  N6  <0> d           5.003  -7.924   4.994  0.00  0.00    -0.285 N 
ATOM     21  N5  <0> d           5.214  -9.143   4.338  0.00  0.00    -0.185 NA
ATOM     22  C16 <0> d           5.596  -7.523   6.271  0.00  0.00     0.179 C 
ATOM     23  C14 <0> d           4.522  -9.145   3.230  0.00  0.00     0.154 A 
ENDBRANCH   5  18
TORSDOF 4
