REMARK  5 active torsions:
REMARK  status: ('A' for Active; 'I' for Inactive)
REMARK    1  A    between atoms: C5_5  and  S1_8 
REMARK    2  A    between atoms: S1_8  and  N1_11 
REMARK    3  A    between atoms: N1_11  and  C8_12 
REMARK    4  A    between atoms: C10_15  and  N3_17 
REMARK       I    between atoms: N3_17  and  C11_18 
REMARK       I    between atoms: C11_18  and  N4_20 
REMARK    5  A    between atoms: N4_20  and  C12_21 
ROOT
ATOM      1  C8  <0> d           4.475  -0.436  -0.043  0.00  0.00     0.182 A 
ATOM      2  N2  <0> d           4.658   0.872  -0.037  0.00  0.00    -0.226 NA
ATOM      3  C9  <0> d           3.635   1.707  -0.029  0.00  0.00     0.067 A 
ATOM      4  C10 <0> d           2.366   1.218  -0.014  0.00  0.00     0.106 A 
ATOM      5  S2  <0> d           2.691  -0.541  -0.027  0.00  0.00    -0.032 SA
ATOM      6  C15 <0> d           3.872   3.196  -0.031  0.00  0.00     0.074 C 
ENDROOT
BRANCH   1   7
ATOM      7  N1  <0> d           5.416  -1.457  -0.058  0.00  0.00    -0.258 N 
ATOM      8  H8  <0> d           6.363  -1.244  -0.066  0.00  0.00     0.181 HD
BRANCH   7   9
ATOM      9  S1  <0> d           4.924  -3.038  -0.062  0.00  0.00     0.264 S 
ATOM     10  O1  <0> d           6.102  -3.830  -0.104  0.00  0.00    -0.200 OA
ATOM     11  O2  <0> d           3.957  -3.164   0.973  0.00  0.00    -0.200 OA
BRANCH   9  12
ATOM     12  C5  <0> d           4.075  -3.315  -1.581  0.00  0.00     0.080 A 
ATOM     13  C4  <0> d           4.773  -3.744  -2.694  0.00  0.00     0.026 A 
ATOM     14  C3  <0> d           4.107  -3.962  -3.886  0.00  0.00     0.008 A 
ATOM     15  C2  <0> d           2.743  -3.751  -3.964  0.00  0.00    -0.062 A 
ATOM     16  C1  <0> d           2.017  -3.988  -5.263  0.00  0.00     0.048 C 
ATOM     17  C7  <0> d           2.045  -3.323  -2.850  0.00  0.00     0.008 A 
ATOM     18  C6  <0> d           2.710  -3.109  -1.657  0.00  0.00     0.026 A 
ENDBRANCH   9  12
ENDBRANCH   7   9
ENDBRANCH   1   7
BRANCH   4  19
ATOM     19  N3  <0> d           1.143   1.902   0.001  0.00  0.00    -0.301 N 
ATOM     20  C11 <0> d          -0.014   1.212   0.009  0.00  0.00     0.322 C 
ATOM     21  O3  <0> d           0.002  -0.004   0.002  0.00  0.00    -0.247 OA
ATOM     22  N4  <0> d          -1.191   1.870   0.018  0.00  0.00    -0.329 N 
ATOM     23  H10 <0> d          -1.204   2.840   0.023  0.00  0.00     0.165 HD
ATOM     24  H9  <0> d           1.130   2.872   0.007  0.00  0.00     0.171 HD
BRANCH  22  25
ATOM     25  C12 <0> d          -2.449   1.120   0.020  0.00  0.00     0.171 A 
ATOM     26  C14 <0> d          -3.576   1.968   0.578  0.00  0.00     0.144 A 
ATOM     27  N6  <0> d          -4.437   2.085  -0.378  0.00  0.00    -0.165 NA
ATOM     28  N5  <0> d          -4.042   1.419  -1.534  0.00  0.00    -0.165 NA
ATOM     29  C13 <0> d          -2.898   0.826  -1.398  0.00  0.00     0.144 A 
ENDBRANCH  22  25
ENDBRANCH   4  19
TORSDOF 5
