REMARK  4 active torsions:
REMARK  status: ('A' for Active; 'I' for Inactive)
REMARK    1  A    between atoms: N1_2  and  C3_4 
REMARK    2  A    between atoms: C3_4  and  C4_5 
REMARK    3  A    between atoms: C7_8  and  N2_11 
REMARK       I    between atoms: N2_11  and  C10_12 
REMARK    4  A    between atoms: C10_12  and  C11_14 
ROOT
ATOM      1  N2  <0> d          -1.311  -6.163  -0.485  0.00  0.00    -0.323 N 
ATOM      2  C10 <0> d          -1.759  -6.933   0.526  0.00  0.00     0.256 C 
ATOM      3  O1  <0> d          -2.261  -6.418   1.506  0.00  0.00    -0.267 OA
ATOM      4  H14 <0> d          -0.982  -6.574  -1.299  0.00  0.00     0.169 HD
ENDROOT
BRANCH   2   5
ATOM      5  C11 <0> d          -1.641  -8.407   0.443  0.00  0.00     0.034 A 
ATOM      6  C16 <0> d          -2.104  -9.193   1.485  0.00  0.00     0.049 A 
ATOM      7  C15 <0> d          -1.993 -10.588   1.399  0.00  0.00     0.075 A 
ATOM      8  C14 <0> d          -1.399 -11.168   0.247  0.00  0.00     0.047 A 
ATOM      9  N3  <0> d          -2.431 -11.388   2.381  0.00  0.00    -0.220 NA
ATOM     10  C13 <0> d          -0.935 -10.347  -0.790  0.00  0.00     0.019 A 
ATOM     11  C18 <0> d          -1.292 -12.574   0.181  0.00  0.00     0.193 A 
ATOM     12  C12 <0> d          -1.055  -8.994  -0.690  0.00  0.00     0.018 A 
ATOM     13  N4  <0> d          -1.761 -13.301   1.218  0.00  0.00    -0.309 N 
ATOM     14  O2  <0> d          -0.738 -13.174  -0.887  0.00  0.00    -0.171 OA
ATOM     15  C17 <0> d          -2.315 -12.703   2.286  0.00  0.00     0.200 A 
ATOM     16  H1  <0> d          -1.696 -14.269   1.192  0.00  0.00     0.170 HD
ATOM     17  S1  <0> d          -2.891 -13.678   3.570  0.00  0.00    -0.038 SA
ENDBRANCH   2   5
BRANCH   1  18
ATOM     18  C7  <0> d          -1.321  -4.770  -0.360  0.00  0.00     0.035 A 
ATOM     19  C6  <0> d          -1.545  -3.973  -1.475  0.00  0.00     0.030 A 
ATOM     20  C5  <0> d          -1.555  -2.598  -1.348  0.00  0.00     0.011 A 
ATOM     21  C4  <0> d          -1.342  -2.014  -0.113  0.00  0.00    -0.033 A 
ATOM     22  C9  <0> d          -1.113  -2.805   0.999  0.00  0.00     0.011 A 
ATOM     23  C8  <0> d          -1.108  -4.181   0.880  0.00  0.00     0.030 A 
BRANCH  21  24
ATOM     24  C3  <0> d          -1.353  -0.513   0.022  0.00  0.00     0.272 C 
BRANCH  24  25
ATOM     25  N1  <0> d           0.004   0.008  -0.190  0.00  0.00    -0.075 N 
ATOM     26  C1  <0> d          -0.028   1.476  -0.178  0.00  0.00     0.269 C 
ATOM     27  C2  <0> d           0.886  -0.472   0.882  0.00  0.00     0.269 C 
ATOM     28  H18 <0> d           0.352  -0.314  -1.081  0.00  0.00     0.279 HD
ENDBRANCH  24  25
ENDBRANCH  21  24
ENDBRANCH   1  18
TORSDOF 4
