REMARK  3 active torsions:
REMARK  status: ('A' for Active; 'I' for Inactive)
REMARK    1  A    between atoms: C4_4  and  C13_15 
REMARK    2  A    between atoms: N1_6  and  C6_7 
REMARK    3  A    between atoms: C11_12  and  O1_13 
ROOT
ATOM      1  C1  <0> d          -0.144  -7.550   0.362  0.00  0.00     0.068 C 
ATOM      2  C2  <0> d          -0.104  -6.376   1.307  0.00  0.00     0.014 A 
ATOM      3  C3  <0> d          -0.021  -5.087   0.941  0.00  0.00     0.038 A 
ATOM      4  C4  <0> d          -0.013  -4.302   2.185  0.00  0.00    -0.010 A 
ATOM      5  C5  <0> d          -0.090  -5.227   3.216  0.00  0.00     0.023 A 
ATOM      6  N1  <0> d          -0.149  -6.456   2.671  0.00  0.00    -0.317 N 
ATOM      7  C12 <0> d          -0.107  -4.910   4.690  0.00  0.00     0.069 C 
ENDROOT
BRANCH   4   8
ATOM      8  C13 <0> d           0.063  -2.894   2.305  0.00  0.00     0.036 C 
ATOM      9  C14 <0> d           0.976  -2.182   1.544  0.00  0.00     0.101 A 
ATOM     10  C17 <0> d           0.956  -0.709   1.496  0.00  0.00     0.267 A 
ATOM     11  C15 <0> d           2.012  -2.865   0.747  0.00  0.00     0.267 A 
ATOM     12  N3  <0> d           1.876  -0.083   0.734  0.00  0.00    -0.270 N 
ATOM     13  O4  <0> d           0.131  -0.074   2.127  0.00  0.00    -0.267 OA
ATOM     14  C16 <0> d           2.787  -0.769   0.030  0.00  0.00     0.333 A 
ATOM     15  C18 <0> d           1.876   1.381   0.669  0.00  0.00     0.164 C 
ATOM     16  N2  <0> d           2.868  -2.107   0.030  0.00  0.00    -0.270 N 
ATOM     17  O3  <0> d           3.586  -0.145  -0.641  0.00  0.00    -0.246 OA
ATOM     18  C19 <0> d           3.906  -2.762  -0.770  0.00  0.00     0.164 C 
ATOM     19  O2  <0> d           2.093  -4.079   0.736  0.00  0.00    -0.267 OA
ENDBRANCH   4   8
BRANCH   6  20
ATOM     20  C6  <0> d          -0.238  -7.651   3.401  0.00  0.00     0.072 A 
ATOM     21  C11 <0> d          -1.484  -8.175   3.733  0.00  0.00     0.092 A 
ATOM     22  C10 <0> d          -1.566  -9.358   4.450  0.00  0.00     0.039 A 
ATOM     23  C9  <0> d          -0.411 -10.010   4.841  0.00  0.00     0.003 A 
ATOM     24  C8  <0> d           0.827  -9.487   4.516  0.00  0.00     0.002 A 
ATOM     25  C7  <0> d           0.916  -8.310   3.797  0.00  0.00     0.033 A 
BRANCH  21  26
ATOM     26  O1  <0> d          -2.619  -7.530   3.353  0.00  0.00    -0.358 OA
ATOM     27  H9  <0> d          -2.955  -7.803   2.488  0.00  0.00     0.217 HD
ENDBRANCH  21  26
ENDBRANCH   6  20
TORSDOF 3
