REMARK  4 active torsions:
REMARK  status: ('A' for Active; 'I' for Inactive)
REMARK    1  A    between atoms: C3_3  and  C10_15 
REMARK    2  A    between atoms: N1_5  and  C5_7 
REMARK    3  A    between atoms: N4_25  and  C18_26 
REMARK    4  A    between atoms: C18_26  and  C19_27 
ROOT
ATOM      1  C10 <0> d           1.248   0.989   5.503  0.00  0.00     0.226 C 
ATOM      2  N3  <0> d           1.749   2.326   5.162  0.00  0.00    -0.364 N 
ATOM      3  C11 <0> d           2.833   2.433   4.303  0.00  0.00     0.045 A 
ATOM      4  C12 <0> d           3.001   3.522   3.466  0.00  0.00     0.030 A 
ATOM      5  C13 <0> d           4.095   3.573   2.623  0.00  0.00     0.002 A 
ATOM      6  C14 <0> d           5.023   2.544   2.610  0.00  0.00     0.001 A 
ATOM      7  C15 <0> d           4.871   1.452   3.439  0.00  0.00     0.019 A 
ATOM      8  C16 <0> d           3.774   1.389   4.295  0.00  0.00     0.058 A 
ATOM      9  C17 <0> d           3.564   0.248   5.204  0.00  0.00     0.258 C 
ATOM     10  O3  <0> d           4.462  -0.545   5.413  0.00  0.00    -0.267 OA
ATOM     11  N4  <0> d           2.364   0.093   5.802  0.00  0.00    -0.318 N 
ATOM     12  H15 <0> d           1.330   3.120   5.529  0.00  0.00     0.162 HD
ENDROOT
BRANCH   1  13
ATOM     13  C3  <0> d           0.465   0.438   4.338  0.00  0.00     0.034 A 
ATOM     14  C2  <0> d           0.940  -0.462   3.379  0.00  0.00     0.063 A 
ATOM     15  C1  <0> d           2.326  -1.052   3.331  0.00  0.00     0.073 C 
ATOM     16  N2  <0> d          -0.027  -0.705   2.532  0.00  0.00    -0.176 NA
ATOM     17  N1  <0> d          -1.150   0.035   2.926  0.00  0.00    -0.268 N 
ATOM     18  C4  <0> d          -0.821   0.732   4.033  0.00  0.00     0.039 A 
ATOM     19  C9  <0> d          -1.723   1.668   4.795  0.00  0.00     0.071 C 
BRANCH  17  20
ATOM     20  C5  <0> d          -2.450   0.053   2.251  0.00  0.00     0.125 C 
ATOM     21  C8  <0> d          -3.034  -1.386   2.201  0.00  0.00     0.167 C 
ATOM     22  S1  <0> d          -4.265  -1.203   0.842  0.00  0.00     0.146 S 
ATOM     23  C7  <0> d          -3.567   0.274  -0.004  0.00  0.00     0.142 C 
ATOM     24  O1  <0> d          -5.525  -0.863   1.403  0.00  0.00    -0.228 OA
ATOM     25  O2  <0> d          -4.165  -2.323  -0.026  0.00  0.00    -0.228 OA
ATOM     26  C6  <0> d          -2.278   0.552   0.806  0.00  0.00     0.043 C 
ENDBRANCH  17  20
ENDBRANCH   1  13
BRANCH  11  27
ATOM     27  C18 <0> d           2.177  -0.992   6.768  0.00  0.00     0.167 C 
BRANCH  27  28
ATOM     28  C19 <0> d           1.587  -2.190   6.069  0.00  0.00    -0.037 A 
ATOM     29  C24 <0> d           0.220  -2.279   5.888  0.00  0.00     0.048 A 
ATOM     30  C23 <0> d          -0.324  -3.378   5.242  0.00  0.00     0.105 A 
ATOM     31  C22 <0> d           0.510  -4.396   4.786  0.00  0.00     0.105 A 
ATOM     32  O4  <0> d          -1.614  -3.701   4.937  0.00  0.00    -0.323 OA
ATOM     33  C21 <0> d           1.879  -4.303   4.976  0.00  0.00     0.040 A 
ATOM     34  O5  <0> d          -0.258  -5.358   4.196  0.00  0.00    -0.323 OA
ATOM     35  C20 <0> d           2.415  -3.201   5.617  0.00  0.00     0.012 A 
ATOM     36  C25 <0> d          -1.526  -4.728   3.932  0.00  0.00     0.352 C 
ENDBRANCH  27  28
ENDBRANCH  11  27
TORSDOF 4
