REMARK  7 active torsions:
REMARK  status: ('A' for Active; 'I' for Inactive)
REMARK    1  A    between atoms: C2_2  and  O1_3 
REMARK    2  A    between atoms: O1_3  and  C3_4 
REMARK    3  A    between atoms: C6_7  and  O2_10 
REMARK    4  A    between atoms: O2_10  and  C9_11 
REMARK    5  A    between atoms: C9_11  and  C10_12 
REMARK    6  A    between atoms: C9_11  and  C14_18 
REMARK    7  A    between atoms: C14_18  and  N1_20 
ROOT
ATOM      1  C9  <0> d          -3.319  -6.444   0.104  0.00  0.00     0.198 C 
ENDROOT
BRANCH   1   2
ATOM      2  O2  <0> d          -1.984  -5.949  -0.011  0.00  0.00    -0.339 OA
BRANCH   2   3
ATOM      3  C6  <0> d          -1.836  -4.609  -0.197  0.00  0.00     0.070 A 
ATOM      4  C5  <0> d          -2.955  -3.798  -0.314  0.00  0.00     0.039 A 
ATOM      5  C4  <0> d          -2.805  -2.438  -0.501  0.00  0.00     0.039 A 
ATOM      6  C3  <0> d          -1.536  -1.883  -0.571  0.00  0.00     0.068 A 
ATOM      7  C8  <0> d          -0.417  -2.695  -0.459  0.00  0.00     0.039 A 
ATOM      8  C7  <0> d          -0.567  -4.055  -0.268  0.00  0.00     0.039 A 
BRANCH   6   9
ATOM      9  O1  <0> d          -1.389  -0.544  -0.756  0.00  0.00    -0.352 OA
BRANCH   9  10
ATOM     10  C2  <0> d          -2.584   0.232  -0.863  0.00  0.00     0.171 C 
ATOM     11  C1  <0> d          -2.220   1.704  -1.065  0.00  0.00     0.034 C 
ENDBRANCH   9  10
ENDBRANCH   6   9
ENDBRANCH   2   3
ENDBRANCH   1   2
BRANCH   1  12
ATOM     12  C10 <0> d          -3.400  -7.817  -0.513  0.00  0.00     0.015 A 
ATOM     13  S1  <0> d          -2.224  -9.157  -0.432  0.00  0.00    -0.085 SA
ATOM     14  C13 <0> d          -3.126 -10.344  -1.415  0.00  0.00     0.051 A 
ATOM     15  C12 <0> d          -4.243  -9.646  -1.741  0.00  0.00     0.028 A 
ATOM     16 Br1  <0> d          -2.646 -12.111  -1.886  0.00  0.00    -0.043 Br
ATOM     17  C11 <0> d          -4.383  -8.351  -1.279  0.00  0.00     0.019 A 
ENDBRANCH   1  12
BRANCH   1  18
ATOM     18  C14 <0> d          -3.707  -6.526   1.582  0.00  0.00     0.213 C 
ATOM     19  C15 <0> d          -3.624  -5.133   2.209  0.00  0.00     0.043 C 
BRANCH  18  20
ATOM     20  N1  <0> d          -5.079  -7.036   1.701  0.00  0.00    -0.073 N 
ATOM     21  H17 <0> d          -5.134  -7.955   1.288  0.00  0.00     0.274 HD
ATOM     22  H18 <0> d          -5.335  -7.090   2.675  0.00  0.00     0.274 HD
ATOM     23  H19 <0> d          -5.712  -6.413   1.221  0.00  0.00     0.274 HD
ENDBRANCH  18  20
ENDBRANCH   1  18
TORSDOF 7
