REMARK  7 active torsions:
REMARK  status: ('A' for Active; 'I' for Inactive)
REMARK    1  A    between atoms: C2_2  and  C3_3 
REMARK    2  A    between atoms: C3_3  and  C4_4 
REMARK    3  A    between atoms: C3_3  and  N5_20 
REMARK    4  A    between atoms: C4_4  and  C5_5 
REMARK    5  A    between atoms: C4_4  and  N3_11 
REMARK    6  A    between atoms: N3_11  and  C10_13 
REMARK    7  A    between atoms: C10_13  and  C11_14 
ROOT
ATOM      1  C4  <0> d          -1.416  -2.058  -0.121  0.00  0.00     0.256 C 
ENDROOT
BRANCH   1   2
ATOM      2  C3  <0> d          -1.433  -0.534   0.013  0.00  0.00     0.253 C 
BRANCH   2   3
ATOM      3  C2  <0> d           0.002  -0.004   0.002  0.00  0.00     0.033 C 
ATOM      4  C1  <0> d          -0.019   1.526   0.010  0.00  0.00     0.007 C 
ENDBRANCH   2   3
BRANCH   2   5
ATOM      5  N5  <0> d          -2.083  -0.161   1.276  0.00  0.00     0.085 N 
ATOM      6  H22 <0> d          -1.589  -0.549   2.066  0.00  0.00     0.313 HD
ATOM      7  H23 <0> d          -2.165   0.842   1.359  0.00  0.00     0.313 HD
ENDBRANCH   2   5
ENDBRANCH   1   2
BRANCH   1   8
ATOM      8  C5  <0> d          -0.759  -2.661   1.093  0.00  0.00     0.011 A 
ATOM      9  C7  <0> d          -1.397  -3.208   2.154  0.00  0.00     0.122 A 
ATOM     10  N2  <0> d          -0.457  -3.636   3.023  0.00  0.00    -0.285 N 
ATOM     11  N1  <0> d           0.800  -3.333   2.483  0.00  0.00    -0.185 NA
ATOM     12  C8  <0> d          -0.707  -4.294   4.308  0.00  0.00     0.179 C 
ATOM     13  C6  <0> d           0.618  -2.750   1.326  0.00  0.00     0.149 A 
ENDBRANCH   1   8
BRANCH   1  14
ATOM     14  N3  <0> d          -0.661  -2.435  -1.324  0.00  0.00    -0.059 N 
ATOM     15  C9  <0> d          -0.644  -3.898  -1.453  0.00  0.00     0.271 C 
ATOM     16  H24 <0> d           0.285  -2.093  -1.248  0.00  0.00     0.280 HD
BRANCH  14  17
ATOM     17  C10 <0> d          -1.302  -1.846  -2.508  0.00  0.00     0.294 C 
BRANCH  17  18
ATOM     18  C11 <0> d          -0.461  -2.130  -3.727  0.00  0.00     0.067 A 
ATOM     19  N4  <0> d           0.552  -1.355  -4.060  0.00  0.00    -0.249 NA
ATOM     20  C13 <0> d           1.283  -1.607  -5.117  0.00  0.00     0.071 A 
ATOM     21  S1  <0> d           0.572  -2.993  -5.754  0.00  0.00    -0.085 SA
ATOM     22  C14 <0> d           2.469  -0.839  -5.640  0.00  0.00     0.078 C 
ATOM     23  C12 <0> d          -0.716  -3.191  -4.534  0.00  0.00     0.080 A 
ENDBRANCH  17  18
ENDBRANCH  14  17
ENDBRANCH   1  14
TORSDOF 7
