REMARK  4 active torsions:
REMARK  status: ('A' for Active; 'I' for Inactive)
REMARK    1  A    between atoms: C3_4  and  C9_16 
REMARK    2  A    between atoms: C4_5  and  S1_7 
REMARK    3  A    between atoms: S1_7  and  N3_10 
REMARK       I    between atoms: C9_16  and  N4_18 
REMARK    4  A    between atoms: N4_18  and  C10_19 
ROOT
ATOM      1  C1  <0> d          -0.049   1.460   0.010  0.00  0.00     0.179 C 
ATOM      2  N1  <0> d          -0.019  -0.004   0.002  0.00  0.00    -0.283 N 
ATOM      3  C2  <0> d          -0.008  -0.783  -1.092  0.00  0.00     0.132 A 
ATOM      4  C3  <0> d           0.022  -2.095  -0.665  0.00  0.00     0.093 A 
ATOM      5  C4  <0> d           0.028  -2.074   0.748  0.00  0.00     0.208 A 
ATOM      6  N2  <0> d           0.010  -0.828   1.133  0.00  0.00    -0.158 NA
ENDROOT
BRANCH   4   7
ATOM      7  C9  <0> d           0.042  -3.294  -1.522  0.00  0.00     0.260 C 
ATOM      8  O3  <0> d           0.067  -4.401  -1.019  0.00  0.00    -0.267 OA
ATOM      9  N4  <0> d           0.032  -3.164  -2.863  0.00  0.00    -0.323 N 
ATOM     10  H13 <0> d          -0.057  -2.285  -3.265  0.00  0.00     0.169 HD
BRANCH   9  11
ATOM     11  C10 <0> d           0.148  -4.296  -3.677  0.00  0.00     0.035 A 
ATOM     12  C15 <0> d           0.837  -4.221  -4.879  0.00  0.00     0.037 A 
ATOM     13  C14 <0> d           0.957  -5.341  -5.683  0.00  0.00    -0.050 A 
ATOM     14  C13 <0> d           0.381  -6.535  -5.291  0.00  0.00    -0.052 A 
ATOM     15  C16 <0> d           1.650  -5.520  -7.017  0.00  0.00     0.039 C 
ATOM     16  C12 <0> d          -0.311  -6.610  -4.093  0.00  0.00     0.010 A 
ATOM     17  C18 <0> d           0.647  -7.598  -6.336  0.00  0.00     0.039 C 
ATOM     18  C11 <0> d          -0.429  -5.497  -3.287  0.00  0.00     0.030 A 
ATOM     19  C17 <0> d           1.810  -7.045  -7.187  0.00  0.00     0.009 C 
ENDBRANCH   9  11
ENDBRANCH   4   7
BRANCH   5  20
ATOM     20  S1  <0> d           0.063  -3.483   1.805  0.00  0.00     0.281 S 
ATOM     21  O1  <0> d          -1.284  -3.749   2.172  0.00  0.00    -0.199 OA
ATOM     22  O2  <0> d           0.883  -4.451   1.164  0.00  0.00    -0.199 OA
BRANCH  20  23
ATOM     23  N3  <0> d           0.852  -3.037   3.191  0.00  0.00    -0.304 N 
ATOM     24  C8  <0> d           0.089  -2.484   4.310  0.00  0.00     0.145 C 
ATOM     25  C7  <0> d           0.484  -1.024   4.532  0.00  0.00     0.094 C 
ATOM     26  S2  <0> d           2.278  -0.942   4.815  0.00  0.00    -0.166 SA
ATOM     27  C6  <0> d           2.964  -1.815   3.375  0.00  0.00     0.094 C 
ATOM     28  C5  <0> d           2.305  -3.195   3.278  0.00  0.00     0.145 C 
ENDBRANCH  20  23
ENDBRANCH   5  20
TORSDOF 4
