REMARK  6 active torsions:
REMARK  status: ('A' for Active; 'I' for Inactive)
REMARK    1  A    between atoms: C3_3  and  N4_20 
REMARK    2  A    between atoms: N1_5  and  C5_7 
REMARK    3  A    between atoms: C5_7  and  C6_8 
REMARK       I    between atoms: C6_8  and  N3_10 
REMARK    4  A    between atoms: N3_10  and  C7_11 
REMARK    5  A    between atoms: N3_10  and  C9_16 
REMARK    6  A    between atoms: C7_11  and  C8_12 
ROOT
ATOM      1  C5  <0> d           0.091  -3.572   1.180  0.00  0.00     0.254 C 
ENDROOT
BRANCH   1   2
ATOM      2  N1  <0> d           0.099  -2.630   0.058  0.00  0.00    -0.263 N 
ATOM      3  C4  <0> d           0.187  -2.955  -1.259  0.00  0.00     0.055 A 
ATOM      4  C3  <0> d           0.161  -1.799  -1.969  0.00  0.00     0.076 A 
ATOM      5  C12 <0> d           0.295  -4.347  -1.828  0.00  0.00     0.072 C 
ATOM      6  C2  <0> d           0.053  -0.738  -1.058  0.00  0.00     0.079 A 
ATOM      7  C1  <0> d          -0.009   0.726  -1.412  0.00  0.00     0.075 C 
ATOM      8  N2  <0> d           0.022  -1.235   0.152  0.00  0.00    -0.175 NA
BRANCH   4   9
ATOM      9  N4  <0> d           0.229  -1.684  -3.370  0.00  0.00    -0.396 N 
ATOM     10  H16 <0> d           0.203  -0.809  -3.787  0.00  0.00     0.156 HD
ATOM     11  H17 <0> d           0.303  -2.481  -3.919  0.00  0.00     0.156 HD
ENDBRANCH   4   9
ENDBRANCH   1   2
BRANCH   1  12
ATOM     12  C6  <0> d           1.505  -3.817   1.641  0.00  0.00     0.240 C 
ATOM     13  O1  <0> d           2.426  -3.235   1.107  0.00  0.00    -0.271 OA
ATOM     14  N3  <0> d           1.746  -4.681   2.646  0.00  0.00    -0.338 N 
BRANCH  14  15
ATOM     15  C7  <0> d           3.106  -4.835   3.170  0.00  0.00     0.243 C 
BRANCH  15  16
ATOM     16  C8  <0> d           3.327  -3.842   4.312  0.00  0.00     0.403 C 
ATOM     17  F1  <0> d           2.404  -4.092   5.333  0.00  0.00    -0.169 F 
ATOM     18  F2  <0> d           4.626  -3.989   4.812  0.00  0.00    -0.169 F 
ATOM     19  F3  <0> d           3.155  -2.538   3.837  0.00  0.00    -0.169 F 
ENDBRANCH  15  16
ENDBRANCH  14  15
BRANCH  14  20
ATOM     20  C9  <0> d           0.649  -5.468   3.215  0.00  0.00     0.087 A 
ATOM     21  C11 <0> d           0.702  -6.987   3.037  0.00  0.00     0.027 A 
ATOM     22  C10 <0> d           0.970  -6.367   4.410  0.00  0.00     0.027 A 
ENDBRANCH  14  20
ENDBRANCH   1  12
TORSDOF 6
