REMARK  3 active torsions:
REMARK  status: ('A' for Active; 'I' for Inactive)
REMARK    1  A    between atoms: C2_2  and  N1_3 
REMARK    2  A    between atoms: N1_3  and  C3_4 
REMARK    3  A    between atoms: C9_13  and  C12_16 
ROOT
ATOM      1  C3  <0> d           0.616  -1.943  -1.138  0.00  0.00     0.221 C 
ATOM      2  C4  <0> d           1.212  -2.518  -2.411  0.00  0.00     0.057 C 
ATOM      3  C5  <0> d           1.081  -4.048  -2.382  0.00  0.00     0.112 C 
ATOM      4  S1  <0> d           2.256  -4.656  -1.134  0.00  0.00     0.179 S 
ATOM      5  O1  <0> d           1.849  -5.930  -0.654  0.00  0.00    -0.222 OA
ATOM      6  O2  <0> d           3.592  -4.435  -1.567  0.00  0.00    -0.222 OA
ATOM      7  C6  <0> d           2.029  -3.561   0.233  0.00  0.00     0.068 A 
ATOM      8  C7  <0> d           1.305  -2.399   0.114  0.00  0.00    -0.006 A 
ATOM      9  C8  <0> d           1.182  -1.571   1.229  0.00  0.00     0.018 A 
ATOM     10  C9  <0> d           1.767  -1.908   2.430  0.00  0.00    -0.050 A 
ATOM     11  C10 <0> d           2.487  -3.083   2.541  0.00  0.00     0.009 A 
ATOM     12  C11 <0> d           2.611  -3.903   1.444  0.00  0.00     0.025 A 
ATOM     13  C16 <0> d          -0.345  -4.443  -1.995  0.00  0.00     0.026 C 
ENDROOT
BRANCH   1  14
ATOM     14  N1  <0> d           0.690  -0.478  -1.207  0.00  0.00    -0.067 N 
ATOM     15  H8  <0> d           1.653  -0.194  -1.303  0.00  0.00     0.277 HD
ATOM     16  H26 <0> d           0.305  -0.082  -0.362  0.00  0.00     0.277 HD
BRANCH  14  17
ATOM     17  C2  <0> d          -0.080  -0.002  -2.364  0.00  0.00     0.228 C 
ATOM     18  C1  <0> d          -0.115   1.527  -2.360  0.00  0.00     0.034 C 
ENDBRANCH  14  17
ENDBRANCH   1  14
BRANCH  10  19
ATOM     19  C12 <0> d           1.621  -0.998   3.622  0.00  0.00    -0.024 C 
ATOM     20  C13 <0> d           0.138  -0.840   3.965  0.00  0.00     0.019 C 
ATOM     21  C14 <0> d           2.360  -1.601   4.818  0.00  0.00     0.019 C 
ATOM     22  C15 <0> d           2.217   0.372   3.293  0.00  0.00     0.019 C 
ENDBRANCH  10  19
TORSDOF 3
