REMARK  5 active torsions:
REMARK  status: ('A' for Active; 'I' for Inactive)
REMARK    1  A    between atoms: C6_6  and  O1_7 
REMARK    2  A    between atoms: O1_7  and  S1_8 
REMARK    3  A    between atoms: S1_8  and  C7_11 
REMARK    4  A    between atoms: C15_23  and  C16_24 
REMARK    5  A    between atoms: C16_24  and  C17_25 
ROOT
ATOM      1  S1  <0> d          -1.716  -1.001  -1.377  0.00  0.00     0.303 S 
ATOM      2  O2  <0> d          -3.022  -1.528  -1.190  0.00  0.00    -0.193 OA
ATOM      3  O3  <0> d          -1.465   0.148  -2.175  0.00  0.00    -0.193 OA
ENDROOT
BRANCH   1   4
ATOM      4  O1  <0> d          -1.169  -0.694   0.010  0.00  0.00    -0.229 OA
BRANCH   4   5
ATOM      5  C6  <0> d           0.002  -0.004   0.002  0.00  0.00     0.092 A 
ATOM      6  C1  <0> d          -0.017   1.387   0.010  0.00  0.00     0.039 A 
ATOM      7  C2  <0> d           1.153   2.094   0.002  0.00  0.00     0.017 A 
ATOM      8  C3  <0> d           2.371   1.417  -0.013  0.00  0.00     0.006 A 
ATOM      9  C15 <0> d           3.778   1.838  -0.024  0.00  0.00    -0.013 A 
ATOM     10  C4  <0> d           2.400   0.012  -0.021  0.00  0.00     0.088 A 
ATOM     11  C14 <0> d           4.505   0.712  -0.037  0.00  0.00     0.151 A 
ATOM     12  O5  <0> d           3.695  -0.362  -0.035  0.00  0.00    -0.321 OA
ATOM     13  C5  <0> d           1.203  -0.691  -0.014  0.00  0.00     0.076 A 
BRANCH   9  14
ATOM     14  C16 <0> d           4.300   3.251  -0.022  0.00  0.00     0.154 C 
BRANCH  14  15
ATOM     15  C17 <0> d           4.371   3.759   1.395  0.00  0.00     0.177 C 
ATOM     16  O6  <0> d           4.030   3.039   2.318  0.00  0.00    -0.648 OA
ATOM     17  O7  <0> d           4.771   4.889   1.619  0.00  0.00    -0.648 OA
ENDBRANCH  14  15
ENDBRANCH   9  14
ENDBRANCH   4   5
ENDBRANCH   1   4
BRANCH   1  18
ATOM     18  C7  <0> d          -0.737  -2.304  -2.047  0.00  0.00     0.089 A 
ATOM     19  C13 <0> d          -1.112  -3.583  -1.828  0.00  0.00     0.057 A 
ATOM     20  C12 <0> d          -0.312  -4.673  -2.382  0.00  0.00     0.064 A 
ATOM     21  C10 <0> d           0.914  -4.329  -3.171  0.00  0.00     0.063 A 
ATOM     22  N2  <0> d          -0.392  -5.980  -2.363  0.00  0.00    -0.306 N 
ATOM     23  C9  <0> d           1.250  -2.918  -3.355  0.00  0.00     0.033 A 
ATOM     24  N1  <0> d           1.450  -5.462  -3.548  0.00  0.00    -0.307 N 
ATOM     25  C8  <0> d           0.456  -1.968  -2.815  0.00  0.00     0.028 A 
ATOM     26  C11 <0> d           0.673  -6.490  -3.068  0.00  0.00     0.325 A 
ATOM     27  H11 <0> d           2.257  -5.560  -4.076  0.00  0.00     0.170 HD
ATOM     28  O4  <0> d           0.893  -7.670  -3.241  0.00  0.00    -0.247 OA
ATOM     29  H10 <0> d          -1.084  -6.499  -1.925  0.00  0.00     0.170 HD
ENDBRANCH   1  18
TORSDOF 5
