REMARK  3 active torsions:
REMARK  status: ('A' for Active; 'I' for Inactive)
REMARK    1  A    between atoms: C4_6  and  C5_7 
REMARK       I    between atoms: C5_7  and  N3_9 
REMARK    2  A    between atoms: C7_11  and  C14_19 
REMARK       I    between atoms: C14_19  and  N5_21 
REMARK    3  A    between atoms: N5_21  and  C15_22 
ROOT
ATOM      1  C5  <0> d          -0.173  -0.420   2.566  0.00  0.00     0.272 C 
ATOM      2  O1  <0> d          -0.136  -1.251   3.454  0.00  0.00    -0.266 OA
ATOM      3  N3  <0> d          -0.389   0.876   2.865  0.00  0.00    -0.345 N 
ATOM      4  C6  <0> d          -0.608   2.001   1.924  0.00  0.00     0.141 C 
ATOM      5  C7  <0> d          -1.701   2.863   2.595  0.00  0.00     0.106 C 
ATOM      6  C8  <0> d          -1.598   2.531   4.093  0.00  0.00    -0.007 C 
ATOM      7  C9  <0> d          -0.467   1.498   4.208  0.00  0.00     0.136 C 
ATOM      8  C10 <0> d          -1.252   3.786   4.890  0.00  0.00     0.039 C 
ATOM      9  C11 <0> d          -1.213   3.443   6.381  0.00  0.00     0.233 C 
ATOM     10  N4  <0> d          -2.518   2.918   6.800  0.00  0.00    -0.075 N 
ATOM     11  C12 <0> d          -2.801   1.661   6.096  0.00  0.00     0.233 C 
ATOM     12  C13 <0> d          -2.908   1.929   4.592  0.00  0.00     0.039 C 
ATOM     13  H15 <0> d          -2.509   2.750   7.795  0.00  0.00     0.277 HD
ATOM     14  H36 <0> d          -3.236   3.593   6.582  0.00  0.00     0.277 HD
ENDROOT
BRANCH   5  15
ATOM     15  C14 <0> d          -1.431   4.327   2.360  0.00  0.00     0.224 C 
ATOM     16  O2  <0> d          -0.290   4.731   2.294  0.00  0.00    -0.273 OA
ATOM     17  N5  <0> d          -2.460   5.188   2.222  0.00  0.00    -0.356 N 
ATOM     18  H20 <0> d          -3.373   4.864   2.274  0.00  0.00     0.162 HD
BRANCH  17  19
ATOM     19  C15 <0> d          -2.198   6.611   1.993  0.00  0.00     0.084 C 
ATOM     20  C22 <0> d          -3.393   7.240   1.274  0.00  0.00     0.025 C 
ATOM     21  C21 <0> d          -2.981   8.591   0.686  0.00  0.00     0.002 C 
ATOM     22  C20 <0> d          -1.613   8.458   0.014  0.00  0.00     0.000 C 
ATOM     23  C19 <0> d          -0.581   9.276   0.793  0.00  0.00     0.000 C 
ATOM     24  C18 <0> d          -0.203   8.531   2.074  0.00  0.00     0.000 C 
ATOM     25  C17 <0> d          -1.329   8.675   3.100  0.00  0.00     0.002 C 
ATOM     26  C16 <0> d          -1.983   7.312   3.336  0.00  0.00     0.025 C 
ENDBRANCH  17  19
ENDBRANCH   5  15
BRANCH   1  27
ATOM     27  C4  <0> d           0.016  -0.830   1.169  0.00  0.00     0.121 A 
ATOM     28  N1  <0> d           0.096  -2.123   0.689  0.00  0.00    -0.340 N 
ATOM     29  C1  <0> d           0.008  -3.353   1.480  0.00  0.00     0.157 C 
ATOM     30  C2  <0> d           0.266  -2.039  -0.643  0.00  0.00     0.209 A 
ATOM     31  N2  <0> d           0.297  -0.778  -0.993  0.00  0.00    -0.253 NA
ATOM     32  C3  <0> d           0.151  -0.009   0.086  0.00  0.00     0.153 A 
ENDBRANCH   1  27
TORSDOF 3
