REMARK  6 active torsions:
REMARK  status: ('A' for Active; 'I' for Inactive)
REMARK    1  A    between atoms: C2_2  and  O1_3 
REMARK    2  A    between atoms: O1_3  and  C3_4 
REMARK    3  A    between atoms: N1_16  and  C16_19 
REMARK    4  A    between atoms: C16_19  and  C17_20 
REMARK    5  A    between atoms: C17_20  and  C18_21 
REMARK    6  A    between atoms: C18_21  and  N2_22 
ROOT
ATOM      1  C3  <0> d           0.802  -1.824   1.306  0.00  0.00     0.071 A 
ATOM      2  C4  <0> d           0.260  -2.674   0.351  0.00  0.00     0.037 A 
ATOM      3  C5  <0> d           0.370  -4.040   0.504  0.00  0.00     0.012 A 
ATOM      4  C6  <0> d           1.021  -4.573   1.605  0.00  0.00    -0.025 A 
ATOM      5  C7  <0> d           1.567  -3.730   2.558  0.00  0.00     0.078 A 
ATOM      6  C8  <0> d           1.459  -2.353   2.404  0.00  0.00     0.074 A 
ATOM      7  O2  <0> d           2.224  -4.210   3.646  0.00  0.00    -0.340 OA
ATOM      8  C9  <0> d           2.046  -5.583   3.987  0.00  0.00     0.071 C 
ATOM      9  C10 <0> d           2.228  -6.433   2.725  0.00  0.00     0.043 C 
ATOM     10  C11 <0> d           1.117  -6.072   1.736  0.00  0.00     0.044 C 
ATOM     11  C12 <0> d           0.640  -5.801   4.551  0.00  0.00     0.066 C 
ATOM     12  C13 <0> d           0.493  -5.020   5.859  0.00  0.00     0.238 C 
ATOM     13  N1  <0> d           1.494  -5.484   6.827  0.00  0.00    -0.071 N 
ATOM     14  C14 <0> d           2.843  -5.204   6.322  0.00  0.00     0.238 C 
ATOM     15  C15 <0> d           3.082  -5.996   5.034  0.00  0.00     0.066 C 
ATOM     16  H30 <0> d           1.388  -6.478   6.968  0.00  0.00     0.279 HD
ENDROOT
BRANCH  13  17
ATOM     17  C16 <0> d           1.296  -4.788   8.105  0.00  0.00     0.236 C 
BRANCH  17  18
ATOM     18  C17 <0> d           2.256  -5.359   9.151  0.00  0.00     0.055 C 
BRANCH  18  19
ATOM     19  C18 <0> d           2.051  -4.633  10.482  0.00  0.00     0.231 C 
BRANCH  19  20
ATOM     20  N2  <0> d           2.972  -5.182  11.486  0.00  0.00    -0.079 N 
ATOM     21  H27 <0> d           2.836  -4.703  12.364  0.00  0.00     0.274 HD
ATOM     22  H28 <0> d           2.789  -6.167  11.608  0.00  0.00     0.274 HD
ATOM     23  H29 <0> d           3.923  -5.052  11.176  0.00  0.00     0.274 HD
ENDBRANCH  19  20
ENDBRANCH  18  19
ENDBRANCH  17  18
ENDBRANCH  13  17
BRANCH   1  24
ATOM     24  O1  <0> d           0.693  -0.477   1.160  0.00  0.00    -0.351 OA
BRANCH  24  25
ATOM     25  C2  <0> d           0.002  -0.004   0.002  0.00  0.00     0.171 C 
ATOM     26  C1  <0> d          -0.019   1.526   0.010  0.00  0.00     0.034 C 
ENDBRANCH  24  25
ENDBRANCH   1  24
TORSDOF 6
