REMARK  5 active torsions:
REMARK  status: ('A' for Active; 'I' for Inactive)
REMARK    1  A    between atoms: N1_2  and  C3_4 
REMARK    2  A    between atoms: C3_4  and  C4_5 
REMARK    3  A    between atoms: C4_5  and  N2_6 
REMARK    4  A    between atoms: C11_14  and  C12_15 
REMARK    5  A    between atoms: C15_18  and  N4_21 
ROOT
ATOM      1  N2  <0> d           1.110   2.342   0.026  0.00  0.00    -0.327 N 
ATOM      2  C5  <0> d           0.591   3.624   0.045  0.00  0.00     0.068 A 
ATOM      3  C6  <0> d           1.159   4.890   0.079  0.00  0.00     0.071 A 
ATOM      4  C7  <0> d           0.348   6.012   0.090  0.00  0.00     0.104 A 
ATOM      5  C8  <0> d          -1.040   5.876   0.065  0.00  0.00     0.104 A 
ATOM      6  C9  <0> d          -1.617   4.622   0.032  0.00  0.00     0.073 A 
ATOM      7  C10 <0> d          -0.807   3.481   0.022  0.00  0.00     0.088 A 
ATOM      8  N3  <0> d          -1.074   2.152  -0.013  0.00  0.00    -0.228 NA
ATOM      9  C11 <0> d           0.050   1.476  -0.005  0.00  0.00     0.141 A 
ATOM     10  O1  <0> d          -1.846   6.975   0.068  0.00  0.00    -0.346 OA
ATOM     11  C18 <0> d          -1.249   8.209   0.483  0.00  0.00     0.202 C 
ATOM     12  C19 <0> d           0.099   8.355  -0.235  0.00  0.00     0.202 C 
ATOM     13  O2  <0> d           0.926   7.245   0.131  0.00  0.00    -0.346 OA
ENDROOT
BRANCH   9  14
ATOM     14  C12 <0> d           0.155   0.003  -0.033  0.00  0.00     0.010 A 
ATOM     15  C17 <0> d          -0.924  -0.784   0.376  0.00  0.00     0.017 A 
ATOM     16  C16 <0> d          -0.822  -2.157   0.349  0.00  0.00     0.030 A 
ATOM     17  C15 <0> d           0.354  -2.761  -0.083  0.00  0.00     0.025 A 
ATOM     18  C14 <0> d           1.431  -1.980  -0.491  0.00  0.00     0.030 A 
ATOM     19  C13 <0> d           1.333  -0.606  -0.472  0.00  0.00     0.017 A 
BRANCH  17  20
ATOM     20  N4  <0> d           0.454  -4.151  -0.109  0.00  0.00    -0.399 N 
ATOM     21  H17 <0> d          -0.397  -4.769   0.213  0.00  0.00     0.156 HD
ATOM     22  H18 <0> d           1.383  -4.629  -0.452  0.00  0.00     0.156 HD
ENDBRANCH  17  20
ENDBRANCH   9  14
BRANCH   1  23
ATOM     23  C4  <0> d           2.530   1.979   0.038  0.00  0.00     0.158 C 
BRANCH  23  24
ATOM     24  C3  <0> d           3.071   1.992  -1.393  0.00  0.00     0.254 C 
BRANCH  24  25
ATOM     25  N1  <0> d           4.494   1.627  -1.381  0.00  0.00    -0.077 N 
ATOM     26  C1  <0> d           4.990   1.397  -2.745  0.00  0.00     0.269 C 
ATOM     27  C2  <0> d           5.294   2.650  -0.696  0.00  0.00     0.269 C 
ATOM     28  H23 <0> d           4.597   0.686  -0.821  0.00  0.00     0.279 HD
ENDBRANCH  24  25
ENDBRANCH  23  24
ENDBRANCH   1  23
TORSDOF 5
