REMARK  5 active torsions:
REMARK  status: ('A' for Active; 'I' for Inactive)
REMARK    1  A    between atoms: C5_5  and  C8_9 
REMARK    2  A    between atoms: C6_6  and  O1_8 
REMARK    3  A    between atoms: C9_12  and  C11_14 
REMARK       I    between atoms: C11_14  and  N3_16 
REMARK    4  A    between atoms: N3_16  and  C12_17 
REMARK    5  A    between atoms: C13_18  and  C20_26 
REMARK       I    between atoms: C20_26  and  N4_28 
ROOT
ATOM      1  C11 <0> d          -0.394  -7.880  -1.148  0.00  0.00     0.269 C 
ATOM      2  O2  <0> d          -0.893  -8.003  -2.251  0.00  0.00    -0.266 OA
ATOM      3  N3  <0> d           0.152  -8.948  -0.533  0.00  0.00    -0.338 N 
ATOM      4  H12 <0> d           0.550  -8.851   0.346  0.00  0.00     0.164 HD
ENDROOT
BRANCH   1   5
ATOM      5  C9  <0> d          -0.386  -6.572  -0.488  0.00  0.00     0.130 A 
ATOM      6  N2  <0> d           0.107  -6.275   0.686  0.00  0.00    -0.149 NA
ATOM      7  N1  <0> d          -0.023  -5.051   1.019  0.00  0.00    -0.153 NA
ATOM      8  C8  <0> d          -0.629  -4.309   0.119  0.00  0.00     0.075 A 
ATOM      9  C10 <0> d          -0.955  -5.265  -1.017  0.00  0.00     0.129 A 
BRANCH   8  10
ATOM     10  C5  <0> d          -0.930  -2.878   0.196  0.00  0.00     0.024 A 
ATOM     11  C4  <0> d          -1.595  -2.239  -0.859  0.00  0.00     0.017 A 
ATOM     12  C3  <0> d          -1.875  -0.893  -0.778  0.00  0.00     0.008 A 
ATOM     13  C2  <0> d          -1.503  -0.167   0.343  0.00  0.00    -0.059 A 
ATOM     14  C1  <0> d          -1.817   1.305   0.418  0.00  0.00     0.048 C 
ATOM     15  C7  <0> d          -0.843  -0.781   1.389  0.00  0.00     0.044 A 
ATOM     16  C6  <0> d          -0.555  -2.136   1.331  0.00  0.00     0.078 A 
BRANCH  16  17
ATOM     17  O1  <0> d           0.088  -2.741   2.360  0.00  0.00    -0.360 OA
ATOM     18  H9  <0> d           1.052  -2.732   2.281  0.00  0.00     0.217 HD
ENDBRANCH  16  17
ENDBRANCH   8  10
ENDBRANCH   1   5
BRANCH   3  19
ATOM     19  C12 <0> d           0.145 -10.256  -1.193  0.00  0.00     0.187 C 
ATOM     20  S1  <0> d           0.585 -10.104  -2.979  0.00  0.00    -0.130 SA
ATOM     21  C19 <0> d           1.679 -11.580  -3.046  0.00  0.00     0.079 C 
ATOM     22  C14 <0> d           2.029 -11.755  -1.561  0.00  0.00    -0.051 C 
ATOM     23  C18 <0> d           2.997 -11.227  -3.739  0.00  0.00     0.020 C 
ATOM     24  C13 <0> d           1.280 -11.129  -0.690  0.00  0.00     0.046 C 
ATOM     25  C15 <0> d           3.274 -12.577  -1.226  0.00  0.00     0.036 C 
ATOM     26  C16 <0> d           3.639 -13.349  -2.497  0.00  0.00     0.004 C 
ATOM     27  C17 <0> d           3.949 -12.417  -3.659  0.00  0.00     0.002 C 
BRANCH  24  28
ATOM     28  C20 <0> d           1.534 -11.269   0.752  0.00  0.00     0.250 C 
ATOM     29  O3  <0> d           2.511 -11.880   1.142  0.00  0.00    -0.268 OA
ATOM     30  N4  <0> d           0.684 -10.719   1.643  0.00  0.00    -0.361 N 
ATOM     31  C21 <0> d           0.993 -10.764   3.074  0.00  0.00     0.149 C 
ATOM     32  H21 <0> d          -0.132 -10.293   1.335  0.00  0.00     0.162 HD
ENDBRANCH  24  28
ENDBRANCH   3  19
TORSDOF 5
