REMARK  5 active torsions:
REMARK  status: ('A' for Active; 'I' for Inactive)
REMARK    1  A    between atoms: C6_6  and  N1_9 
REMARK       I    between atoms: N1_9  and  C9_10 
REMARK    2  A    between atoms: C9_10  and  C10_12 
REMARK    3  A    between atoms: C10_12  and  N2_13 
REMARK       I    between atoms: N2_13  and  C11_14 
REMARK    4  A    between atoms: C11_14  and  C12_16 
REMARK    5  A    between atoms: C14_21  and  C15_22 
ROOT
ATOM      1  N2  <0> d          -1.403   6.124  -0.266  0.00  0.00    -0.348 N 
ATOM      2  C11 <0> d          -1.659   7.444  -0.367  0.00  0.00     0.255 C 
ATOM      3  O2  <0> d          -0.740   8.241  -0.391  0.00  0.00    -0.268 OA
ATOM      4  H14 <0> d          -2.136   5.489  -0.247  0.00  0.00     0.163 HD
ENDROOT
BRANCH   1   5
ATOM      5  C10 <0> d          -0.020   5.650  -0.184  0.00  0.00     0.226 C 
BRANCH   5   6
ATOM      6  C9  <0> d          -0.009   4.147  -0.078  0.00  0.00     0.239 C 
ATOM      7  N1  <0> d           1.162   3.485   0.009  0.00  0.00    -0.325 N 
ATOM      8  H11 <0> d           1.993   3.979   0.085  0.00  0.00     0.169 HD
ATOM      9  O1  <0> d          -1.055   3.532  -0.072  0.00  0.00    -0.271 OA
BRANCH   7  10
ATOM     10  C6  <0> d           1.178   2.086  -0.009  0.00  0.00     0.041 A 
ATOM     11  C5  <0> d           0.141   1.386  -0.611  0.00  0.00     0.030 A 
ATOM     12  C4  <0> d           0.160   0.005  -0.627  0.00  0.00     0.003 A 
ATOM     13  C3  <0> d           1.211  -0.680  -0.045  0.00  0.00     0.007 A 
ATOM     14  C2  <0> d           2.245   0.014   0.554  0.00  0.00    -0.054 A 
ATOM     15  C1  <0> d           3.389  -0.737   1.187  0.00  0.00     0.049 C 
ATOM     16  C7  <0> d           2.232   1.395   0.575  0.00  0.00    -0.029 A 
ATOM     17  C8  <0> d           3.359   2.151   1.229  0.00  0.00     0.051 C 
ENDBRANCH   7  10
ENDBRANCH   5   6
ENDBRANCH   1   5
BRANCH   2  18
ATOM     18  C12 <0> d          -3.050   7.921  -0.450  0.00  0.00     0.080 A 
ATOM     19  C14 <0> d          -3.496   9.313  -0.557  0.00  0.00     0.104 A 
ATOM     20  N4  <0> d          -4.809   9.292  -0.607  0.00  0.00    -0.174 NA
ATOM     21  N3  <0> d          -5.248   7.967  -0.529  0.00  0.00    -0.288 N 
ATOM     22  C13 <0> d          -4.191   7.146  -0.435  0.00  0.00     0.128 A 
ATOM     23  H1  <0> d          -6.204   7.676  -0.542  0.00  0.00     0.188 HD
BRANCH  19  24
ATOM     24  C15 <0> d          -2.630  10.516  -0.604  0.00  0.00    -0.004 A 
ATOM     25  C20 <0> d          -2.998  11.612  -1.383  0.00  0.00     0.015 A 
ATOM     26  C19 <0> d          -2.189  12.729  -1.422  0.00  0.00     0.024 A 
ATOM     27  C18 <0> d          -1.014  12.763  -0.691  0.00  0.00     0.034 A 
ATOM     28  C17 <0> d          -0.645  11.677   0.084  0.00  0.00     0.024 A 
ATOM     29 Cl1  <0> d          -0.001  14.171  -0.745  0.00  0.00    -0.084 Cl
ATOM     30  C16 <0> d          -1.449  10.557   0.135  0.00  0.00     0.015 A 
ENDBRANCH  19  24
ENDBRANCH   2  18
TORSDOF 5
