REMARK  4 active torsions:
REMARK  status: ('A' for Active; 'I' for Inactive)
REMARK    1  A    between atoms: C2_2  and  C9_12 
REMARK    2  A    between atoms: C9_12  and  C10_13 
REMARK    3  A    between atoms: C9_12  and  N1_20 
REMARK    4  A    between atoms: C10_13  and  C11_14 
ROOT
ATOM      1  C9  <0> d           1.146   3.598   0.011  0.00  0.00     0.218 C 
ENDROOT
BRANCH   1   2
ATOM      2  C2  <0> d           1.170   2.091   0.002  0.00  0.00    -0.008 A 
ATOM      3  C1  <0> d          -0.017   1.382   0.010  0.00  0.00     0.050 A 
ATOM      4  C6  <0> d           0.002  -0.004   0.002  0.00  0.00     0.102 A 
ATOM      5  C5  <0> d           1.217  -0.679  -0.017  0.00  0.00     0.103 A 
ATOM      6  O1  <0> d          -1.175  -0.688   0.016  0.00  0.00    -0.346 OA
ATOM      7  C4  <0> d           2.404   0.037  -0.024  0.00  0.00     0.059 A 
ATOM      8  O2  <0> d           1.258  -2.040  -0.031  0.00  0.00    -0.346 OA
ATOM      9  C3  <0> d           2.379   1.420  -0.014  0.00  0.00     0.022 A 
ATOM     10 Br1  <0> d           4.000   2.394  -0.023  0.00  0.00    -0.050 Br
ATOM     11  C8  <0> d           0.060  -2.723   0.357  0.00  0.00     0.202 C 
ATOM     12  C7  <0> d          -1.122  -2.066  -0.368  0.00  0.00     0.202 C 
ENDBRANCH   1   2
BRANCH   1  13
ATOM     13  C10 <0> d           1.402   4.104   1.432  0.00  0.00     0.042 C 
BRANCH  13  14
ATOM     14  C11 <0> d           1.502   5.631   1.419  0.00  0.00    -0.012 C 
ATOM     15  C16 <0> d           1.633   6.145   2.854  0.00  0.00     0.005 C 
ATOM     16  C15 <0> d           1.733   7.672   2.842  0.00  0.00     0.000 C 
ATOM     17  C14 <0> d           2.961   8.096   2.034  0.00  0.00     0.000 C 
ATOM     18  C13 <0> d           2.830   7.582   0.599  0.00  0.00     0.000 C 
ATOM     19  C12 <0> d           2.730   6.055   0.611  0.00  0.00     0.005 C 
ENDBRANCH  13  14
ENDBRANCH   1  13
BRANCH   1  20
ATOM     20  N1  <0> d          -0.168   4.070  -0.448  0.00  0.00    -0.071 N 
ATOM     21  H21 <0> d          -0.885   3.719   0.169  0.00  0.00     0.275 HD
ATOM     22  H22 <0> d          -0.183   5.079  -0.442  0.00  0.00     0.275 HD
ATOM     23  H23 <0> d          -0.336   3.736  -1.385  0.00  0.00     0.275 HD
ENDBRANCH   1  20
TORSDOF 4
