REMARK  5 active torsions:
REMARK  status: ('A' for Active; 'I' for Inactive)
REMARK    1  A    between atoms: C5_5  and  N2_8 
REMARK    2  A    between atoms: C14_18  and  S1_19 
REMARK    3  A    between atoms: S1_19  and  C15_20 
REMARK    4  A    between atoms: C15_20  and  C16_21 
REMARK       I    between atoms: C16_21  and  N4_23 
REMARK    5  A    between atoms: N4_23  and  C17_24 
ROOT
ATOM      1  N2  <0> d          -0.011  -2.764  -0.052  0.00  0.00    -0.241 N 
ATOM      2  C7  <0> d           1.188  -2.135  -0.070  0.00  0.00     0.268 A 
ATOM      3  O1  <0> d           2.230  -2.764  -0.086  0.00  0.00    -0.267 OA
ATOM      4  C8  <0> d           1.184  -0.666  -0.069  0.00  0.00     0.059 A 
ATOM      5  C9  <0> d           2.366   0.073  -0.086  0.00  0.00     0.019 A 
ATOM      6  C10 <0> d           2.306   1.439  -0.083  0.00  0.00     0.001 A 
ATOM      7  C11 <0> d           1.083   2.096  -0.066  0.00  0.00     0.002 A 
ATOM      8  C12 <0> d          -0.091   1.397  -0.048  0.00  0.00     0.030 A 
ATOM      9  C13 <0> d          -0.063  -0.001  -0.049  0.00  0.00     0.050 A 
ATOM     10  N3  <0> d          -1.201  -0.733  -0.032  0.00  0.00    -0.335 N 
ATOM     11  C14 <0> d          -1.173  -2.043  -0.034  0.00  0.00     0.156 A 
ATOM     12  H23 <0> d          -2.179  -0.230  -0.017  0.00  0.00     0.168 HD
ENDROOT
BRANCH  11  13
ATOM     13  S1  <0> d          -2.704  -2.917  -0.012  0.00  0.00    -0.084 SA
BRANCH  13  14
ATOM     14  C15 <0> d          -3.860  -1.524   0.006  0.00  0.00     0.185 C 
BRANCH  14  15
ATOM     15  C16 <0> d          -5.274  -2.046   0.027  0.00  0.00     0.231 C 
ATOM     16  O2  <0> d          -5.479  -3.241   0.029  0.00  0.00    -0.272 OA
ATOM     17  N4  <0> d          -6.310  -1.184   0.043  0.00  0.00    -0.326 N 
ATOM     18  H13 <0> d          -6.125  -0.103   0.133  0.00  0.00     0.169 HD
BRANCH  17  19
ATOM     19  C17 <0> d          -7.621  -1.663  -0.054  0.00  0.00     0.041 A 
ATOM     20  C22 <0> d          -8.673  -0.921   0.464  0.00  0.00    -0.029 A 
ATOM     21  C21 <0> d          -9.967  -1.395   0.361  0.00  0.00    -0.054 A 
ATOM     22  C23 <0> d          -8.406   0.402   1.133  0.00  0.00     0.051 C 
ATOM     23  C20 <0> d         -10.213  -2.612  -0.247  0.00  0.00     0.007 A 
ATOM     24  C24 <0> d         -11.111  -0.587   0.918  0.00  0.00     0.049 C 
ATOM     25  C19 <0> d          -9.165  -3.356  -0.759  0.00  0.00     0.003 A 
ATOM     26  C18 <0> d          -7.871  -2.886  -0.665  0.00  0.00     0.030 A 
ENDBRANCH  17  19
ENDBRANCH  14  15
ENDBRANCH  13  14
ENDBRANCH  11  13
BRANCH   1  27
ATOM     27  C5  <0> d          -0.060  -4.160  -0.053  0.00  0.00     0.138 A 
ATOM     28  C4  <0> d          -0.171  -4.845   1.151  0.00  0.00     0.052 A 
ATOM     29  C3  <0> d          -0.226  -6.228   1.136  0.00  0.00     0.012 A 
ATOM     30  C2  <0> d          -0.156  -6.880  -0.087  0.00  0.00    -0.044 A 
ATOM     31  C1  <0> d          -0.204  -8.385  -0.152  0.00  0.00     0.049 C 
ATOM     32  C6  <0> d          -0.040  -6.135  -1.245  0.00  0.00     0.125 A 
ATOM     33  N1  <0> d           0.004  -4.818  -1.199  0.00  0.00    -0.242 NA
ENDBRANCH   1  27
TORSDOF 5
