REMARK  6 active torsions:
REMARK  status: ('A' for Active; 'I' for Inactive)
REMARK    1  A    between atoms: C4_4  and  N7_20 
REMARK    2  A    between atoms: C5_5  and  N1_7 
REMARK       I    between atoms: N1_7  and  C7_8 
REMARK    3  A    between atoms: C7_8  and  C8_10 
REMARK    4  A    between atoms: C8_10  and  N2_11 
REMARK    5  A    between atoms: N3_13  and  N5_16 
REMARK    6  A    between atoms: N5_16  and  N6_17 
ROOT
ATOM      1  N1  <0> d           1.217  -2.026  -0.008  0.00  0.00    -0.324 N 
ATOM      2  C7  <0> d           0.048  -2.693  -0.084  0.00  0.00     0.242 C 
ATOM      3  O1  <0> d          -0.989  -2.084  -0.239  0.00  0.00    -0.271 OA
ATOM      4  H5  <0> d           2.053  -2.515   0.039  0.00  0.00     0.169 HD
ENDROOT
BRANCH   2   5
ATOM      5  C8  <0> d           0.030  -4.196   0.026  0.00  0.00     0.255 C 
BRANCH   5   6
ATOM      6  N2  <0> d          -1.349  -4.677  -0.085  0.00  0.00    -0.254 N 
ATOM      7  N4  <0> d          -2.445  -4.280   0.697  0.00  0.00    -0.164 NA
ATOM      8  C10 <0> d          -3.482  -4.950   0.265  0.00  0.00     0.257 A 
ATOM      9  N3  <0> d          -3.100  -5.749  -0.733  0.00  0.00    -0.223 N 
ATOM     10  C9  <0> d          -1.818  -5.597  -0.957  0.00  0.00     0.231 A 
BRANCH   9  11
ATOM     11  N5  <0> d          -3.943  -6.619  -1.437  0.00  0.00    -0.174 N 
ATOM     12  H10 <0> d          -3.585  -7.167  -2.153  0.00  0.00     0.215 HD
BRANCH  11  13
ATOM     13  N6  <0> d          -5.302  -6.696  -1.107  0.00  0.00    -0.023 N 
ATOM     14  O2  <0> d          -5.748  -6.013  -0.215  0.00  0.00    -0.515 OA
ATOM     15  O3  <0> d          -6.030  -7.447  -1.715  0.00  0.00    -0.515 OA
ENDBRANCH  11  13
ENDBRANCH   9  11
ENDBRANCH   5   6
ENDBRANCH   2   5
BRANCH   1  16
ATOM     16  C5  <0> d           1.224  -0.626   0.001  0.00  0.00     0.068 A 
ATOM     17  C4  <0> d           2.252   0.068  -0.623  0.00  0.00     0.129 A 
ATOM     18  C3  <0> d           2.256   1.449  -0.613  0.00  0.00     0.038 A 
ATOM     19  C2  <0> d           1.238   2.140   0.017  0.00  0.00     0.003 A 
ATOM     20  C1  <0> d           0.212   1.452   0.639  0.00  0.00     0.002 A 
ATOM     21  C6  <0> d           0.203   0.071   0.633  0.00  0.00     0.032 A 
BRANCH  17  22
ATOM     22  N7  <0> d           3.342  -0.671  -1.299  0.00  0.00    -0.113 N 
ATOM     23  O4  <0> d           4.188  -0.068  -1.918  0.00  0.00    -0.532 OA
ATOM     24  O5  <0> d           3.387  -1.877  -1.231  0.00  0.00    -0.532 OA
ENDBRANCH  17  22
ENDBRANCH   1  16
TORSDOF 6
