REMARK  3 active torsions:
REMARK  status: ('A' for Active; 'I' for Inactive)
REMARK    1  A    between atoms: C2_2  and  C5_6 
REMARK       I    between atoms: C5_6  and  N1_8 
REMARK    2  A    between atoms: N1_8  and  N2_9 
REMARK       I    between atoms: N2_9  and  C6_10 
REMARK    3  A    between atoms: C6_10  and  C7_12 
ROOT
ATOM      1  N2  <0> d           3.607  -2.118  -0.043  0.00  0.00    -0.263 N 
ATOM      2  C6  <0> d           3.626  -0.770  -0.036  0.00  0.00     0.272 C 
ATOM      3  O2  <0> d           4.688  -0.177  -0.043  0.00  0.00    -0.266 OA
ATOM      4  H8  <0> d           2.761  -2.591  -0.037  0.00  0.00     0.190 HD
ENDROOT
BRANCH   1   5
ATOM      5  N1  <0> d           4.811  -2.835  -0.058  0.00  0.00    -0.267 N 
ATOM      6  C5  <0> d           4.792  -4.183  -0.065  0.00  0.00     0.245 C 
ATOM      7  O1  <0> d           3.734  -4.775  -0.058  0.00  0.00    -0.271 OA
ATOM      8  H7  <0> d           5.658  -2.362  -0.064  0.00  0.00     0.190 HD
BRANCH   6   9
ATOM      9  C2  <0> d           6.087  -4.954  -0.081  0.00  0.00     0.053 A 
ATOM     10  C1  <0> d           7.230  -4.309  -0.867  0.00  0.00     0.027 C 
ATOM     11  C4  <0> d           6.452  -5.747   1.176  0.00  0.00     0.076 A 
ATOM     12  C3  <0> d           5.999  -6.482  -0.087  0.00  0.00     0.037 A 
ATOM     13 Br1  <0> d           8.355  -5.859   1.657  0.00  0.00    -0.090 Br
ENDBRANCH   6   9
ENDBRANCH   1   5
BRANCH   2  14
ATOM     14  C7  <0> d           2.359  -0.015  -0.021  0.00  0.00     0.056 A 
ATOM     15  C11 <0> d           1.155  -0.681  -0.013  0.00  0.00     0.163 A 
ATOM     16  O4  <0> d           0.002  -0.004   0.002  0.00  0.00    -0.287 OA
ATOM     17  C10 <0> d          -0.016   1.340   0.009  0.00  0.00     0.287 A 
ATOM     18  C9  <0> d           1.188   2.071   0.002  0.00  0.00     0.084 A 
ATOM     19  O3  <0> d          -1.082   1.930   0.018  0.00  0.00    -0.260 OA
ATOM     20  C8  <0> d           2.372   1.403  -0.013  0.00  0.00     0.025 A 
ENDBRANCH   2  14
TORSDOF 3
