REMARK  7 active torsions:
REMARK  status: ('A' for Active; 'I' for Inactive)
REMARK    1  A    between atoms: C2_2  and  O1_3 
REMARK    2  A    between atoms: O1_3  and  C3_4 
REMARK    3  A    between atoms: C3_4  and  C4_6 
REMARK    4  A    between atoms: C4_6  and  C5_7 
REMARK    5  A    between atoms: C4_6  and  N1_19 
REMARK    6  A    between atoms: C5_7  and  C6_8 
REMARK    7  A    between atoms: C11_13  and  O3_14 
ROOT
ATOM      1  C6  <0> d           3.678  -2.742  -3.606  0.00  0.00    -0.014 A 
ATOM      2  C7  <0> d           3.980  -4.077  -3.795  0.00  0.00    -0.035 A 
ATOM      3  C8  <0> d           4.617  -4.487  -4.952  0.00  0.00     0.024 A 
ATOM      4  C9  <0> d           4.954  -3.561  -5.924  0.00  0.00    -0.024 A 
ATOM      5  C10 <0> d           4.654  -2.224  -5.739  0.00  0.00     0.051 A 
ATOM      6  C11 <0> d           4.009  -1.813  -4.580  0.00  0.00     0.090 A 
ATOM      7 Br1  <0> d           5.115  -0.959  -7.066  0.00  0.00    -0.048 Br
ATOM      8  C12 <0> d           5.648  -4.009  -7.184  0.00  0.00     0.051 C 
ATOM      9 Br2  <0> d           5.029  -6.314  -5.207  0.00  0.00    -0.050 Br
ATOM     10  C13 <0> d           3.615  -5.088  -2.739  0.00  0.00     0.050 C 
ENDROOT
BRANCH   1  11
ATOM     11  C5  <0> d           2.983  -2.297  -2.345  0.00  0.00     0.085 C 
BRANCH  11  12
ATOM     12  C4  <0> d           1.468  -2.353  -2.550  0.00  0.00     0.286 C 
BRANCH  12  13
ATOM     13  C3  <0> d           0.775  -1.794  -1.334  0.00  0.00     0.289 C 
ATOM     14  O2  <0> d           0.314  -2.540  -0.504  0.00  0.00    -0.263 OA
BRANCH  13  15
ATOM     15  O1  <0> d           0.671  -0.465  -1.174  0.00  0.00    -0.320 OA
BRANCH  15  16
ATOM     16  C2  <0> d           0.002  -0.004   0.002  0.00  0.00     0.174 C 
ATOM     17  C1  <0> d          -0.019   1.526   0.010  0.00  0.00     0.034 C 
ENDBRANCH  15  16
ENDBRANCH  13  15
ENDBRANCH  12  13
BRANCH  12  18
ATOM     18  N1  <0> d           1.052  -3.748  -2.751  0.00  0.00    -0.066 N 
ATOM     19  H16 <0> d           1.302  -4.294  -1.940  0.00  0.00     0.275 HD
ATOM     20  H17 <0> d           0.053  -3.785  -2.886  0.00  0.00     0.275 HD
ATOM     21  H18 <0> d           1.516  -4.123  -3.565  0.00  0.00     0.275 HD
ENDBRANCH  12  18
ENDBRANCH  11  12
ENDBRANCH   1  11
BRANCH   6  22
ATOM     22  O3  <0> d           3.707  -0.500  -4.399  0.00  0.00    -0.359 OA
ATOM     23  H9  <0> d           4.403   0.007  -3.959  0.00  0.00     0.217 HD
ENDBRANCH   6  22
TORSDOF 7
