REMARK  11 active torsions:
REMARK  status: ('A' for Active; 'I' for Inactive)
REMARK    1  A    between atoms: C5_5  and  C8_8 
REMARK    2  A    between atoms: C8_8  and  O1_9 
REMARK    3  A    between atoms: O1_9  and  C9_10 
REMARK    4  A    between atoms: C12_13  and  C15_17 
REMARK    5  A    between atoms: C14_15  and  N1_16 
REMARK    6  A    between atoms: C15_17  and  C16_18 
REMARK    7  A    between atoms: C16_18  and  C17_19 
REMARK    8  A    between atoms: C17_19  and  N2_20 
REMARK    9  A    between atoms: N2_20  and  C19_22 
REMARK   10  A    between atoms: C19_22  and  C20_23 
REMARK   11  A    between atoms: C20_23  and  O2_24 
ROOT
ATOM      1  C9  <0> d           1.123  -5.938  -0.653  0.00  0.00     0.095 A 
ATOM      2  C10 <0> d           0.065  -6.830  -0.704  0.00  0.00     0.039 A 
ATOM      3  C11 <0> d           0.301  -8.190  -0.614  0.00  0.00     0.010 A 
ATOM      4  C12 <0> d           1.593  -8.663  -0.474  0.00  0.00    -0.056 A 
ATOM      5  C13 <0> d           2.654  -7.779  -0.424  0.00  0.00     0.039 A 
ATOM      6  C14 <0> d           2.425  -6.414  -0.519  0.00  0.00     0.060 A 
ENDROOT
BRANCH   4   7
ATOM      7  C15 <0> d           1.844 -10.146  -0.377  0.00  0.00     0.040 C 
BRANCH   7   8
ATOM      8  C16 <0> d           2.057 -10.720  -1.779  0.00  0.00     0.032 C 
BRANCH   8   9
ATOM      9  C17 <0> d           2.312 -12.226  -1.680  0.00  0.00     0.234 C 
BRANCH   9  10
ATOM     10  N2  <0> d           2.517 -12.777  -3.026  0.00  0.00    -0.073 N 
ATOM     11  C18 <0> d           3.743 -12.213  -3.605  0.00  0.00     0.269 C 
ATOM     12  H29 <0> d           1.729 -12.540  -3.610  0.00  0.00     0.279 HD
BRANCH  10  13
ATOM     13  C19 <0> d           2.642 -14.238  -2.942  0.00  0.00     0.260 C 
BRANCH  13  14
ATOM     14  C20 <0> d           1.310 -14.840  -2.490  0.00  0.00     0.192 C 
BRANCH  14  15
ATOM     15  O2  <0> d           0.315 -14.596  -3.487  0.00  0.00    -0.399 OA
ATOM     16  H28 <0> d          -0.557 -14.951  -3.267  0.00  0.00     0.209 HD
ENDBRANCH  14  15
ENDBRANCH  13  14
ENDBRANCH  10  13
ENDBRANCH   9  10
ENDBRANCH   8   9
ENDBRANCH   7   8
ENDBRANCH   4   7
BRANCH   6  17
ATOM     17  N1  <0> d           3.499  -5.517  -0.473  0.00  0.00    -0.397 N 
ATOM     18  H13 <0> d           3.337  -4.563  -0.536  0.00  0.00     0.156 HD
ATOM     19  H14 <0> d           4.405  -5.850  -0.380  0.00  0.00     0.156 HD
ENDBRANCH   6  17
BRANCH   1  20
ATOM     20  O1  <0> d           0.891  -4.601  -0.741  0.00  0.00    -0.344 OA
BRANCH  20  21
ATOM     21  C8  <0> d          -0.469  -4.185  -0.878  0.00  0.00     0.214 C 
BRANCH  21  22
ATOM     22  C5  <0> d          -0.529  -2.682  -0.959  0.00  0.00    -0.034 A 
ATOM     23  C4  <0> d          -0.456  -2.053  -2.188  0.00  0.00     0.010 A 
ATOM     24  C3  <0> d          -0.512  -0.673  -2.263  0.00  0.00     0.007 A 
ATOM     25  C2  <0> d          -0.642   0.077  -1.109  0.00  0.00    -0.062 A 
ATOM     26  C1  <0> d          -0.704   1.580  -1.190  0.00  0.00     0.048 C 
ATOM     27  C7  <0> d          -0.711  -0.552   0.120  0.00  0.00     0.007 A 
ATOM     28  C6  <0> d          -0.659  -1.931   0.195  0.00  0.00     0.010 A 
ENDBRANCH  21  22
ENDBRANCH  20  21
ENDBRANCH   1  20
TORSDOF 11
