REMARK  7 active torsions:
REMARK  status: ('A' for Active; 'I' for Inactive)
REMARK    1  A    between atoms: N1_5  and  C5_9 
REMARK    2  A    between atoms: C5_9  and  C6_10 
REMARK    3  A    between atoms: C6_10  and  C7_11 
REMARK    4  A    between atoms: C7_11  and  C8_12 
REMARK       I    between atoms: C8_12  and  N3_14 
REMARK    5  A    between atoms: N3_14  and  N4_15 
REMARK       I    between atoms: N4_15  and  C9_16 
REMARK    6  A    between atoms: C9_16  and  C10_18 
REMARK    7  A    between atoms: C13_21  and  C14_23 
ROOT
ATOM      1  C8  <0> d          -1.183  -2.069   0.002  0.00  0.00     0.236 C 
ATOM      2  O3  <0> d          -0.125  -2.661  -0.011  0.00  0.00    -0.272 OA
ATOM      3  N3  <0> d          -1.202  -0.721   0.010  0.00  0.00    -0.267 N 
ATOM      4  H11 <0> d          -2.048  -0.247   0.020  0.00  0.00     0.190 HD
ENDROOT
BRANCH   3   5
ATOM      5  N4  <0> d           0.002  -0.004   0.002  0.00  0.00    -0.263 N 
ATOM      6  C9  <0> d          -0.016   1.344   0.009  0.00  0.00     0.277 C 
ATOM      7  O4  <0> d          -1.079   1.938   0.018  0.00  0.00    -0.265 OA
ATOM      8  H12 <0> d           0.849  -0.478  -0.009  0.00  0.00     0.190 HD
BRANCH   6   9
ATOM      9  C10 <0> d           1.242   2.093   0.001  0.00  0.00     0.075 A 
ATOM     10  S1  <0> d           2.916   1.474  -0.018  0.00  0.00    -0.084 SA
ATOM     11  C13 <0> d           3.769   3.042  -0.018  0.00  0.00     0.016 A 
ATOM     12  C12 <0> d           2.718   3.946  -0.002  0.00  0.00     0.021 A 
ATOM     13  C11 <0> d           1.439   3.466   0.001  0.00  0.00     0.026 A 
BRANCH  11  14
ATOM     14  C14 <0> d           5.222   3.309  -0.030  0.00  0.00    -0.019 A 
ATOM     15  C19 <0> d           6.129   2.248  -0.045  0.00  0.00     0.016 A 
ATOM     16  C18 <0> d           7.484   2.502  -0.056  0.00  0.00     0.043 A 
ATOM     17  C17 <0> d           7.947   3.809  -0.053  0.00  0.00     0.116 A 
ATOM     18  C16 <0> d           7.051   4.866  -0.038  0.00  0.00     0.043 A 
ATOM     19  F1  <0> d           9.275   4.053  -0.065  0.00  0.00    -0.206 F 
ATOM     20  C15 <0> d           5.693   4.623  -0.032  0.00  0.00     0.016 A 
ENDBRANCH  11  14
ENDBRANCH   6   9
ENDBRANCH   3   5
BRANCH   1  21
ATOM     21  C7  <0> d          -2.478  -2.840   0.011  0.00  0.00     0.106 C 
BRANCH  21  22
ATOM     22  C6  <0> d          -2.178  -4.340  -0.001  0.00  0.00     0.030 C 
BRANCH  22  23
ATOM     23  C5  <0> d          -3.493  -5.123   0.008  0.00  0.00     0.137 C 
BRANCH  23  24
ATOM     24  N1  <0> d          -3.205  -6.560  -0.003  0.00  0.00    -0.268 N 
ATOM     25  C3  <0> d          -3.073  -7.297  -1.123  0.00  0.00     0.255 A 
ATOM     26  C2  <0> d          -2.782  -8.708  -0.652  0.00  0.00     0.108 A 
ATOM     27  O1  <0> d          -3.165  -6.911  -2.268  0.00  0.00    -0.270 OA
ATOM     28  C1  <0> d          -1.411  -9.173  -1.146  0.00  0.00     0.049 C 
ATOM     29  N2  <0> d          -2.793  -8.593   0.816  0.00  0.00    -0.325 N 
ATOM     30  C20 <0> d          -3.878  -9.665  -1.125  0.00  0.00     0.049 C 
ATOM     31  C4  <0> d          -3.048  -7.303   1.099  0.00  0.00     0.326 A 
ATOM     32  H4  <0> d          -2.646  -9.308   1.455  0.00  0.00     0.165 HD
ATOM     33  O2  <0> d          -3.126  -6.861   2.228  0.00  0.00    -0.247 OA
ENDBRANCH  23  24
ENDBRANCH  22  23
ENDBRANCH  21  22
ENDBRANCH   1  21
TORSDOF 7
