REMARK  3 active torsions:
REMARK  status: ('A' for Active; 'I' for Inactive)
REMARK    1  A    between atoms: C2_2  and  N1_9 
REMARK       I    between atoms: N1_9  and  C5_10 
REMARK    2  A    between atoms: C5_10  and  C6_12 
REMARK    3  A    between atoms: C6_12  and  O4_13 
ROOT
ATOM      1  C1  <0> d          -0.023   1.835   0.012  0.00  0.00     0.167 C 
ATOM      2  C2  <0> d           1.482   2.195  -0.000  0.00  0.00     0.117 C 
ATOM      3  C3  <0> d           2.296   1.074   0.667  0.00  0.00     0.119 C 
ATOM      4  C4  <0> d           1.821  -0.285   0.076  0.00  0.00     0.162 C 
ATOM      5  S1  <0> d           0.002  -0.004   0.002  0.00  0.00     0.147 S 
ATOM      6  O1  <0> d          -0.486  -0.466  -1.250  0.00  0.00    -0.228 OA
ATOM      7  O2  <0> d          -0.589  -0.481   1.203  0.00  0.00    -0.228 OA
ATOM      8 Cl1  <0> d           4.050   1.307   0.324  0.00  0.00    -0.122 Cl
ENDROOT
BRANCH   2   9
ATOM      9  N1  <0> d           1.931   2.362  -1.385  0.00  0.00    -0.352 N 
ATOM     10  C5  <0> d           2.999   3.137  -1.658  0.00  0.00     0.241 C 
ATOM     11  O3  <0> d           3.589   3.696  -0.758  0.00  0.00    -0.271 OA
ATOM     12  H7  <0> d           1.459   1.915  -2.105  0.00  0.00     0.163 HD
BRANCH  10  13
ATOM     13  C6  <0> d           3.461   3.309  -3.082  0.00  0.00     0.266 C 
BRANCH  13  14
ATOM     14  O4  <0> d           4.602   4.169  -3.113  0.00  0.00    -0.392 OA
ATOM     15  H10 <0> d           4.953   4.325  -4.000  0.00  0.00     0.210 HD
ENDBRANCH  13  14
ENDBRANCH  10  13
ENDBRANCH   2   9
TORSDOF 3
