REMARK  5 active torsions:
REMARK  status: ('A' for Active; 'I' for Inactive)
REMARK    1  A    between atoms: C2_2  and  N1_3 
REMARK    2  A    between atoms: C3_4  and  C5_9 
REMARK    3  A    between atoms: C5_9  and  N4_10 
REMARK       I    between atoms: N4_10  and  C6_11 
REMARK    4  A    between atoms: C6_11  and  C7_13 
REMARK    5  A    between atoms: C10_17  and  N5_18 
ROOT
ATOM      1  N4  <0> d          -2.731  -1.025   3.468  0.00  0.00    -0.350 N 
ATOM      2  C6  <0> d          -2.543  -0.961   4.801  0.00  0.00     0.255 C 
ATOM      3  O1  <0> d          -1.480  -0.571   5.247  0.00  0.00    -0.268 OA
ATOM      4  H9  <0> d          -3.578  -1.336   3.112  0.00  0.00     0.163 HD
ENDROOT
BRANCH   2   5
ATOM      5  C7  <0> d          -3.620  -1.361   5.713  0.00  0.00     0.073 A 
ATOM      6  C10 <0> d          -4.562  -0.454   6.171  0.00  0.00     0.097 A 
ATOM      7  S2  <0> d          -5.562  -1.366   7.162  0.00  0.00    -0.075 SA
ATOM      8  C9  <0> d          -4.779  -2.957   7.019  0.00  0.00    -0.012 A 
ATOM      9  C8  <0> d          -3.748  -2.720   6.186  0.00  0.00    -0.031 A 
ATOM     10  C15 <0> d          -5.174  -4.256   7.672  0.00  0.00     0.057 C 
ATOM     11  C16 <0> d          -2.789  -3.806   5.771  0.00  0.00     0.050 C 
BRANCH   6  12
ATOM     12  N5  <0> d          -4.657   0.902   5.875  0.00  0.00    -0.326 N 
ATOM     13  C14 <0> d          -5.609   1.758   6.354  0.00  0.00     0.097 A 
ATOM     14  C13 <0> d          -5.368   2.983   5.846  0.00  0.00     0.019 A 
ATOM     15  C12 <0> d          -4.233   2.881   5.016  0.00  0.00     0.019 A 
ATOM     16  C11 <0> d          -3.818   1.599   5.051  0.00  0.00     0.097 A 
ENDBRANCH   6  12
ENDBRANCH   2   5
BRANCH   1  17
ATOM     17  C5  <0> d          -1.656  -0.625   2.556  0.00  0.00     0.203 C 
BRANCH  17  18
ATOM     18  C3  <0> d          -2.118  -0.790   1.131  0.00  0.00     0.146 A 
ATOM     19  N1  <0> d          -1.372  -0.511   0.012  0.00  0.00    -0.308 N 
ATOM     20  C4  <0> d          -2.123  -0.778  -1.075  0.00  0.00     0.196 A 
ATOM     21  N3  <0> d          -3.319  -1.227  -0.639  0.00  0.00    -0.251 N 
ATOM     22  S1  <0> d          -1.646  -0.587  -2.708  0.00  0.00    -0.039 SA
ATOM     23  N2  <0> d          -3.282  -1.218   0.762  0.00  0.00    -0.157 NA
ATOM     24  H6  <0> d          -4.067  -1.501  -1.193  0.00  0.00     0.191 HD
BRANCH  19  25
ATOM     25  C2  <0> d           0.002  -0.004   0.002  0.00  0.00     0.128 C 
ATOM     26  C1  <0> d          -0.019   1.526   0.010  0.00  0.00     0.027 C 
ENDBRANCH  19  25
ENDBRANCH  17  18
ENDBRANCH   1  17
TORSDOF 5
