REMARK  2 active torsions:
REMARK  status: ('A' for Active; 'I' for Inactive)
REMARK    1  A    between atoms: C3_4  and  C13_17 
REMARK    2  A    between atoms: N2_5  and  C4_7 
ROOT
ATOM      1  C1  <0> d          -0.018   1.503   0.010  0.00  0.00     0.090 C 
ATOM      2  C2  <0> d           0.002  -0.004   0.002  0.00  0.00     0.089 A 
ATOM      3  N1  <0> d          -1.059  -0.733   0.003  0.00  0.00    -0.351 N 
ATOM      4  C3  <0> d          -0.655  -2.146  -0.007  0.00  0.00     0.258 A 
ATOM      5  N2  <0> d           0.818  -2.111  -0.015  0.00  0.00    -0.259 N 
ATOM      6  N3  <0> d           1.146  -0.745  -0.013  0.00  0.00    -0.285 N 
ATOM      7  H5  <0> d           2.047  -0.385  -0.020  0.00  0.00     0.188 HD
ATOM      8  H15 <0> d          -1.971  -0.405   0.010  0.00  0.00     0.163 HD
ENDROOT
BRANCH   4   9
ATOM      9  C13 <0> d          -1.161  -2.846   1.228  0.00  0.00     0.063 A 
ATOM     10  C16 <0> d          -1.974  -3.918   1.115  0.00  0.00     0.103 A 
ATOM     11  C15 <0> d          -2.433  -4.561   2.289  0.00  0.00     0.251 A 
ATOM     12  N6  <0> d          -2.056  -4.087   3.494  0.00  0.00    -0.275 N 
ATOM     13  O2  <0> d          -3.164  -5.532   2.213  0.00  0.00    -0.268 OA
ATOM     14  C14 <0> d          -1.248  -3.014   3.578  0.00  0.00     0.327 A 
ATOM     15  H12 <0> d          -2.369  -4.520   4.303  0.00  0.00     0.173 HD
ATOM     16  N5  <0> d          -0.801  -2.396   2.469  0.00  0.00    -0.308 N 
ATOM     17  O1  <0> d          -0.916  -2.597   4.671  0.00  0.00    -0.247 OA
ATOM     18  H14 <0> d          -0.220  -1.624   2.550  0.00  0.00     0.170 HD
ENDBRANCH   4   9
BRANCH   5  19
ATOM     19  C4  <0> d           1.694  -3.195  -0.026  0.00  0.00     0.083 A 
ATOM     20  C9  <0> d           2.691  -3.315   0.968  0.00  0.00     0.095 A 
ATOM     21  C8  <0> d           3.564  -4.430   0.935  0.00  0.00    -0.005 A 
ATOM     22  N4  <0> d           2.815  -2.400   1.933  0.00  0.00    -0.258 NA
ATOM     23  C7  <0> d           3.433  -5.387  -0.084  0.00  0.00     0.014 A 
ATOM     24  C12 <0> d           4.553  -4.550   1.930  0.00  0.00     0.015 A 
ATOM     25  C6  <0> d           2.466  -5.243  -1.032  0.00  0.00     0.003 A 
ATOM     26  C5  <0> d           1.598  -4.156  -1.009  0.00  0.00     0.034 A 
ATOM     27  C11 <0> d           4.633  -3.573   2.881  0.00  0.00     0.020 A 
ATOM     28  C10 <0> d           3.738  -2.506   2.857  0.00  0.00     0.117 A 
ENDBRANCH   5  19
TORSDOF 2
