REMARK  3 active torsions:
REMARK  status: ('A' for Active; 'I' for Inactive)
REMARK    1  A    between atoms: C3_3  and  N2_11 
REMARK    2  A    between atoms: C4_4  and  C7_8 
REMARK    3  A    between atoms: N2_11  and  C8_12 
ROOT
ATOM      1  C1  <0> d          -0.007   1.367  -0.211  0.00  0.00     0.026 A 
ATOM      2  C2  <0> d           1.162   2.094  -0.103  0.00  0.00     0.032 A 
ATOM      3  C3  <0> d           2.370   1.442   0.104  0.00  0.00     0.042 A 
ATOM      4  C4  <0> d           2.396   0.041   0.203  0.00  0.00     0.029 A 
ATOM      5  C5  <0> d           1.204  -0.681   0.092  0.00  0.00     0.040 A 
ATOM      6  C6  <0> d           0.014  -0.015  -0.114  0.00  0.00     0.035 A 
ATOM      7 Cl1  <0> d          -1.465  -0.914  -0.252  0.00  0.00    -0.084 Cl
ENDROOT
BRANCH   3   8
ATOM      8  N2  <0> d           3.548   2.171   0.213  0.00  0.00    -0.382 N 
ATOM      9  H8  <0> d           4.399   1.711   0.276  0.00  0.00     0.160 HD
BRANCH   8  10
ATOM     10  C8  <0> d           3.503   3.635   0.232  0.00  0.00     0.114 C 
ATOM     11  C11 <0> d           4.755   4.202   0.909  0.00  0.00     0.210 C 
ATOM     12  N3  <0> d           5.714   4.378  -0.220  0.00  0.00    -0.065 N 
ATOM     13  C12 <0> d           5.398   3.263   1.920  0.00  0.00     0.035 C 
ATOM     14  C10 <0> d           4.894   4.997  -1.273  0.00  0.00     0.237 C 
ATOM     15  C15 <0> d           6.827   5.187   0.259  0.00  0.00     0.235 C 
ATOM     16  H21 <0> d           6.052   3.480  -0.532  0.00  0.00     0.280 HD
ATOM     17  C9  <0> d           3.563   4.199  -1.211  0.00  0.00     0.055 C 
ATOM     18  C14 <0> d           7.583   4.366   1.322  0.00  0.00     0.028 C 
ATOM     19  C13 <0> d           6.653   3.963   2.466  0.00  0.00     0.004 C 
ENDBRANCH   8  10
ENDBRANCH   3   8
BRANCH   4  20
ATOM     20  C7  <0> d           3.670  -0.663   0.423  0.00  0.00     0.106 C 
ATOM     21  S1  <0> d           4.601  -1.185  -0.915  0.00  0.00    -0.060 SA
ATOM     22  N1  <0> d           4.104  -0.895   1.678  0.00  0.00    -0.389 N 
ATOM     23  H6  <0> d           3.577  -0.599   2.436  0.00  0.00     0.157 HD
ATOM     24  H7  <0> d           4.944  -1.359   1.822  0.00  0.00     0.157 HD
ENDBRANCH   4  20
TORSDOF 3
