REMARK  3 active torsions:
REMARK  status: ('A' for Active; 'I' for Inactive)
REMARK    1  A    between atoms: C3_3  and  C7_9 
REMARK    2  A    between atoms: C6_6  and  N1_7 
REMARK    3  A    between atoms: N5_13  and  C8_14 
ROOT
ATOM      1  C7  <0> d           3.655   2.169  -0.029  0.00  0.00     0.183 A 
ATOM      2  N2  <0> d           3.788   3.477  -0.107  0.00  0.00    -0.108 NA
ATOM      3  N3  <0> d           5.029   3.805  -0.080  0.00  0.00    -0.023 NA
ATOM      4  N4  <0> d           5.770   2.755   0.016  0.00  0.00    -0.044 NA
ATOM      5  N5  <0> d           4.905   1.647   0.059  0.00  0.00    -0.224 N 
ENDROOT
BRANCH   1   6
ATOM      6  C3  <0> d           2.385   1.412  -0.030  0.00  0.00     0.035 A 
ATOM      7  C2  <0> d           2.159   0.423   0.928  0.00  0.00     0.019 A 
ATOM      8  C1  <0> d           0.975  -0.280   0.925  0.00  0.00     0.030 A 
ATOM      9  C6  <0> d           0.003  -0.006  -0.031  0.00  0.00     0.027 A 
ATOM     10  C5  <0> d           0.224   0.979  -0.988  0.00  0.00     0.053 A 
ATOM     11  C4  <0> d           1.408   1.686  -0.990  0.00  0.00     0.050 A 
ATOM     12 Cl1  <0> d           1.683   2.915  -2.185  0.00  0.00    -0.083 Cl
BRANCH   9  13
ATOM     13  N1  <0> d          -1.194  -0.720  -0.032  0.00  0.00    -0.399 N 
ATOM     14  H5  <0> d          -1.349  -1.407   0.635  0.00  0.00     0.156 HD
ATOM     15  H6  <0> d          -1.872  -0.530  -0.698  0.00  0.00     0.156 HD
ENDBRANCH   9  13
ENDBRANCH   1   6
BRANCH   5  16
ATOM     16  C8  <0> d           5.273   0.234   0.171  0.00  0.00     0.129 C 
ATOM     17  C11 <0> d           5.933  -0.017   1.549  0.00  0.00     0.167 C 
ATOM     18  S1  <0> d           7.130  -1.364   1.185  0.00  0.00     0.146 S 
ATOM     19  C10 <0> d           6.869  -1.521  -0.632  0.00  0.00     0.142 C 
ATOM     20  O1  <0> d           6.691  -2.557   1.820  0.00  0.00    -0.228 OA
ATOM     21  O2  <0> d           8.447  -0.889   1.424  0.00  0.00    -0.228 OA
ATOM     22  C9  <0> d           6.257  -0.128  -0.954  0.00  0.00     0.043 C 
ENDBRANCH   5  16
TORSDOF 3
