REMARK  5 active torsions:
REMARK  status: ('A' for Active; 'I' for Inactive)
REMARK    1  A    between atoms: N1_2  and  C2_3 
REMARK    2  A    between atoms: C5_6  and  N3_19 
REMARK    3  A    between atoms: C7_8  and  C8_9 
REMARK    4  A    between atoms: C8_9  and  N2_10 
REMARK    5  A    between atoms: N2_10  and  C10_12 
ROOT
ATOM      1  C2  <0> d           0.606  -0.689  -1.055  0.00  0.00     0.035 A 
ATOM      2  C3  <0> d           1.194   0.018  -2.097  0.00  0.00     0.032 A 
ATOM      3  C4  <0> d           1.791  -0.661  -3.140  0.00  0.00     0.038 A 
ATOM      4  C5  <0> d           1.804  -2.044  -3.149  0.00  0.00     0.103 A 
ATOM      5  C6  <0> d           1.220  -2.751  -2.114  0.00  0.00     0.047 A 
ATOM      6  C7  <0> d           0.626  -2.077  -1.064  0.00  0.00    -0.004 A 
ENDROOT
BRANCH   6   7
ATOM      7  C8  <0> d          -0.005  -2.848   0.066  0.00  0.00     0.275 C 
BRANCH   7   8
ATOM      8  N2  <0> d          -1.460  -2.904  -0.131  0.00  0.00    -0.066 N 
ATOM      9  C9  <0> d          -1.760  -3.678  -1.344  0.00  0.00     0.270 C 
ATOM     10  H20 <0> d          -1.822  -1.968  -0.231  0.00  0.00     0.280 HD
BRANCH   8  11
ATOM     11  C10 <0> d          -2.087  -3.551   1.029  0.00  0.00     0.202 C 
ATOM     12  C13 <0> d          -1.772  -2.737   2.317  0.00  0.00     0.173 C 
ATOM     13  S1  <0> d          -3.103  -3.348   3.435  0.00  0.00     0.146 S 
ATOM     14  C12 <0> d          -4.299  -3.961   2.179  0.00  0.00     0.142 C 
ATOM     15  O1  <0> d          -2.610  -4.452   4.182  0.00  0.00    -0.228 OA
ATOM     16  O2  <0> d          -3.677  -2.242   4.119  0.00  0.00    -0.228 OA
ATOM     17  C11 <0> d          -3.613  -3.582   0.844  0.00  0.00     0.049 C 
ENDBRANCH   8  11
ENDBRANCH   7   8
ENDBRANCH   6   7
BRANCH   1  18
ATOM     18  N1  <0> d           0.002  -0.004   0.002  0.00  0.00    -0.394 N 
ATOM     19  C1  <0> d          -0.018   1.461   0.010  0.00  0.00     0.146 C 
ATOM     20  H5  <0> d          -0.404  -0.499   0.731  0.00  0.00     0.159 HD
ENDBRANCH   1  18
BRANCH   4  21
ATOM     21  N3  <0> d           2.445  -2.770  -4.269  0.00  0.00    -0.116 N 
ATOM     22  O3  <0> d           2.956  -2.153  -5.174  0.00  0.00    -0.532 OA
ATOM     23  O4  <0> d           2.457  -3.978  -4.277  0.00  0.00    -0.532 OA
ENDBRANCH   4  21
TORSDOF 5
