REMARK  8 active torsions:
REMARK  status: ('A' for Active; 'I' for Inactive)
REMARK    1  A    between atoms: O1_2  and  C2_3 
REMARK    2  A    between atoms: C5_6  and  S2_24 
REMARK    3  A    between atoms: C7_8  and  C8_9 
REMARK       I    between atoms: C8_9  and  N1_11 
REMARK    4  A    between atoms: N1_11  and  C9_12 
REMARK    5  A    between atoms: C9_12  and  C10_13 
REMARK    6  A    between atoms: C10_13  and  C11_14 
REMARK    7  A    between atoms: C10_13  and  N2_19 
REMARK    8  A    between atoms: S2_24  and  N3_27 
ROOT
ATOM      1  C8  <0> d          -3.751   1.838  -3.817  0.00  0.00     0.254 C 
ATOM      2  O2  <0> d          -3.489   2.155  -4.961  0.00  0.00    -0.268 OA
ATOM      3  N1  <0> d          -2.767   1.447  -2.984  0.00  0.00    -0.354 N 
ATOM      4  H8  <0> d          -3.004   1.160  -1.949  0.00  0.00     0.162 HD
ENDROOT
BRANCH   1   5
ATOM      5  C7  <0> d          -5.147   1.881  -3.341  0.00  0.00     0.066 A 
ATOM      6  C2  <0> d          -6.174   2.287  -4.204  0.00  0.00     0.084 A 
ATOM      7  C3  <0> d          -7.482   2.324  -3.745  0.00  0.00     0.039 A 
ATOM      8  C4  <0> d          -7.770   1.961  -2.444  0.00  0.00     0.027 A 
ATOM      9  C5  <0> d          -6.758   1.559  -1.588  0.00  0.00     0.075 A 
ATOM     10  C6  <0> d          -5.453   1.512  -2.028  0.00  0.00     0.044 A 
BRANCH   6  11
ATOM     11  O1  <0> d          -5.889   2.643  -5.481  0.00  0.00    -0.355 OA
ATOM     12  C1  <0> d          -6.987   3.046  -6.302  0.00  0.00     0.210 C 
ENDBRANCH   6  11
BRANCH   9  13
ATOM     13  S2  <0> d          -7.142   1.099   0.069  0.00  0.00     0.239 S 
ATOM     14  O3  <0> d          -5.954   1.285   0.827  0.00  0.00    -0.206 OA
ATOM     15  O4  <0> d          -8.364   1.746   0.397  0.00  0.00    -0.206 OA
BRANCH  13  16
ATOM     16  N3  <0> d          -7.452  -0.527   0.066  0.00  0.00    -0.225 NA
ATOM     17  H22 <0> d          -7.697  -0.856   1.087  0.00  0.00     0.136 HD
ATOM     18  H23 <0> d          -6.564  -1.070  -0.290  0.00  0.00     0.136 HD
ENDBRANCH  13  16
ENDBRANCH   9  13
ENDBRANCH   1   5
BRANCH   3  19
ATOM     19  C9  <0> d          -1.381   1.404  -3.457  0.00  0.00     0.161 C 
BRANCH  19  20
ATOM     20  C10 <0> d          -0.488   0.807  -2.367  0.00  0.00     0.245 C 
BRANCH  20  21
ATOM     21  C11 <0> d          -0.881  -0.627  -2.126  0.00  0.00     0.015 A 
ATOM     22  S1  <0> d          -0.459  -2.082  -3.072  0.00  0.00    -0.104 SA
ATOM     23  C14 <0> d          -1.329  -3.286  -2.082  0.00  0.00     0.050 A 
ATOM     24  C13 <0> d          -1.880  -2.511  -1.117  0.00  0.00     0.008 A 
ATOM     25  C12 <0> d          -1.650  -1.148  -1.139  0.00  0.00     0.017 A 
ENDBRANCH  20  21
BRANCH  20  26
ATOM     26  N2  <0> d           0.915   0.866  -2.797  0.00  0.00    -0.061 N 
ATOM     27  C18 <0> d           1.346   2.270  -3.021  0.00  0.00     0.236 C 
ATOM     28  C17 <0> d           2.886   2.224  -2.926  0.00  0.00     0.029 C 
ATOM     29  C16 <0> d           3.200   0.974  -2.074  0.00  0.00     0.029 C 
ATOM     30  C15 <0> d           1.821   0.373  -1.728  0.00  0.00     0.236 C 
ATOM     31  H24 <0> d           0.964   0.255  -3.711  0.00  0.00     0.280 HD
ENDBRANCH  20  26
ENDBRANCH  19  20
ENDBRANCH   3  19
TORSDOF 8
