REMARK  6 active torsions:
REMARK  status: ('A' for Active; 'I' for Inactive)
REMARK    1  A    between atoms: C6_6  and  N2_8 
REMARK    2  A    between atoms: N2_8  and  C7_9 
REMARK    3  A    between atoms: C8_10  and  N7_31 
REMARK    4  A    between atoms: C9_11  and  N5_15 
REMARK    5  A    between atoms: N6_18  and  C15_21 
REMARK    6  A    between atoms: C15_21  and  C16_22 
ROOT
ATOM      1  C7  <0> d          -1.072  -5.117   1.834  0.00  0.00     0.160 A 
ATOM      2  C8  <0> d          -1.115  -5.924   2.972  0.00  0.00     0.118 A 
ATOM      3  C9  <0> d           0.094  -6.359   3.518  0.00  0.00     0.157 A 
ATOM      4  N3  <0> d           1.233  -5.990   2.937  0.00  0.00    -0.222 NA
ATOM      5  C10 <0> d           1.229  -5.227   1.862  0.00  0.00     0.237 A 
ATOM      6  N4  <0> d           0.110  -4.800   1.313  0.00  0.00    -0.222 NA
ENDROOT
BRANCH   3   7
ATOM      7  N5  <0> d           0.109  -7.163   4.651  0.00  0.00    -0.361 N 
ATOM      8  C14 <0> d          -0.031  -8.624   4.543  0.00  0.00     0.152 C 
ATOM      9  C13 <0> d           1.105  -9.276   5.347  0.00  0.00     0.255 C 
ATOM     10  N6  <0> d           1.083  -8.766   6.723  0.00  0.00    -0.064 N 
ATOM     11  C12 <0> d           1.374  -7.327   6.728  0.00  0.00     0.255 C 
ATOM     12  H26 <0> d           0.171  -8.924   7.125  0.00  0.00     0.280 HD
ATOM     13  C11 <0> d           0.258  -6.578   5.993  0.00  0.00     0.152 C 
BRANCH  10  14
ATOM     14  C15 <0> d           2.094  -9.471   7.522  0.00  0.00     0.273 C 
BRANCH  14  15
ATOM     15  C16 <0> d           1.729 -10.930   7.620  0.00  0.00    -0.030 A 
ATOM     16  C21 <0> d           2.190 -11.822   6.671  0.00  0.00     0.048 A 
ATOM     17  C20 <0> d           1.860 -13.164   6.762  0.00  0.00     0.105 A 
ATOM     18  C19 <0> d           1.054 -13.610   7.807  0.00  0.00     0.105 A 
ATOM     19  O1  <0> d           2.182 -14.231   5.974  0.00  0.00    -0.323 OA
ATOM     20  C18 <0> d           0.591 -12.709   8.752  0.00  0.00     0.040 A 
ATOM     21  O2  <0> d           0.871 -14.956   7.673  0.00  0.00    -0.323 OA
ATOM     22  C17 <0> d           0.929 -11.372   8.658  0.00  0.00     0.012 A 
ATOM     23  C22 <0> d           1.904 -15.397   6.773  0.00  0.00     0.352 C 
ENDBRANCH  14  15
ENDBRANCH  10  14
ENDBRANCH   3   7
BRANCH   2  24
ATOM     24  N7  <0> d          -2.341  -6.288   3.553  0.00  0.00    -0.393 N 
ATOM     25  H24 <0> d          -3.174  -6.042   3.122  0.00  0.00     0.156 HD
ATOM     26  H25 <0> d          -2.354  -6.787   4.385  0.00  0.00     0.156 HD
ENDBRANCH   2  24
BRANCH   1  27
ATOM     27  N2  <0> d          -2.248  -4.657   1.250  0.00  0.00    -0.324 N 
ATOM     28  H7  <0> d          -3.102  -4.834   1.675  0.00  0.00     0.169 HD
BRANCH  27  29
ATOM     29  C6  <0> d          -2.199  -3.943   0.057  0.00  0.00     0.129 A 
ATOM     30  C5  <0> d          -3.382  -3.580  -0.578  0.00  0.00     0.050 A 
ATOM     31  C4  <0> d          -3.318  -2.870  -1.764  0.00  0.00     0.006 A 
ATOM     32  C3  <0> d          -2.070  -2.546  -2.276  0.00  0.00     0.027 A 
ATOM     33  C2  <0> d          -0.936  -2.938  -1.593  0.00  0.00     0.033 A 
ATOM     34  C1  <0> d           0.423  -2.590  -2.144  0.00  0.00     0.070 C 
ATOM     35  N1  <0> d          -1.026  -3.619  -0.466  0.00  0.00    -0.236 NA
ENDBRANCH  27  29
ENDBRANCH   1  27
TORSDOF 6
