REMARK  4 active torsions:
REMARK  status: ('A' for Active; 'I' for Inactive)
REMARK    1  A    between atoms: C6_6  and  N1_7 
REMARK    2  A    between atoms: C7_9  and  C13_19 
REMARK    3  A    between atoms: N3_10  and  C8_11 
REMARK    4  A    between atoms: C8_11  and  C9_12 
ROOT
ATOM      1  C1  <0> d          -0.017   1.389   0.010  0.00  0.00     0.031 A 
ATOM      2  C2  <0> d           1.162   2.102   0.002  0.00  0.00     0.034 A 
ATOM      3  C3  <0> d           2.377   1.432  -0.013  0.00  0.00     0.065 A 
ATOM      4  C4  <0> d           2.405   0.027  -0.021  0.00  0.00     0.087 A 
ATOM      5  C5  <0> d           1.204  -0.686  -0.013  0.00  0.00     0.063 A 
ATOM      6  C6  <0> d           0.002  -0.004   0.002  0.00  0.00     0.028 A 
ATOM      7  N2  <0> d           3.712  -0.343  -0.035  0.00  0.00    -0.233 NA
ATOM      8  C7  <0> d           4.467   0.717  -0.037  0.00  0.00     0.111 A 
ATOM      9  N3  <0> d           3.699   1.839  -0.023  0.00  0.00    -0.332 N 
ENDROOT
BRANCH   9  10
ATOM     10  C8  <0> d           4.181   3.222  -0.021  0.00  0.00     0.136 C 
BRANCH  10  11
ATOM     11  C9  <0> d           4.364   3.696   1.422  0.00  0.00     0.019 C 
ATOM     12  C12 <0> d           4.729   5.200   1.427  0.00  0.00     0.146 C 
ATOM     13  S1  <0> d           5.806   5.350   2.909  0.00  0.00     0.144 S 
ATOM     14  C11 <0> d           5.862   3.583   3.426  0.00  0.00     0.141 C 
ATOM     15  O1  <0> d           5.124   6.102   3.903  0.00  0.00    -0.228 OA
ATOM     16  O2  <0> d           7.106   5.753   2.498  0.00  0.00    -0.228 OA
ATOM     17  C10 <0> d           5.486   2.883   2.089  0.00  0.00     0.022 C 
ENDBRANCH  10  11
ENDBRANCH   9  10
BRANCH   8  18
ATOM     18  C13 <0> d           5.974   0.703  -0.051  0.00  0.00     0.056 A 
ATOM     19  C15 <0> d           6.685   0.011   1.114  0.00  0.00     0.013 A 
ATOM     20  C14 <0> d           6.666  -0.644  -0.268  0.00  0.00     0.013 A 
ENDBRANCH   8  18
BRANCH   6  21
ATOM     21  N1  <0> d          -1.202  -0.716   0.010  0.00  0.00    -0.399 N 
ATOM     22  H5  <0> d          -2.047  -0.240   0.021  0.00  0.00     0.156 HD
ATOM     23  H6  <0> d          -1.192  -1.686   0.005  0.00  0.00     0.156 HD
ENDBRANCH   6  21
TORSDOF 4
