REMARK  4 active torsions:
REMARK  status: ('A' for Active; 'I' for Inactive)
REMARK    1  A    between atoms: C3_3  and  C7_9 
REMARK    2  A    between atoms: C9_13  and  C10_15 
REMARK    3  A    between atoms: N5_19  and  C14_21 
REMARK    4  A    between atoms: C14_21  and  C15_22 
ROOT
ATOM      1  C7  <0> d           0.986  -0.532  -0.291  0.00  0.00     0.088 A 
ATOM      2  C8  <0> d          -0.354  -0.325  -0.227  0.00  0.00     0.122 A 
ATOM      3  N3  <0> d          -0.552   1.018  -0.409  0.00  0.00    -0.352 N 
ATOM      4  H1  <0> d          -1.573   1.429  -0.397  0.00  0.00     0.166 HD
ATOM      5  C9  <0> d           0.661   1.586  -0.577  0.00  0.00     0.110 A 
ATOM      6  N4  <0> d           1.577   0.660  -0.506  0.00  0.00    -0.233 NA
ENDROOT
BRANCH   5   7
ATOM      7  C10 <0> d           0.916   3.053  -0.809  0.00  0.00     0.082 C 
ATOM      8  C13 <0> d           0.786   3.407  -2.307  0.00  0.00     0.139 C 
ATOM      9  N5  <0> d           0.178   4.742  -2.343  0.00  0.00    -0.346 N 
ATOM     10  C12 <0> d          -0.391   5.051  -1.165  0.00  0.00     0.221 C 
ATOM     11  C11 <0> d          -0.205   3.915  -0.183  0.00  0.00     0.117 C 
ATOM     12  O1  <0> d          -0.969   6.090  -0.924  0.00  0.00    -0.273 OA
BRANCH   9  13
ATOM     13  C14 <0> d           0.189   5.625  -3.512  0.00  0.00     0.185 C 
BRANCH  13  14
ATOM     14  C15 <0> d          -1.031   5.357  -4.355  0.00  0.00     0.052 A 
ATOM     15  N6  <0> d          -1.007   4.387  -5.247  0.00  0.00    -0.264 NA
ATOM     16  C19 <0> d          -2.053   4.114  -6.003  0.00  0.00     0.117 A 
ATOM     17  C18 <0> d          -3.217   4.851  -5.892  0.00  0.00     0.019 A 
ATOM     18  C17 <0> d          -3.278   5.883  -4.968  0.00  0.00     0.003 A 
ATOM     19  C16 <0> d          -2.161   6.136  -4.187  0.00  0.00     0.029 A 
ENDBRANCH  13  14
ENDBRANCH   9  13
ENDBRANCH   5   7
BRANCH   1  20
ATOM     20  C3  <0> d           1.678  -1.840  -0.150  0.00  0.00     0.044 A 
ATOM     21  C2  <0> d           1.432  -2.808   0.842  0.00  0.00     0.065 A 
ATOM     22  C1  <0> d           0.417  -2.700   1.951  0.00  0.00     0.073 C 
ATOM     23  N2  <0> d           2.236  -3.817   0.634  0.00  0.00    -0.177 NA
ATOM     24  N1  <0> d           3.020  -3.536  -0.491  0.00  0.00    -0.278 N 
ATOM     25  C4  <0> d           2.662  -2.322  -0.961  0.00  0.00     0.041 A 
ATOM     26  C5  <0> d           4.049  -4.409  -1.062  0.00  0.00     0.179 C 
ATOM     27  C6  <0> d           3.245  -1.625  -2.163  0.00  0.00     0.071 C 
ENDBRANCH   1  20
TORSDOF 4
