REMARK  5 active torsions:
REMARK  status: ('A' for Active; 'I' for Inactive)
REMARK    1  A    between atoms: N1_2  and  C2_3 
REMARK    2  A    between atoms: N1_2  and  C6_9 
REMARK    3  A    between atoms: C2_3  and  C3_4 
REMARK    4  A    between atoms: C6_9  and  C7_10 
REMARK       I    between atoms: C7_10  and  N3_12 
REMARK    5  A    between atoms: N3_12  and  C8_13 
ROOT
ATOM      1  C6  <0> d           0.713  -0.491   1.192  0.00  0.00     0.337 C 
ENDROOT
BRANCH   1   2
ATOM      2  N1  <0> d           0.002  -0.004   0.002  0.00  0.00    -0.061 N 
ATOM      3  C1  <0> d          -0.018   1.465   0.010  0.00  0.00     0.270 C 
ATOM      4  H12 <0> d           0.474  -0.330  -0.828  0.00  0.00     0.280 HD
BRANCH   2   5
ATOM      5  C2  <0> d          -1.376  -0.512   0.012  0.00  0.00     0.294 C 
BRANCH   5   6
ATOM      6  C3  <0> d          -2.067  -0.116  -1.267  0.00  0.00     0.067 A 
ATOM      7  N2  <0> d          -2.649   1.059  -1.400  0.00  0.00    -0.256 NA
ATOM      8  C5  <0> d          -3.245   1.402  -2.515  0.00  0.00     0.166 A 
ATOM      9  S1  <0> d          -3.038   0.048  -3.493  0.00  0.00    -0.092 SA
ATOM     10  C4  <0> d          -2.125  -0.956  -2.332  0.00  0.00     0.080 A 
ENDBRANCH   5   6
ENDBRANCH   2   5
ENDBRANCH   1   2
BRANCH   1  11
ATOM     11  C7  <0> d           2.158  -0.072   1.120  0.00  0.00     0.249 C 
ATOM     12  O1  <0> d           2.558   0.569   0.171  0.00  0.00    -0.271 OA
ATOM     13  N3  <0> d           3.008  -0.409   2.111  0.00  0.00    -0.303 N 
ATOM     14  H10 <0> d           2.688  -0.922   2.870  0.00  0.00     0.171 HD
BRANCH  13  15
ATOM     15  C8  <0> d           4.342  -0.023   2.044  0.00  0.00     0.196 A 
ATOM     16  S2  <0> d           5.590  -0.316   3.140  0.00  0.00    -0.041 SA
ATOM     17  C9  <0> d           6.877   0.530   2.234  0.00  0.00     0.194 A 
ATOM     18  N5  <0> d           6.191   0.949   1.189  0.00  0.00    -0.153 NA
ATOM     19  N4  <0> d           4.961   0.673   1.111  0.00  0.00    -0.124 NA
ENDBRANCH  13  15
ENDBRANCH   1  11
TORSDOF 5
