REMARK  3 active torsions:
REMARK  status: ('A' for Active; 'I' for Inactive)
REMARK    1  A    between atoms: C9_9  and  N1_11 
REMARK    2  A    between atoms: N1_11  and  C11_12 
REMARK    3  A    between atoms: C20_23  and  N3_26 
ROOT
ATOM      1  C11 <0> d          -4.086   0.661   2.579  0.00  0.00     0.236 C 
ATOM      2  C12 <0> d          -3.726  -0.730   3.114  0.00  0.00     0.040 C 
ATOM      3  C13 <0> d          -5.008  -1.479   3.488  0.00  0.00     0.007 C 
ATOM      4  C14 <0> d          -5.635  -0.833   4.729  0.00  0.00     0.042 C 
ATOM      5  C15 <0> d          -5.721   0.655   4.503  0.00  0.00    -0.021 A 
ATOM      6  C16 <0> d          -5.036   1.323   3.549  0.00  0.00     0.048 A 
ATOM      7  N2  <0> d          -5.339   2.658   3.610  0.00  0.00    -0.357 N 
ATOM      8  H3  <0> d          -4.871   3.361   2.904  0.00  0.00     0.166 HD
ATOM      9  C17 <0> d          -6.235   2.884   4.614  0.00  0.00     0.043 A 
ATOM     10  C18 <0> d          -6.514   1.632   5.220  0.00  0.00     0.001 A 
ATOM     11  C19 <0> d          -7.405   1.526   6.292  0.00  0.00     0.050 A 
ATOM     12  C20 <0> d          -7.994   2.689   6.726  0.00  0.00     0.103 A 
ATOM     13  C21 <0> d          -7.726   3.913   6.138  0.00  0.00     0.038 A 
ATOM     14  C22 <0> d          -6.848   4.047   5.076  0.00  0.00     0.033 A 
ENDROOT
BRANCH   1  15
ATOM     15  N1  <0> d          -2.867   1.471   2.451  0.00  0.00    -0.061 N 
ATOM     16  H14 <0> d          -2.182   1.209   3.271  0.00  0.00     0.278 HD
ATOM     17  H24 <0> d          -3.141   2.534   2.527  0.00  0.00     0.278 HD
BRANCH  15  18
ATOM     18  C9  <0> d          -2.205   1.226   1.163  0.00  0.00     0.191 C 
ATOM     19  C8  <0> d          -0.717   1.573   1.273  0.00  0.00     0.038 C 
ATOM     20  C7  <0> d          -0.013   1.086   0.008  0.00  0.00     0.041 C 
ATOM     21  C5  <0> d          -0.731   1.580  -1.221  0.00  0.00    -0.052 A 
ATOM     22  C4  <0> d          -2.025   2.048  -1.185  0.00  0.00    -0.050 A 
ATOM     23  C6  <0> d          -0.042   1.552  -2.427  0.00  0.00     0.007 A 
ATOM     24  C3  <0> d          -2.632   2.483  -2.356  0.00  0.00     0.007 A 
ATOM     25  C10 <0> d          -2.828   2.115   0.088  0.00  0.00     0.072 C 
ATOM     26  C2  <0> d          -1.947   2.452  -3.554  0.00  0.00     0.001 A 
ATOM     27  C1  <0> d          -0.646   1.986  -3.589  0.00  0.00     0.001 A 
ENDBRANCH  15  18
ENDBRANCH   1  15
BRANCH  12  28
ATOM     28  N3  <0> d          -8.946   2.630   7.858  0.00  0.00    -0.116 N 
ATOM     29  O1  <0> d          -9.479   3.650   8.259  0.00  0.00    -0.532 OA
ATOM     30  O2  <0> d          -9.195   1.563   8.390  0.00  0.00    -0.532 OA
ENDBRANCH  12  28
TORSDOF 3
