REMARK  5 active torsions:
REMARK  status: ('A' for Active; 'I' for Inactive)
REMARK    1  A    between atoms: C10_11  and  N2_12 
REMARK    2  A    between atoms: N2_12  and  C11_13 
REMARK    3  A    between atoms: C12_14  and  N6_31 
REMARK    4  A    between atoms: C13_15  and  O1_19 
REMARK    5  A    between atoms: O1_19  and  C15_20 
ROOT
ATOM      1  C11 <0> d           0.191  -6.268  -1.087  0.00  0.00     0.160 A 
ATOM      2  C12 <0> d           0.305  -7.019  -2.260  0.00  0.00     0.126 A 
ATOM      3  C13 <0> d           0.428  -8.403  -2.147  0.00  0.00     0.201 A 
ATOM      4  N3  <0> d           0.433  -8.953  -0.937  0.00  0.00    -0.215 NA
ATOM      5  C14 <0> d           0.324  -8.210   0.146  0.00  0.00     0.238 A 
ATOM      6  N4  <0> d           0.210  -6.899   0.085  0.00  0.00    -0.222 NA
ENDROOT
BRANCH   1   7
ATOM      7  N2  <0> d           0.066  -4.885  -1.142  0.00  0.00    -0.338 N 
ATOM      8  H9  <0> d          -0.030  -4.441  -1.999  0.00  0.00     0.167 HD
BRANCH   7   9
ATOM      9  C10 <0> d           0.079  -4.137   0.033  0.00  0.00     0.046 A 
ATOM     10  C5  <0> d          -0.542  -2.871   0.078  0.00  0.00     0.017 A 
ATOM     11  C4  <0> d          -1.185  -2.331  -1.048  0.00  0.00     0.018 A 
ATOM     12  C6  <0> d          -0.519  -2.124   1.282  0.00  0.00     0.044 A 
ATOM     13  C3  <0> d          -1.765  -1.099  -0.932  0.00  0.00     0.025 A 
ATOM     14  C2  <0> d          -1.708  -0.416   0.280  0.00  0.00     0.005 A 
ATOM     15  C1  <0> d          -2.353   0.941   0.389  0.00  0.00     0.068 C 
ATOM     16  N1  <0> d          -1.102  -0.921   1.328  0.00  0.00    -0.359 N 
ATOM     17  H21 <0> d          -1.079  -0.414   2.154  0.00  0.00     0.166 HD
ATOM     18  C7  <0> d           0.123  -2.661   2.410  0.00  0.00     0.030 A 
ATOM     19  C8  <0> d           0.715  -3.885   2.340  0.00  0.00     0.005 A 
ATOM     20  C9  <0> d           0.699  -4.627   1.164  0.00  0.00     0.030 A 
ENDBRANCH   7   9
ENDBRANCH   1   7
BRANCH   2  21
ATOM     21  N6  <0> d           0.294  -6.396  -3.518  0.00  0.00    -0.393 N 
ATOM     22  H19 <0> d           0.208  -5.432  -3.580  0.00  0.00     0.156 HD
ATOM     23  H20 <0> d           0.374  -6.929  -4.324  0.00  0.00     0.156 HD
ENDBRANCH   2  21
BRANCH   3  24
ATOM     24  O1  <0> d           0.541  -9.176  -3.256  0.00  0.00    -0.288 OA
BRANCH  24  25
ATOM     25  C15 <0> d           0.553 -10.525  -3.094  0.00  0.00     0.107 A 
ATOM     26  C20 <0> d          -0.654 -11.229  -2.901  0.00  0.00     0.101 A 
ATOM     27  C19 <0> d          -0.613 -12.635  -2.740  0.00  0.00    -0.004 A 
ATOM     28  N5  <0> d          -1.827 -10.590  -2.875  0.00  0.00    -0.250 NA
ATOM     29  C18 <0> d           0.622 -13.303  -2.764  0.00  0.00     0.014 A 
ATOM     30  C23 <0> d          -1.820 -13.336  -2.555  0.00  0.00     0.016 A 
ATOM     31  C17 <0> d           1.772 -12.596  -2.946  0.00  0.00     0.004 A 
ATOM     32  C16 <0> d           1.744 -11.214  -3.111  0.00  0.00     0.040 A 
ATOM     33  C22 <0> d          -2.983 -12.620  -2.526  0.00  0.00     0.027 A 
ATOM     34  C21 <0> d          -2.953 -11.238  -2.696  0.00  0.00     0.031 A 
ATOM     35  C24 <0> d          -4.248 -10.468  -2.675  0.00  0.00     0.070 C 
ENDBRANCH  24  25
ENDBRANCH   3  24
TORSDOF 5
