REMARK  10 active torsions:
REMARK  status: ('A' for Active; 'I' for Inactive)
REMARK    1  A    between atoms: C2_2  and  C3_3 
REMARK    2  A    between atoms: C3_3  and  O1_4 
REMARK    3  A    between atoms: O1_4  and  C4_5 
REMARK    4  A    between atoms: C7_8  and  C11_12 
REMARK    5  A    between atoms: C11_12  and  C12_14 
REMARK    6  A    between atoms: N1_18  and  C22_27 
REMARK    7  A    between atoms: C15_19  and  C16_20 
REMARK    8  A    between atoms: C20_24  and  O4_26 
REMARK    9  A    between atoms: C22_27  and  C23_28 
REMARK   10  A    between atoms: C23_28  and  O5_29 
ROOT
ATOM      1  C12 <0> d           3.754  -3.532   6.528  0.00  0.00     0.062 A 
ATOM      2  C13 <0> d           4.402  -4.081   7.582  0.00  0.00     0.187 A 
ATOM      3  C14 <0> d           4.827  -3.008   8.504  0.00  0.00     0.281 A 
ATOM      4  O3  <0> d           5.433  -3.180   9.543  0.00  0.00    -0.265 OA
ATOM      5  N1  <0> d           4.445  -1.811   8.023  0.00  0.00    -0.331 N 
ATOM      6  C15 <0> d           3.751  -2.037   6.750  0.00  0.00     0.161 A 
ATOM      7  O6  <0> d           4.625  -5.404   7.762  0.00  0.00    -0.185 OA
ENDROOT
BRANCH   1   8
ATOM      8  C11 <0> d           3.173  -4.248   5.388  0.00  0.00     0.194 C 
ATOM      9  O2  <0> d           2.709  -3.626   4.451  0.00  0.00    -0.287 OA
BRANCH   8  10
ATOM     10  C7  <0> d           3.150  -5.724   5.379  0.00  0.00     0.021 A 
ATOM     11  C6  <0> d           4.053  -6.434   4.582  0.00  0.00     0.019 A 
ATOM     12  C5  <0> d           4.029  -7.811   4.576  0.00  0.00     0.038 A 
ATOM     13  C4  <0> d           3.107  -8.495   5.361  0.00  0.00     0.069 A 
ATOM     14  C9  <0> d           2.203  -7.793   6.150  0.00  0.00     0.044 A 
ATOM     15  C8  <0> d           2.224  -6.416   6.166  0.00  0.00    -0.045 A 
ATOM     16  C10 <0> d           1.249  -5.656   7.027  0.00  0.00     0.049 C 
BRANCH  13  17
ATOM     17  O1  <0> d           3.086  -9.852   5.351  0.00  0.00    -0.351 OA
BRANCH  17  18
ATOM     18  C3  <0> d           4.042 -10.510   4.518  0.00  0.00     0.175 C 
BRANCH  18  19
ATOM     19  C2  <0> d           3.866 -12.025   4.638  0.00  0.00     0.022 C 
ATOM     20  C1  <0> d           4.889 -12.730   3.746  0.00  0.00     0.007 C 
ENDBRANCH  18  19
ENDBRANCH  17  18
ENDBRANCH  13  17
ENDBRANCH   8  10
ENDBRANCH   1   8
BRANCH   6  21
ATOM     21  C16 <0> d           4.481  -1.346   5.627  0.00  0.00    -0.028 A 
ATOM     22  C21 <0> d           3.838  -0.381   4.877  0.00  0.00     0.046 A 
ATOM     23  C20 <0> d           4.512   0.260   3.848  0.00  0.00     0.066 A 
ATOM     24  C19 <0> d           5.828  -0.079   3.567  0.00  0.00     0.036 A 
ATOM     25  C18 <0> d           6.465  -1.049   4.317  0.00  0.00     0.003 A 
ATOM     26  C17 <0> d           5.793  -1.681   5.346  0.00  0.00     0.010 A 
BRANCH  23  27
ATOM     27  O4  <0> d           3.883   1.214   3.112  0.00  0.00    -0.361 OA
ATOM     28  H19 <0> d           3.422   0.870   2.335  0.00  0.00     0.217 HD
ENDBRANCH  23  27
ENDBRANCH   6  21
BRANCH   5  29
ATOM     29  C22 <0> d           4.685  -0.511   8.655  0.00  0.00     0.153 C 
BRANCH  29  30
ATOM     30  C23 <0> d           6.083  -0.013   8.282  0.00  0.00     0.184 C 
BRANCH  30  31
ATOM     31  O5  <0> d           6.124   0.290   6.886  0.00  0.00    -0.399 OA
ATOM     32  H24 <0> d           6.983   0.613   6.579  0.00  0.00     0.209 HD
ENDBRANCH  30  31
ENDBRANCH  29  30
ENDBRANCH   5  29
TORSDOF 10
