REMARK  8 active torsions:
REMARK  status: ('A' for Active; 'I' for Inactive)
REMARK    1  A    between atoms: N2_5  and  S1_8 
REMARK    2  A    between atoms: S1_8  and  C6_11 
REMARK    3  A    between atoms: C9_14  and  N4_17 
REMARK    4  A    between atoms: N4_17  and  C11_18 
REMARK    5  A    between atoms: C11_18  and  C12_19 
REMARK    6  A    between atoms: C12_19  and  C13_20 
REMARK    7  A    between atoms: C12_19  and  O5_29 
REMARK    8  A    between atoms: C16_23  and  N5_26 
ROOT
ATOM      1  C6  <0> d          -6.248  -0.698  -4.940  0.00  0.00     0.097 A 
ATOM      2  C7  <0> d          -5.058   0.016  -4.993  0.00  0.00     0.030 A 
ATOM      3  C8  <0> d          -4.394   0.281  -3.809  0.00  0.00     0.051 A 
ATOM      4  C9  <0> d          -4.938  -0.174  -2.612  0.00  0.00     0.123 A 
ATOM      5  N3  <0> d          -6.073  -0.857  -2.604  0.00  0.00    -0.242 NA
ATOM      6  C10 <0> d          -6.730  -1.119  -3.717  0.00  0.00     0.144 A 
ENDROOT
BRANCH   4   7
ATOM      7  N4  <0> d          -4.282   0.085  -1.414  0.00  0.00    -0.372 N 
ATOM      8  H16 <0> d          -4.707  -0.273  -0.465  0.00  0.00     0.161 HD
BRANCH   7   9
ATOM      9  C11 <0> d          -3.023   0.834  -1.416  0.00  0.00     0.158 C 
BRANCH   9  10
ATOM     10  C12 <0> d          -2.514   0.980   0.019  0.00  0.00     0.169 C 
BRANCH  10  11
ATOM     11  C13 <0> d          -1.219   1.751   0.017  0.00  0.00    -0.028 A 
ATOM     12  C18 <0> d          -1.238   3.133   0.030  0.00  0.00     0.012 A 
ATOM     13  C17 <0> d          -0.050   3.840   0.022  0.00  0.00     0.037 A 
ATOM     14  C16 <0> d           1.156   3.165   0.008  0.00  0.00     0.102 A 
ATOM     15  C15 <0> d           1.175   1.783   0.000  0.00  0.00     0.037 A 
ATOM     16  C14 <0> d          -0.013   1.076   0.008  0.00  0.00     0.012 A 
BRANCH  14  17
ATOM     17  N5  <0> d           2.428   3.923  -0.001  0.00  0.00    -0.116 N 
ATOM     18  O3  <0> d           3.491   3.328  -0.014  0.00  0.00    -0.532 OA
ATOM     19  O4  <0> d           2.411   5.141   0.005  0.00  0.00    -0.532 OA
ENDBRANCH  14  17
ENDBRANCH  10  11
BRANCH  10  20
ATOM     20  O5  <0> d          -3.484   1.680   0.800  0.00  0.00    -0.389 OA
ATOM     21  H23 <0> d          -3.292   1.880   1.865  0.00  0.00     0.210 HD
ENDBRANCH  10  20
ENDBRANCH   9  10
ENDBRANCH   7   9
ENDBRANCH   4   7
BRANCH   1  22
ATOM     22  S1  <0> d          -7.134  -1.062  -6.419  0.00  0.00     0.262 S 
ATOM     23  O1  <0> d          -8.488  -1.266  -6.042  0.00  0.00    -0.200 OA
ATOM     24  O2  <0> d          -6.748  -0.083  -7.375  0.00  0.00    -0.200 OA
BRANCH  22  25
ATOM     25  N2  <0> d          -6.574  -2.516  -6.980  0.00  0.00    -0.303 N 
ATOM     26  C3  <0> d          -7.201  -3.779  -6.560  0.00  0.00     0.163 C 
ATOM     27  C2  <0> d          -6.103  -4.724  -6.060  0.00  0.00     0.255 C 
ATOM     28  N1  <0> d          -5.068  -4.858  -7.093  0.00  0.00    -0.072 N 
ATOM     29  C1  <0> d          -4.086  -5.886  -6.724  0.00  0.00     0.269 C 
ATOM     30  C5  <0> d          -4.409  -3.572  -7.357  0.00  0.00     0.255 C 
ATOM     31  H24 <0> d          -5.562  -5.177  -8.022  0.00  0.00     0.279 HD
ATOM     32  C4  <0> d          -5.441  -2.579  -7.916  0.00  0.00     0.163 C 
ENDBRANCH  22  25
ENDBRANCH   1  22
TORSDOF 8
