REMARK  3 active torsions:
REMARK  status: ('A' for Active; 'I' for Inactive)
REMARK    1  A    between atoms: C2_2  and  C4_4 
REMARK    2  A    between atoms: N1_8  and  C8_11 
REMARK    3  A    between atoms: C12_15  and  O3_17 
ROOT
ATOM      1  C4  <0> d          -1.575  -0.556   0.095  0.00  0.00     0.049 A 
ATOM      2  C5  <0> d          -1.304  -2.048  -0.188  0.00  0.00     0.122 A 
ATOM      3  C6  <0> d          -1.991  -2.288  -1.515  0.00  0.00     0.232 A 
ATOM      4  O1  <0> d          -2.023  -3.344  -2.108  0.00  0.00    -0.273 OA
ATOM      5  N1  <0> d          -2.557  -1.148  -1.930  0.00  0.00    -0.252 N 
ATOM      6  C7  <0> d          -2.385  -0.110  -1.102  0.00  0.00     0.240 A 
ATOM      7  O2  <0> d          -2.812   1.010  -1.283  0.00  0.00    -0.272 OA
ATOM      8  C14 <0> d          -2.380  -0.387   1.384  0.00  0.00     0.026 C 
ENDROOT
BRANCH   5   9
ATOM      9  C8  <0> d          -3.270  -1.049  -3.133  0.00  0.00     0.048 A 
ATOM     10  C13 <0> d          -4.475  -1.719  -3.283  0.00  0.00     0.066 A 
ATOM     11  C12 <0> d          -5.180  -1.614  -4.472  0.00  0.00     0.067 A 
ATOM     12  C11 <0> d          -4.673  -0.849  -5.513  0.00  0.00     0.036 A 
ATOM     13  C10 <0> d          -3.470  -0.187  -5.364  0.00  0.00     0.005 A 
ATOM     14  C9  <0> d          -2.767  -0.284  -4.178  0.00  0.00     0.030 A 
BRANCH  11  15
ATOM     15  O3  <0> d          -6.364  -2.264  -4.620  0.00  0.00    -0.361 OA
ATOM     16  H14 <0> d          -6.280  -3.159  -4.974  0.00  0.00     0.217 HD
ENDBRANCH  11  15
ENDBRANCH   5   9
BRANCH   1  17
ATOM     17  C2  <0> d          -0.260   0.223   0.176  0.00  0.00    -0.005 C 
ATOM     18  C1  <0> d          -0.561   1.713   0.347  0.00  0.00     0.011 C 
ATOM     19  C3  <0> d           0.554  -0.274   1.373  0.00  0.00     0.011 C 
ENDBRANCH   1  17
TORSDOF 3
