REMARK  6 active torsions:
REMARK  status: ('A' for Active; 'I' for Inactive)
REMARK    1  A    between atoms: C2_2  and  C3_3 
REMARK    2  A    between atoms: C3_3  and  C4_4 
REMARK    3  A    between atoms: C10_12  and  C15_21 
REMARK    4  A    between atoms: C11_13  and  C13_17 
REMARK    5  A    between atoms: C12_14  and  N2_16 
REMARK    6  A    between atoms: C13_17  and  O4_19 
ROOT
ATOM      1  C4  <0> d           0.900  -2.123  -0.946  0.00  0.00     0.017 A 
ATOM      2  C5  <0> d          -0.092  -2.663  -1.685  0.00  0.00     0.063 A 
ATOM      3  C6  <0> d          -0.153  -4.061  -1.862  0.00  0.00     0.092 A 
ATOM      4  C7  <0> d           0.809  -4.851  -1.270  0.00  0.00     0.057 A 
ATOM      5  C8  <0> d           1.820  -4.247  -0.512  0.00  0.00     0.257 A 
ATOM      6  O1  <0> d           2.680  -4.935   0.017  0.00  0.00    -0.267 OA
ATOM      7  N1  <0> d           1.849  -2.909  -0.371  0.00  0.00    -0.322 N 
ATOM      8  C9  <0> d           2.915  -2.290   0.420  0.00  0.00     0.159 C 
ATOM      9  C10 <0> d           0.781  -6.347  -1.431  0.00  0.00     0.103 C 
ATOM     10  C11 <0> d          -0.117  -6.728  -2.575  0.00  0.00     0.081 C 
ATOM     11  C12 <0> d          -1.015  -5.848  -3.087  0.00  0.00     0.155 C 
ATOM     12  O2  <0> d          -1.145  -4.603  -2.601  0.00  0.00    -0.293 OA
ENDROOT
BRANCH   9  13
ATOM     13  C15 <0> d           0.265  -6.976  -0.163  0.00  0.00    -0.045 A 
ATOM     14  C20 <0> d           1.057  -7.864   0.540  0.00  0.00     0.008 A 
ATOM     15  C19 <0> d           0.586  -8.438   1.706  0.00  0.00     0.001 A 
ATOM     16  C18 <0> d          -0.682  -8.130   2.164  0.00  0.00     0.000 A 
ATOM     17  C17 <0> d          -1.476  -7.246   1.459  0.00  0.00     0.001 A 
ATOM     18  C16 <0> d          -1.002  -6.669   0.295  0.00  0.00     0.008 A 
ENDBRANCH   9  13
BRANCH  10  19
ATOM     19  C13 <0> d          -0.025  -8.016  -3.122  0.00  0.00     0.294 C 
ATOM     20  O3  <0> d           0.861  -8.279  -3.916  0.00  0.00    -0.259 OA
BRANCH  19  21
ATOM     21  O4  <0> d          -0.920  -8.965  -2.770  0.00  0.00    -0.323 OA
ATOM     22  C14 <0> d          -0.767 -10.255  -3.367  0.00  0.00     0.213 C 
ENDBRANCH  19  21
ENDBRANCH  10  19
BRANCH  11  23
ATOM     23  N2  <0> d          -1.811  -6.242  -4.129  0.00  0.00    -0.379 N 
ATOM     24  H13 <0> d          -1.664  -7.101  -4.554  0.00  0.00     0.158 HD
ATOM     25  H14 <0> d          -2.522  -5.661  -4.442  0.00  0.00     0.158 HD
ENDBRANCH  11  23
BRANCH   1  26
ATOM     26  C3  <0> d           0.961  -0.629  -0.760  0.00  0.00     0.057 C 
BRANCH  26  27
ATOM     27  C2  <0> d           1.855  -0.017  -1.841  0.00  0.00     0.002 C 
ATOM     28  C1  <0> d           1.916   1.500  -1.652  0.00  0.00     0.005 C 
ENDBRANCH  26  27
ENDBRANCH   1  26
TORSDOF 6
