REMARK  4 active torsions:
REMARK  status: ('A' for Active; 'I' for Inactive)
REMARK    1  A    between atoms: C4_4  and  C12_14 
REMARK    2  A    between atoms: C12_14  and  N2_15 
REMARK       I    between atoms: N2_15  and  C13_16 
REMARK    3  A    between atoms: C13_16  and  C14_18 
REMARK    4  A    between atoms: C14_18  and  S1_20 
ROOT
ATOM      1  C1  <0> d          -0.018   1.503   0.010  0.00  0.00     0.048 C 
ATOM      2  C2  <0> d           0.002  -0.004   0.002  0.00  0.00    -0.060 A 
ATOM      3  C3  <0> d           0.006  -0.686  -1.207  0.00  0.00     0.018 A 
ATOM      4  C4  <0> d           0.024  -2.063  -1.237  0.00  0.00    -0.012 A 
ATOM      5  C5  <0> d           0.039  -2.780  -0.045  0.00  0.00     0.051 A 
ATOM      6  C6  <0> d           0.036  -2.084   1.178  0.00  0.00    -0.001 A 
ATOM      7  C7  <0> d           0.023  -0.688   1.185  0.00  0.00     0.021 A 
ATOM      8  C8  <0> d           0.055  -3.107   2.226  0.00  0.00    -0.027 A 
ATOM      9  C9  <0> d           0.067  -4.300   1.610  0.00  0.00     0.012 A 
ATOM     10  N1  <0> d           0.058  -4.124   0.253  0.00  0.00    -0.358 N 
ATOM     11  H1  <0> d           0.065  -4.840  -0.402  0.00  0.00     0.166 HD
ATOM     12  C10 <0> d           0.088  -5.635   2.309  0.00  0.00     0.068 C 
ATOM     13  C11 <0> d           0.059  -2.867   3.713  0.00  0.00     0.051 C 
ENDROOT
BRANCH   4  14
ATOM     14  C12 <0> d           0.026  -2.791  -2.557  0.00  0.00     0.163 C 
BRANCH  14  15
ATOM     15  N2  <0> d          -1.329  -3.254  -2.862  0.00  0.00    -0.356 N 
ATOM     16  C13 <0> d          -1.569  -3.935  -4.000  0.00  0.00     0.236 C 
ATOM     17  O1  <0> d          -0.662  -4.163  -4.772  0.00  0.00    -0.272 OA
ATOM     18  H16 <0> d          -2.055  -3.072  -2.244  0.00  0.00     0.162 HD
BRANCH  16  19
ATOM     19  C14 <0> d          -2.964  -4.412  -4.314  0.00  0.00     0.195 C 
ATOM     20  C15 <0> d          -3.252  -5.695  -3.531  0.00  0.00     0.036 C 
BRANCH  19  21
ATOM     21  S1  <0> d          -3.104  -4.743  -6.091  0.00  0.00     0.153 S 
ATOM     22  O2  <0> d          -2.956  -3.515  -6.791  0.00  0.00    -0.227 OA
ATOM     23  O3  <0> d          -2.248  -5.830  -6.415  0.00  0.00    -0.227 OA
ATOM     24  C16 <0> d          -4.824  -5.296  -6.261  0.00  0.00     0.162 C 
ENDBRANCH  19  21
ENDBRANCH  16  19
ENDBRANCH  14  15
ENDBRANCH   4  14
TORSDOF 4
