REMARK  5 active torsions:
REMARK  status: ('A' for Active; 'I' for Inactive)
REMARK    1  A    between atoms: C5_5  and  C6_7 
REMARK    2  A    between atoms: C7_8  and  C9_13 
REMARK    3  A    between atoms: C9_13  and  N3_14 
REMARK    4  A    between atoms: N3_14  and  C10_15 
REMARK    5  A    between atoms: C10_15  and  C11_16 
ROOT
ATOM      1  C6  <0> d           1.667  -3.226  -0.023  0.00  0.00     0.120 A 
ATOM      2  C7  <0> d           2.915  -3.287  -0.678  0.00  0.00     0.018 A 
ATOM      3  C8  <0> d           3.445  -4.506  -0.446  0.00  0.00     0.120 A 
ATOM      4  N1  <0> d           2.578  -5.199   0.324  0.00  0.00    -0.288 N 
ATOM      5  H1  <0> d           2.702  -6.107   0.644  0.00  0.00     0.188 HD
ATOM      6  N2  <0> d           1.472  -4.380   0.583  0.00  0.00    -0.172 NA
ENDROOT
BRANCH   2   7
ATOM      7  C9  <0> d           3.543  -2.186  -1.494  0.00  0.00     0.274 C 
BRANCH   7   8
ATOM      8  N3  <0> d           4.170  -1.207  -0.595  0.00  0.00    -0.069 N 
ATOM      9  H11 <0> d           3.469  -0.815   0.016  0.00  0.00     0.277 HD
ATOM     10  H20 <0> d           4.880  -1.664  -0.042  0.00  0.00     0.277 HD
BRANCH   8  11
ATOM     11  C10 <0> d           4.782  -0.135  -1.389  0.00  0.00     0.266 C 
BRANCH  11  12
ATOM     12  C11 <0> d           5.435   0.885  -0.453  0.00  0.00     0.170 C 
ATOM     13  O3  <0> d           4.441   1.444   0.412  0.00  0.00    -0.380 OA
ATOM     14  C14 <0> d           4.950   2.449   1.294  0.00  0.00     0.194 C 
ATOM     15  C13 <0> d           5.587   3.570   0.467  0.00  0.00     0.193 C 
ATOM     16  O2  <0> d           6.580   3.009  -0.397  0.00  0.00    -0.386 OA
ATOM     17  C12 <0> d           6.071   2.005  -1.280  0.00  0.00     0.201 C 
ENDBRANCH  11  12
ENDBRANCH   8  11
ENDBRANCH   7   8
ENDBRANCH   2   7
BRANCH   1  18
ATOM     18  C5  <0> d           0.745  -2.070  -0.013  0.00  0.00     0.106 A 
ATOM     19  C4  <0> d          -0.613  -2.134  -0.007  0.00  0.00     0.042 A 
ATOM     20  C3  <0> d          -1.081  -0.804   0.003  0.00  0.00     0.035 A 
ATOM     21  C2  <0> d           0.002  -0.004   0.002  0.00  0.00     0.050 A 
ATOM     22  C1  <0> d          -0.018   1.503   0.010  0.00  0.00     0.076 C 
ATOM     23  O1  <0> d           1.104  -0.772  -0.013  0.00  0.00    -0.313 OA
ENDBRANCH   1  18
TORSDOF 5
