REMARK  2 active torsions:
REMARK  status: ('A' for Active; 'I' for Inactive)
REMARK    1  A    between atoms: C2_2  and  N1_9 
REMARK    2  A    between atoms: N1_9  and  C6_10 
ROOT
ATOM      1  C6  <0> d           0.166   0.169  -2.493  0.00  0.00     0.222 C 
ATOM      2  C7  <0> d           1.003  -0.368  -3.640  0.00  0.00     0.053 C 
ATOM      3  C8  <0> d           0.487   0.224  -4.960  0.00  0.00     0.148 C 
ATOM      4  S2  <0> d          -1.119  -0.557  -5.298  0.00  0.00     0.176 S 
ATOM      5  O3  <0> d          -0.945  -1.938  -5.584  0.00  0.00    -0.223 OA
ATOM      6  O4  <0> d          -1.898   0.269  -6.153  0.00  0.00    -0.223 OA
ATOM      7  C9  <0> d          -1.948  -0.516  -3.740  0.00  0.00     0.067 A 
ATOM      8  C10 <0> d          -1.286  -0.198  -2.578  0.00  0.00    -0.006 A 
ATOM      9  C11 <0> d          -1.998  -0.204  -1.379  0.00  0.00     0.011 A 
ATOM     10  C12 <0> d          -3.340  -0.515  -1.354  0.00  0.00     0.001 A 
ATOM     11  C13 <0> d          -3.998  -0.826  -2.529  0.00  0.00     0.002 A 
ATOM     12  C14 <0> d          -3.301  -0.822  -3.714  0.00  0.00     0.024 A 
ENDROOT
BRANCH   1  13
ATOM     13  N1  <0> d           0.708  -0.354  -1.232  0.00  0.00    -0.057 N 
ATOM     14  H11 <0> d           1.110  -1.266  -1.391  0.00  0.00     0.279 HD
ATOM     15  H20 <0> d          -0.033  -0.427  -0.552  0.00  0.00     0.279 HD
BRANCH  13  16
ATOM     16  C2  <0> d           1.746   0.557  -0.730  0.00  0.00     0.136 C 
ATOM     17  C1  <0> d           2.783   0.772  -1.834  0.00  0.00     0.047 C 
ATOM     18  C5  <0> d           2.439  -0.102   0.478  0.00  0.00     0.178 C 
ATOM     19  S1  <0> d           2.023   1.027   1.871  0.00  0.00     0.146 S 
ATOM     20  C4  <0> d           0.613   1.917   1.077  0.00  0.00     0.143 C 
ATOM     21  O1  <0> d           3.096   1.937   2.072  0.00  0.00    -0.228 OA
ATOM     22  O2  <0> d           1.536   0.262   2.965  0.00  0.00    -0.228 OA
ATOM     23  C3  <0> d           1.095   1.900  -0.401  0.00  0.00     0.054 C 
ENDBRANCH  13  16
ENDBRANCH   1  13
TORSDOF 2
