REMARK  4 active torsions:
REMARK  status: ('A' for Active; 'I' for Inactive)
REMARK    1  A    between atoms: C2_2  and  C3_3 
REMARK    2  A    between atoms: C8_8  and  N1_9 
REMARK       I    between atoms: N1_9  and  C9_10 
REMARK    3  A    between atoms: C9_10  and  C10_12 
REMARK    4  A    between atoms: C10_12  and  N2_13 
ROOT
ATOM      1  N1  <0> d          -1.289  -0.209   2.466  0.00  0.00    -0.325 N 
ATOM      2  C9  <0> d          -2.010  -0.478   3.572  0.00  0.00     0.242 C 
ATOM      3  O1  <0> d          -1.471  -0.962   4.544  0.00  0.00    -0.271 OA
ATOM      4  H9  <0> d          -1.705   0.239   1.712  0.00  0.00     0.169 HD
ENDROOT
BRANCH   2   5
ATOM      5  C10 <0> d          -3.487  -0.178   3.600  0.00  0.00     0.257 C 
BRANCH   5   6
ATOM      6  N2  <0> d          -4.038  -0.558   4.903  0.00  0.00    -0.222 N 
ATOM      7  N4  <0> d          -4.535  -1.850   5.103  0.00  0.00    -0.155 NA
ATOM      8  C16 <0> d          -5.022  -2.233   6.233  0.00  0.00     0.127 A 
ATOM      9  N3  <0> d          -5.098  -1.382   7.319  0.00  0.00    -0.304 N 
ATOM     10  C17 <0> d          -5.532  -3.645   6.370  0.00  0.00     0.093 C 
ATOM     11  C12 <0> d          -4.631  -0.086   7.197  0.00  0.00     0.110 A 
ATOM     12  C15 <0> d          -5.564  -1.547   8.582  0.00  0.00     0.099 A 
ATOM     13  C11 <0> d          -4.071   0.341   5.913  0.00  0.00     0.291 A 
ATOM     14  C13 <0> d          -4.818   0.544   8.405  0.00  0.00     0.037 A 
ATOM     15  O2  <0> d          -3.648   1.473   5.759  0.00  0.00    -0.264 OA
ATOM     16  C14 <0> d          -5.406  -0.388   9.266  0.00  0.00     0.020 A 
ENDBRANCH   5   6
ENDBRANCH   2   5
BRANCH   1  17
ATOM     17  C8  <0> d           0.060  -0.576   2.404  0.00  0.00     0.047 A 
ATOM     18  C3  <0> d           1.050   0.391   2.521  0.00  0.00    -0.031 A 
ATOM     19  C4  <0> d           2.380   0.025   2.465  0.00  0.00     0.009 A 
ATOM     20  C5  <0> d           2.727  -1.302   2.286  0.00  0.00     0.001 A 
ATOM     21  C6  <0> d           1.744  -2.266   2.163  0.00  0.00     0.009 A 
ATOM     22  C7  <0> d           0.411  -1.907   2.219  0.00  0.00    -0.035 A 
ATOM     23  C18 <0> d          -0.660  -2.958   2.085  0.00  0.00     0.050 C 
BRANCH  18  24
ATOM     24  C2  <0> d           0.672   1.837   2.716  0.00  0.00     0.036 C 
ATOM     25  C1  <0> d           0.438   2.107   4.204  0.00  0.00     0.010 C 
ENDBRANCH  18  24
ENDBRANCH   1  17
TORSDOF 4
