REMARK  5 active torsions:
REMARK  status: ('A' for Active; 'I' for Inactive)
REMARK    1  A    between atoms: C2_2  and  C5_5 
REMARK    2  A    between atoms: C6_6  and  C12_15 
REMARK    3  A    between atoms: C8_9  and  N3_14 
REMARK    4  A    between atoms: C12_15  and  N4_16 
REMARK    5  A    between atoms: N5_19  and  C17_22 
ROOT
ATOM      1  C5  <0> d           0.640  -0.399  -1.249  0.00  0.00     0.043 A 
ATOM      2  C6  <0> d           0.781  -1.680  -1.655  0.00  0.00     0.069 A 
ATOM      3  N1  <0> d           1.527  -1.661  -2.802  0.00  0.00    -0.306 N 
ATOM      4  C7  <0> d           1.970  -2.654  -3.632  0.00  0.00     0.127 A 
ATOM      5  C8  <0> d           2.710  -2.355  -4.728  0.00  0.00     0.042 A 
ATOM      6  C9  <0> d           3.029  -1.014  -5.022  0.00  0.00     0.034 A 
ATOM      7  C10 <0> d           2.591  -0.022  -4.201  0.00  0.00     0.051 A 
ATOM      8  C11 <0> d           1.823  -0.351  -3.066  0.00  0.00     0.112 A 
ATOM      9  N2  <0> d           1.272   0.394  -2.117  0.00  0.00    -0.343 N 
ATOM     10  H30 <0> d           1.323   1.361  -2.061  0.00  0.00     0.167 HD
ENDROOT
BRANCH   2  11
ATOM     11  C12 <0> d           0.222  -2.902  -0.972  0.00  0.00     0.332 C 
BRANCH  11  12
ATOM     12  N4  <0> d           1.175  -3.375   0.041  0.00  0.00     0.097 N 
ATOM     13  C16 <0> d           0.572  -4.413   0.887  0.00  0.00     0.292 C 
ATOM     14  C15 <0> d           1.527  -4.750   2.037  0.00  0.00     0.153 C 
ATOM     15  N5  <0> d           2.839  -5.096   1.468  0.00  0.00    -0.378 N 
ATOM     16  C14 <0> d           3.446  -4.167   0.504  0.00  0.00     0.153 C 
ATOM     17  C13 <0> d           2.415  -3.853  -0.586  0.00  0.00     0.292 C 
BRANCH  15  18
ATOM     18  C17 <0> d           3.490  -6.276   1.835  0.00  0.00     0.030 A 
ATOM     19  C22 <0> d           2.958  -7.084   2.832  0.00  0.00     0.029 A 
ATOM     20  C21 <0> d           3.602  -8.253   3.188  0.00  0.00     0.002 A 
ATOM     21  C20 <0> d           4.780  -8.614   2.560  0.00  0.00     0.000 A 
ATOM     22  C19 <0> d           5.314  -7.810   1.571  0.00  0.00     0.002 A 
ATOM     23  C18 <0> d           4.673  -6.642   1.206  0.00  0.00     0.029 A 
ENDBRANCH  15  18
ENDBRANCH  11  12
ENDBRANCH   2  11
BRANCH   1  24
ATOM     24  C2  <0> d          -0.111   0.058  -0.025  0.00  0.00    -0.007 C 
ATOM     25  C1  <0> d           0.091   1.563   0.165  0.00  0.00     0.021 C 
ATOM     26  C3  <0> d           0.415  -0.686   1.204  0.00  0.00     0.021 C 
ATOM     27  C4  <0> d          -1.601  -0.238  -0.201  0.00  0.00     0.021 C 
ENDBRANCH   1  24
BRANCH   5  28
ATOM     28  N3  <0> d           3.158  -3.381  -5.570  0.00  0.00    -0.398 N 
ATOM     29  H13 <0> d           2.939  -4.305  -5.368  0.00  0.00     0.156 HD
ATOM     30  H14 <0> d           3.687  -3.169  -6.354  0.00  0.00     0.156 HD
ENDBRANCH   5  28
TORSDOF 5
