REMARK  3 active torsions:
REMARK  status: ('A' for Active; 'I' for Inactive)
REMARK    1  A    between atoms: C3_3  and  C7_7 
REMARK       I    between atoms: C7_7  and  N1_9 
REMARK    2  A    between atoms: C9_11  and  C16_19 
REMARK       I    between atoms: C16_19  and  N3_21 
REMARK    3  A    between atoms: N3_21  and  C17_22 
ROOT
ATOM      1  C7  <0> d           3.544   1.937   1.224  0.00  0.00     0.224 C 
ATOM      2  O1  <0> d           3.871   2.819   0.458  0.00  0.00    -0.273 OA
ATOM      3  N1  <0> d           4.387   1.547   2.200  0.00  0.00    -0.350 N 
ATOM      4  C8  <0> d           4.217   0.422   3.150  0.00  0.00     0.140 C 
ATOM      5  C9  <0> d           5.627  -0.198   3.278  0.00  0.00     0.106 C 
ATOM      6  C10 <0> d           6.590   0.938   2.896  0.00  0.00    -0.007 C 
ATOM      7  C11 <0> d           5.696   2.141   2.563  0.00  0.00     0.136 C 
ATOM      8  C12 <0> d           7.412   0.545   1.671  0.00  0.00     0.039 C 
ATOM      9  C13 <0> d           8.402   1.667   1.345  0.00  0.00     0.233 C 
ATOM     10  N2  <0> d           9.282   1.895   2.498  0.00  0.00    -0.075 N 
ATOM     11  C14 <0> d           8.495   2.362   3.645  0.00  0.00     0.233 C 
ATOM     12  C15 <0> d           7.508   1.270   4.068  0.00  0.00     0.039 C 
ATOM     13  H20 <0> d           9.748   1.033   2.739  0.00  0.00     0.277 HD
ATOM     14  H38 <0> d           9.973   2.591   2.259  0.00  0.00     0.277 HD
ENDROOT
BRANCH   5  15
ATOM     15  C16 <0> d           5.877  -0.646   4.694  0.00  0.00     0.224 C 
ATOM     16  O2  <0> d           5.290  -0.113   5.612  0.00  0.00    -0.273 OA
ATOM     17  N3  <0> d           6.752  -1.641   4.942  0.00  0.00    -0.354 N 
ATOM     18  H25 <0> d           7.221  -2.068   4.208  0.00  0.00     0.162 HD
BRANCH  17  19
ATOM     19  C17 <0> d           6.995  -2.078   6.319  0.00  0.00     0.114 C 
ATOM     20  C21 <0> d           7.492  -3.529   6.318  0.00  0.00     0.013 C 
ATOM     21  C20 <0> d           8.814  -3.584   5.535  0.00  0.00     0.034 C 
ATOM     22  C22 <0> d           7.773  -3.945   7.768  0.00  0.00     0.034 C 
ATOM     23  C19 <0> d           9.823  -2.646   6.200  0.00  0.00     0.235 C 
ATOM     24  N4  <0> d           9.214  -1.997   7.363  0.00  0.00    -0.069 N 
ATOM     25  C18 <0> d           8.063  -1.187   6.958  0.00  0.00     0.260 C 
ATOM     26  C23 <0> d           8.818  -2.993   8.361  0.00  0.00     0.235 C 
ATOM     27  H37 <0> d           9.903  -1.387   7.777  0.00  0.00     0.280 HD
ENDBRANCH  17  19
ENDBRANCH   5  15
BRANCH   1  28
ATOM     28  C3  <0> d           2.196   1.279   1.084  0.00  0.00     0.082 C 
ATOM     29  C2  <0> d           1.165   2.311   0.610  0.00  0.00     0.018 C 
ATOM     30  C1  <0> d          -0.222   1.665   0.653  0.00  0.00     0.027 C 
ATOM     31  C6  <0> d          -0.192   0.330  -0.033  0.00  0.00    -0.031 C 
ATOM     32  C5  <0> d           0.892  -0.327  -0.293  0.00  0.00    -0.030 C 
ATOM     33  C4  <0> d           2.271   0.157   0.045  0.00  0.00     0.041 C 
ENDBRANCH   1  28
TORSDOF 3
