REMARK  4 active torsions:
REMARK  status: ('A' for Active; 'I' for Inactive)
REMARK    1  A    between atoms: C4_4  and  N3_12 
REMARK    2  A    between atoms: C5_6  and  S1_8 
REMARK    3  A    between atoms: S1_8  and  C6_9 
REMARK    4  A    between atoms: C6_9  and  C7_10 
ROOT
ATOM      1  C1  <0> d           3.213  -1.127   2.833  0.00  0.00     0.070 C 
ATOM      2  C2  <0> d           2.024  -0.309   3.268  0.00  0.00     0.036 A 
ATOM      3  C3  <0> d           1.757  -0.124   4.610  0.00  0.00     0.071 A 
ATOM      4  C4  <0> d           0.644   0.640   4.970  0.00  0.00     0.110 A 
ATOM      5  N1  <0> d          -0.113   1.166   4.012  0.00  0.00    -0.211 NA
ATOM      6  C5  <0> d           0.174   0.961   2.735  0.00  0.00     0.190 A 
ATOM      7  N2  <0> d           1.223   0.239   2.366  0.00  0.00    -0.228 NA
ENDROOT
BRANCH   4   8
ATOM      8  N3  <0> d           0.339   0.852   6.304  0.00  0.00    -0.265 NA
ATOM      9  C11 <0> d          -0.867   1.681   6.443  0.00  0.00     0.125 C 
ATOM     10  C10 <0> d          -1.125   1.957   7.926  0.00  0.00     0.249 C 
ATOM     11  N4  <0> d          -1.302   0.668   8.627  0.00  0.00    -0.073 N 
ATOM     12  C9  <0> d          -0.075  -0.147   8.501  0.00  0.00     0.249 C 
ATOM     13  C12 <0> d          -1.605   0.906  10.054  0.00  0.00     0.269 C 
ATOM     14  H18 <0> d          -2.085   0.160   8.200  0.00  0.00     0.279 HD
ATOM     15  C8  <0> d           0.183  -0.423   7.017  0.00  0.00     0.125 C 
ENDBRANCH   4   8
BRANCH   6  16
ATOM     16  S1  <0> d          -0.860   1.669   1.497  0.00  0.00    -0.080 SA
BRANCH  16  17
ATOM     17  C6  <0> d          -0.013   1.086   0.008  0.00  0.00     0.195 C 
BRANCH  17  18
ATOM     18  C7  <0> d          -0.742   1.585  -1.213  0.00  0.00     0.182 C 
ATOM     19  O1  <0> d          -1.732   2.266  -1.089  0.00  0.00    -0.647 OA
ATOM     20  O2  <0> d          -0.290   1.274  -2.438  0.00  0.00    -0.647 OA
ENDBRANCH  17  18
ENDBRANCH  16  17
ENDBRANCH   6  16
TORSDOF 4
