REMARK  6 active torsions:
REMARK  status: ('A' for Active; 'I' for Inactive)
REMARK    1  A    between atoms: C2_2  and  N1_3 
REMARK    2  A    between atoms: C6_7  and  C7_8 
REMARK       I    between atoms: C7_8  and  N2_10 
REMARK    3  A    between atoms: N2_10  and  C8_11 
REMARK    4  A    between atoms: C8_11  and  C9_12 
REMARK    5  A    between atoms: C9_12  and  N3_13 
REMARK    6  A    between atoms: N3_13  and  S1_14 
ROOT
ATOM      1  C7  <0> d          -1.728  -0.621  -2.499  0.00  0.00     0.268 C 
ATOM      2  O1  <0> d          -2.542  -0.758  -3.393  0.00  0.00    -0.266 OA
ATOM      3  N2  <0> d          -0.447  -0.322  -2.795  0.00  0.00    -0.354 N 
ATOM      4  H8  <0> d           0.218  -0.286  -2.089  0.00  0.00     0.162 HD
ENDROOT
BRANCH   1   5
ATOM      5  C6  <0> d          -2.140  -0.780  -1.101  0.00  0.00     0.104 A 
ATOM      6  N1  <0> d          -3.380  -1.181  -0.659  0.00  0.00    -0.351 N 
ATOM      7  C3  <0> d          -3.368  -1.212   0.697  0.00  0.00     0.110 A 
ATOM      8  C4  <0> d          -2.143  -0.832   1.133  0.00  0.00     0.028 A 
ATOM      9  C5  <0> d          -1.356  -0.553   0.011  0.00  0.00     0.056 A 
ATOM     10 Br1  <0> d          -1.594  -0.703   2.938  0.00  0.00    -0.050 Br
BRANCH   6  11
ATOM     11  C2  <0> d          -4.521  -1.524  -1.511  0.00  0.00     0.124 C 
ATOM     12  C1  <0> d          -4.362  -2.957  -2.024  0.00  0.00     0.027 C 
ENDBRANCH   6  11
ENDBRANCH   1   5
BRANCH   3  13
ATOM     13  C8  <0> d          -0.059  -0.051  -4.181  0.00  0.00     0.143 C 
BRANCH  13  14
ATOM     14  C9  <0> d           1.438   0.259  -4.240  0.00  0.00     0.151 C 
BRANCH  14  15
ATOM     15  N3  <0> d           1.826   0.530  -5.627  0.00  0.00    -0.318 N 
ATOM     16  H13 <0> d           1.230   0.287  -6.353  0.00  0.00     0.172 HD
BRANCH  15  17
ATOM     17  S1  <0> d           3.280   1.251  -5.954  0.00  0.00     0.222 S 
ATOM     18  O2  <0> d           3.312   1.379  -7.369  0.00  0.00    -0.206 OA
ATOM     19  O3  <0> d           3.310   2.402  -5.122  0.00  0.00    -0.206 OA
ATOM     20  C10 <0> d           4.528   0.052  -5.408  0.00  0.00     0.185 C 
ENDBRANCH  15  17
ENDBRANCH  14  15
ENDBRANCH  13  14
ENDBRANCH   3  13
TORSDOF 6
