REMARK  3 active torsions:
REMARK  status: ('A' for Active; 'I' for Inactive)
REMARK    1  A    between atoms: C5_5  and  C6_7 
REMARK    2  A    between atoms: C6_7  and  C7_8 
REMARK    3  A    between atoms: C6_7  and  N3_21 
ROOT
ATOM      1  C7  <0> d           1.446  -4.435  -1.430  0.00  0.00    -0.001 A 
ATOM      2  C8  <0> d           2.776  -4.387  -1.800  0.00  0.00     0.043 A 
ATOM      3  C9  <0> d           3.146  -4.731  -3.091  0.00  0.00     0.064 A 
ATOM      4  C10 <0> d           2.173  -5.124  -4.013  0.00  0.00     0.064 A 
ATOM      5  C11 <0> d           0.841  -5.169  -3.633  0.00  0.00     0.051 A 
ATOM      6  C12 <0> d           0.481  -4.830  -2.342  0.00  0.00     0.022 A 
ATOM      7 Br1  <0> d          -1.335  -4.900  -1.821  0.00  0.00    -0.050 Br
ATOM      8  N1  <0> d           2.838  -5.403  -5.205  0.00  0.00    -0.306 N 
ATOM      9  H2  <0> d           2.423  -5.700  -6.029  0.00  0.00     0.170 HD
ATOM     10  C13 <0> d           4.154  -5.189  -5.017  0.00  0.00     0.325 A 
ATOM     11  O1  <0> d           5.015  -5.340  -5.863  0.00  0.00    -0.247 OA
ATOM     12  N2  <0> d           4.371  -4.783  -3.752  0.00  0.00    -0.306 N 
ATOM     13  H3  <0> d           5.234  -4.564  -3.367  0.00  0.00     0.170 HD
ENDROOT
BRANCH   1  14
ATOM     14  C6  <0> d           1.043  -4.062  -0.027  0.00  0.00     0.292 C 
BRANCH  14  15
ATOM     15  C5  <0> d           0.507  -2.653  -0.016  0.00  0.00     0.020 A 
ATOM     16  C4  <0> d          -0.780  -2.230  -0.007  0.00  0.00     0.018 A 
ATOM     17  C3  <0> d          -1.039  -0.872   0.002  0.00  0.00     0.015 A 
ATOM     18  C2  <0> d           0.002  -0.004   0.002  0.00  0.00    -0.021 A 
ATOM     19  C1  <0> d          -0.018   1.503   0.010  0.00  0.00     0.056 C 
ATOM     20  S1  <0> d           1.404  -1.109  -0.018  0.00  0.00    -0.097 SA
ENDBRANCH  14  15
BRANCH  14  21
ATOM     21  N3  <0> d           2.213  -4.147   0.857  0.00  0.00     0.092 N 
ATOM     22  H11 <0> d           2.552  -5.096   0.918  0.00  0.00     0.314 HD
ATOM     23  H12 <0> d           2.943  -3.521   0.553  0.00  0.00     0.314 HD
ENDBRANCH  14  21
ENDBRANCH   1  14
TORSDOF 3
