REMARK  6 active torsions:
REMARK  status: ('A' for Active; 'I' for Inactive)
REMARK    1  A    between atoms: C5_5  and  S1_9 
REMARK    2  A    between atoms: S1_9  and  N1_12 
REMARK    3  A    between atoms: N1_12  and  C9_13 
REMARK    4  A    between atoms: C9_13  and  C10_14 
REMARK    5  A    between atoms: C10_14  and  S2_15 
REMARK    6  A    between atoms: S2_15  and  N2_18 
ROOT
ATOM      1  N1  <0> d           1.913  -4.728  -0.453  0.00  0.00    -0.315 N 
ATOM      2  H11 <0> d           2.361  -5.117  -1.220  0.00  0.00     0.172 HD
ENDROOT
BRANCH   1   3
ATOM      3  S1  <0> d           0.333  -4.247  -0.574  0.00  0.00     0.258 S 
ATOM      4  O1  <0> d          -0.345  -4.796   0.548  0.00  0.00    -0.201 OA
ATOM      5  O2  <0> d          -0.070  -4.508  -1.911  0.00  0.00    -0.201 OA
BRANCH   3   6
ATOM      6  C5  <0> d           0.304  -2.497  -0.372  0.00  0.00     0.080 A 
ATOM      7  C4  <0> d           0.425  -1.672  -1.474  0.00  0.00     0.026 A 
ATOM      8  C3  <0> d           0.401  -0.299  -1.316  0.00  0.00     0.009 A 
ATOM      9  C2  <0> d           0.256   0.249  -0.055  0.00  0.00    -0.056 A 
ATOM     10  C1  <0> d           0.230   1.746   0.117  0.00  0.00     0.049 C 
ATOM     11  C7  <0> d           0.140  -0.576   1.048  0.00  0.00    -0.055 A 
ATOM     12  C6  <0> d           0.160  -1.949   0.889  0.00  0.00     0.032 A 
ATOM     13  C8  <0> d          -0.012   0.022   2.423  0.00  0.00     0.049 C 
ENDBRANCH   3   6
ENDBRANCH   1   3
BRANCH   1  14
ATOM     14  C9  <0> d           2.634  -4.564   0.812  0.00  0.00     0.149 C 
BRANCH  14  15
ATOM     15  C10 <0> d           3.913  -5.403   0.782  0.00  0.00     0.183 C 
BRANCH  15  16
ATOM     16  S2  <0> d           4.806  -5.200   2.348  0.00  0.00     0.230 S 
ATOM     17  O3  <0> d           5.304  -3.874   2.459  0.00  0.00    -0.206 OA
ATOM     18  O4  <0> d           4.069  -5.789   3.411  0.00  0.00    -0.206 OA
BRANCH  16  19
ATOM     19  N2  <0> d           6.156  -6.147   2.194  0.00  0.00    -0.302 N 
ATOM     20  C14 <0> d           7.309  -5.698   1.399  0.00  0.00     0.115 C 
ATOM     21  C13 <0> d           8.574  -5.857   2.257  0.00  0.00     0.193 C 
ATOM     22  C15 <0> d           7.128  -4.229   1.012  0.00  0.00     0.035 C 
ATOM     23  O5  <0> d           8.633  -7.193   2.763  0.00  0.00    -0.387 OA
ATOM     24  C12 <0> d           7.550  -7.540   3.628  0.00  0.00     0.188 C 
ATOM     25  C11 <0> d           6.234  -7.465   2.844  0.00  0.00     0.161 C 
ENDBRANCH  16  19
ENDBRANCH  15  16
ENDBRANCH  14  15
ENDBRANCH   1  14
TORSDOF 6
