REMARK  5 active torsions:
REMARK  status: ('A' for Active; 'I' for Inactive)
REMARK    1  A    between atoms: C2_2  and  O1_3 
REMARK    2  A    between atoms: O1_3  and  C3_4 
REMARK    3  A    between atoms: C3_4  and  C4_6 
REMARK    4  A    between atoms: N2_16  and  C13_19 
REMARK    5  A    between atoms: C13_19  and  C14_20 
REMARK       I    between atoms: C14_20  and  N3_22 
REMARK       I    between atoms: N3_22  and  C15_23 
REMARK       I    between atoms: C15_23  and  N4_25 
ROOT
ATOM      1  C4  <0> d          -1.495   3.883   2.581  0.00  0.00     0.121 C 
ATOM      2  C5  <0> d          -0.739   3.475   3.861  0.00  0.00     0.024 C 
ATOM      3  C6  <0> d          -0.942   4.720   4.754  0.00  0.00     0.048 C 
ATOM      4  C7  <0> d          -1.151   5.852   3.785  0.00  0.00    -0.007 A 
ATOM      5  C8  <0> d          -1.460   5.413   2.553  0.00  0.00    -0.013 A 
ATOM      6  C9  <0> d          -1.682   6.436   1.520  0.00  0.00     0.076 A 
ATOM      7  C10 <0> d          -1.549   7.768   1.933  0.00  0.00     0.115 A 
ATOM      8  S1  <0> d          -1.138   7.625   3.652  0.00  0.00    -0.073 SA
ATOM      9  N1  <0> d          -1.726   8.787   1.096  0.00  0.00    -0.235 NA
ATOM     10  C11 <0> d          -2.033   8.579  -0.157  0.00  0.00     0.214 A 
ATOM     11  N2  <0> d          -2.181   7.321  -0.646  0.00  0.00    -0.299 N 
ATOM     12  C12 <0> d          -2.018   6.240   0.141  0.00  0.00     0.262 A 
ATOM     13  O3  <0> d          -2.155   5.117  -0.312  0.00  0.00    -0.267 OA
ENDROOT
BRANCH  11  14
ATOM     14  C13 <0> d          -2.524   7.136  -2.058  0.00  0.00     0.236 C 
BRANCH  14  15
ATOM     15  C14 <0> d          -4.023   7.106  -2.211  0.00  0.00     0.243 C 
ATOM     16  O4  <0> d          -4.734   7.228  -1.236  0.00  0.00    -0.271 OA
ATOM     17  N3  <0> d          -4.573   6.945  -3.431  0.00  0.00    -0.278 N 
ATOM     18  C15 <0> d          -5.914   6.918  -3.567  0.00  0.00     0.322 C 
ATOM     19  H14 <0> d          -3.928   6.834  -4.315  0.00  0.00     0.173 HD
ATOM     20  O5  <0> d          -6.627   7.040  -2.590  0.00  0.00    -0.247 OA
ATOM     21  N4  <0> d          -6.464   6.757  -4.787  0.00  0.00    -0.347 N 
ATOM     22  C16 <0> d          -7.921   6.728  -4.935  0.00  0.00     0.151 C 
ATOM     23  H15 <0> d          -5.819   6.646  -5.671  0.00  0.00     0.163 HD
ENDBRANCH  14  15
ENDBRANCH  11  14
BRANCH   1  24
ATOM     24  C3  <0> d          -0.803   3.323   1.365  0.00  0.00     0.267 C 
ATOM     25  O2  <0> d          -0.342   4.069   0.535  0.00  0.00    -0.265 OA
BRANCH  24  26
ATOM     26  O1  <0> d          -0.698   1.994   1.205  0.00  0.00    -0.321 OA
BRANCH  26  27
ATOM     27  C2  <0> d          -0.019   1.526   0.010  0.00  0.00     0.174 C 
ATOM     28  C1  <0> d           0.002  -0.004   0.002  0.00  0.00     0.034 C 
ENDBRANCH  26  27
ENDBRANCH  24  26
ENDBRANCH   1  24
TORSDOF 5
