REMARK  5 active torsions:
REMARK  status: ('A' for Active; 'I' for Inactive)
REMARK    1  A    between atoms: N1_13  and  C13_16 
REMARK    2  A    between atoms: C13_16  and  C14_17 
REMARK    3  A    between atoms: C14_17  and  C15_18 
REMARK    4  A    between atoms: C15_18  and  C16_19 
REMARK       I    between atoms: C16_19  and  N2_21 
REMARK    5  A    between atoms: N2_21  and  C17_22 
ROOT
ATOM      1  C1  <0> d          -0.262   1.300   0.055  0.00  0.00     0.002 A 
ATOM      2  C2  <0> d           0.869   2.064   0.041  0.00  0.00     0.012 A 
ATOM      3  C3  <0> d           2.133   1.449   0.013  0.00  0.00    -0.024 A 
ATOM      4  C4  <0> d           3.327   2.192  -0.003  0.00  0.00     0.012 A 
ATOM      5  C5  <0> d           4.531   1.549  -0.031  0.00  0.00     0.002 A 
ATOM      6  C6  <0> d           4.616   0.162  -0.042  0.00  0.00     0.018 A 
ATOM      7  C7  <0> d           3.462  -0.607  -0.027  0.00  0.00     0.044 A 
ATOM      8  C8  <0> d           2.206   0.041   0.002  0.00  0.00     0.005 A 
ATOM      9  C9  <0> d           1.024  -0.734   0.017  0.00  0.00     0.044 A 
ATOM     10  C10 <0> d          -0.203  -0.089   0.044  0.00  0.00     0.018 A 
ATOM     11  C11 <0> d           1.141  -2.200   0.004  0.00  0.00     0.261 A 
ATOM     12  O1  <0> d           0.137  -2.886   0.016  0.00  0.00    -0.267 OA
ATOM     13  N1  <0> d           2.353  -2.786  -0.023  0.00  0.00    -0.280 N 
ATOM     14  C12 <0> d           3.498  -2.077  -0.039  0.00  0.00     0.261 A 
ATOM     15  O2  <0> d           4.567  -2.656  -0.064  0.00  0.00    -0.267 OA
ENDROOT
BRANCH  13  16
ATOM     16  C13 <0> d           2.429  -4.249  -0.035  0.00  0.00     0.136 C 
BRANCH  16  17
ATOM     17  C14 <0> d           2.429  -4.747  -1.482  0.00  0.00     0.029 C 
BRANCH  17  18
ATOM     18  C15 <0> d           2.508  -6.275  -1.495  0.00  0.00     0.105 C 
BRANCH  18  19
ATOM     19  C16 <0> d           2.508  -6.766  -2.920  0.00  0.00     0.223 C 
ATOM     20  O3  <0> d           2.451  -5.972  -3.835  0.00  0.00    -0.273 OA
ATOM     21  N2  <0> d           2.572  -8.087  -3.178  0.00  0.00    -0.311 N 
ATOM     22  H13 <0> d           2.693  -8.718  -2.451  0.00  0.00     0.170 HD
BRANCH  21  23
ATOM     23  C17 <0> d           2.465  -8.548  -4.491  0.00  0.00     0.144 A 
ATOM     24  C18 <0> d           2.390  -9.918  -4.739  0.00  0.00     0.151 A 
ATOM     25  O4  <0> d           2.421 -10.808  -3.711  0.00  0.00    -0.188 OA
ATOM     26  C19 <0> d           2.283 -10.360  -6.050  0.00  0.00     0.045 A 
ATOM     27  C20 <0> d           2.255  -9.415  -7.066  0.00  0.00     0.020 A 
ATOM     28  C21 <0> d           2.334  -8.075  -6.746  0.00  0.00     0.090 A 
ATOM     29  N3  <0> d           2.430  -7.681  -5.490  0.00  0.00    -0.350 N 
ATOM     30  H17 <0> d           2.480  -6.733  -5.294  0.00  0.00     0.166 HD
ENDBRANCH  21  23
ENDBRANCH  18  19
ENDBRANCH  17  18
ENDBRANCH  16  17
ENDBRANCH  13  16
TORSDOF 5
