REMARK  6 active torsions:
REMARK  status: ('A' for Active; 'I' for Inactive)
REMARK    1  A    between atoms: C4_4  and  C7_11 
REMARK    2  A    between atoms: C5_5  and  C6_7 
REMARK       I    between atoms: C7_11  and  N1_13 
REMARK    3  A    between atoms: C9_15  and  C16_23 
REMARK       I    between atoms: C16_23  and  N3_25 
REMARK    4  A    between atoms: N3_25  and  C17_26 
REMARK    5  A    between atoms: C17_26  and  C18_27 
REMARK    6  A    between atoms: C18_27  and  O4_28 
ROOT
ATOM      1  C7  <0> d          -1.363  -3.415  -0.013  0.00  0.00     0.256 C 
ATOM      2  O2  <0> d          -0.806  -4.490  -0.120  0.00  0.00    -0.267 OA
ATOM      3  N1  <0> d          -2.705  -3.359   0.097  0.00  0.00    -0.346 N 
ATOM      4  C8  <0> d          -3.565  -2.152   0.117  0.00  0.00     0.141 C 
ATOM      5  C9  <0> d          -4.807  -2.543  -0.714  0.00  0.00     0.106 C 
ATOM      6  C10 <0> d          -4.862  -4.079  -0.640  0.00  0.00    -0.007 C 
ATOM      7  C11 <0> d          -3.655  -4.490   0.216  0.00  0.00     0.136 C 
ATOM      8  C12 <0> d          -4.740  -4.680  -2.037  0.00  0.00     0.039 C 
ATOM      9  C13 <0> d          -4.854  -6.204  -1.942  0.00  0.00     0.233 C 
ATOM     10  N2  <0> d          -6.145  -6.564  -1.344  0.00  0.00    -0.075 N 
ATOM     11  C14 <0> d          -6.216  -6.060   0.033  0.00  0.00     0.233 C 
ATOM     12  C15 <0> d          -6.160  -4.530   0.023  0.00  0.00     0.039 C 
ATOM     13  H14 <0> d          -6.891  -6.158  -1.888  0.00  0.00     0.277 HD
ATOM     14  H27 <0> d          -6.243  -7.568  -1.339  0.00  0.00     0.277 HD
ENDROOT
BRANCH   1  15
ATOM     15  C4  <0> d          -0.570  -2.172  -0.002  0.00  0.00     0.073 A 
ATOM     16  C3  <0> d          -0.942  -0.886   0.606  0.00  0.00     0.052 A 
ATOM     17  C2  <0> d           0.083  -0.055   0.365  0.00  0.00     0.051 A 
ATOM     18  C1  <0> d           0.160   1.387   0.798  0.00  0.00     0.076 C 
ATOM     19  O1  <0> d           1.028  -0.710  -0.329  0.00  0.00    -0.310 OA
ATOM     20  C5  <0> d           0.661  -1.976  -0.554  0.00  0.00     0.175 A 
BRANCH  20  21
ATOM     21  C6  <0> d           1.470  -3.008  -1.297  0.00  0.00     0.440 C 
ATOM     22  F1  <0> d           1.153  -2.956  -2.659  0.00  0.00    -0.164 F 
ATOM     23  F2  <0> d           2.833  -2.745  -1.125  0.00  0.00    -0.164 F 
ATOM     24  F3  <0> d           1.173  -4.280  -0.798  0.00  0.00    -0.164 F 
ENDBRANCH  20  21
ENDBRANCH   1  15
BRANCH   5  25
ATOM     25  C16 <0> d          -6.052  -1.942  -0.113  0.00  0.00     0.224 C 
ATOM     26  O3  <0> d          -6.083  -1.666   1.067  0.00  0.00    -0.273 OA
ATOM     27  N3  <0> d          -7.130  -1.712  -0.888  0.00  0.00    -0.359 N 
ATOM     28  H19 <0> d          -7.106  -1.932  -1.832  0.00  0.00     0.162 HD
BRANCH  27  29
ATOM     29  C17 <0> d          -8.340  -1.127  -0.304  0.00  0.00     0.148 C 
BRANCH  29  30
ATOM     30  C18 <0> d          -9.406  -0.971  -1.390  0.00  0.00     0.186 C 
BRANCH  30  31
ATOM     31  O4  <0> d          -9.800  -2.261  -1.861  0.00  0.00    -0.394 OA
ATOM     32  C19 <0> d         -10.797  -2.228  -2.883  0.00  0.00     0.201 C 
ENDBRANCH  30  31
ENDBRANCH  29  30
ENDBRANCH  27  29
ENDBRANCH   5  25
TORSDOF 6
