REMARK  4 active torsions:
REMARK  status: ('A' for Active; 'I' for Inactive)
REMARK    1  A    between atoms: C4_4  and  C7_7 
REMARK    2  A    between atoms: C7_7  and  C8_8 
REMARK    3  A    between atoms: C7_7  and  N4_20 
REMARK    4  A    between atoms: C9_11  and  C10_13 
ROOT
ATOM      1  C8  <0> d           4.014  -1.161  -1.442  0.00  0.00     0.204 A 
ATOM      2  N1  <0> d           3.446  -2.152  -2.071  0.00  0.00    -0.124 NA
ATOM      3  N2  <0> d           3.947  -2.256  -3.252  0.00  0.00    -0.119 NA
ATOM      4  C9  <0> d           4.860  -1.328  -3.417  0.00  0.00     0.221 A 
ATOM      5  O1  <0> d           4.915  -0.614  -2.275  0.00  0.00    -0.269 OA
ENDROOT
BRANCH   1   6
ATOM      6  C7  <0> d           3.711  -0.707  -0.038  0.00  0.00     0.294 C 
BRANCH   6   7
ATOM      7  C4  <0> d           2.396   0.029  -0.020  0.00  0.00    -0.020 A 
ATOM      8  C3  <0> d           2.377   1.411  -0.013  0.00  0.00     0.010 A 
ATOM      9  C2  <0> d           1.171   2.086   0.002  0.00  0.00     0.001 A 
ATOM     10  C1  <0> d          -0.017   1.378   0.010  0.00  0.00     0.000 A 
ATOM     11  C6  <0> d           0.002  -0.004   0.002  0.00  0.00     0.001 A 
ATOM     12  C5  <0> d           1.208  -0.679  -0.012  0.00  0.00     0.010 A 
ENDBRANCH   6   7
BRANCH   6  13
ATOM     13  N4  <0> d           3.630  -1.877   0.848  0.00  0.00    -0.063 N 
ATOM     14  H10 <0> d           4.510  -2.369   0.836  0.00  0.00     0.275 HD
ATOM     15  H11 <0> d           3.427  -1.573   1.788  0.00  0.00     0.275 HD
ATOM     16  H12 <0> d           2.897  -2.491   0.527  0.00  0.00     0.275 HD
ENDBRANCH   6  13
ENDBRANCH   1   6
BRANCH   4  17
ATOM     17  C10 <0> d           5.673  -1.105  -4.632  0.00  0.00     0.111 A 
ATOM     18  N3  <0> d           6.565  -0.121  -4.655  0.00  0.00    -0.255 NA
ATOM     19  C14 <0> d           7.312   0.107  -5.715  0.00  0.00     0.136 A 
ATOM     20  C13 <0> d           7.186  -0.668  -6.855  0.00  0.00     0.028 A 
ATOM     21  C12 <0> d           6.261  -1.704  -6.875  0.00  0.00     0.023 A 
ATOM     22 Br1  <0> d           8.263  -0.321  -8.370  0.00  0.00    -0.050 Br
ATOM     23  C11 <0> d           5.493  -1.925  -5.746  0.00  0.00     0.037 A 
ENDBRANCH   4  17
TORSDOF 4
