REMARK  3 active torsions:
REMARK  status: ('A' for Active; 'I' for Inactive)
REMARK    1  A    between atoms: C3_3  and  C7_11 
REMARK    2  A    between atoms: C7_11  and  N3_13 
REMARK    3  A    between atoms: N3_13  and  C9_14 
ROOT
ATOM      1  C7  <0> d          -3.149   0.254   0.412  0.00  0.00     0.223 C 
ATOM      2  C8  <0> d          -4.434   0.156  -0.413  0.00  0.00     0.045 C 
ENDROOT
BRANCH   1   3
ATOM      3  C3  <0> d          -2.027  -0.435  -0.321  0.00  0.00     0.064 A 
ATOM      4  C2  <0> d          -0.985   0.280  -0.829  0.00  0.00     0.046 A 
ATOM      5  C1  <0> d          -0.945   1.777  -0.663  0.00  0.00     0.071 C 
ATOM      6  N2  <0> d          -0.002  -0.347  -1.480  0.00  0.00    -0.240 NA
ATOM      7  C5  <0> d          -0.006  -1.644  -1.637  0.00  0.00     0.103 A 
ATOM      8  N1  <0> d          -1.007  -2.408  -1.158  0.00  0.00    -0.311 N 
ATOM      9  C6  <0> d           1.133  -2.300  -2.374  0.00  0.00     0.091 C 
ATOM     10  C4  <0> d          -2.034  -1.835  -0.495  0.00  0.00     0.257 A 
ATOM     11  H1  <0> d          -0.991  -3.369  -1.290  0.00  0.00     0.170 HD
ATOM     12  O1  <0> d          -2.948  -2.513  -0.056  0.00  0.00    -0.267 OA
ENDBRANCH   1   3
BRANCH   1  13
ATOM     13  N3  <0> d          -3.353  -0.392   1.715  0.00  0.00    -0.058 N 
ATOM     14  H12 <0> d          -4.235  -0.095   2.103  0.00  0.00     0.279 HD
ATOM     15  H22 <0> d          -3.358  -1.394   1.596  0.00  0.00     0.279 HD
BRANCH  13  16
ATOM     16  C9  <0> d          -2.264  -0.012   2.626  0.00  0.00     0.136 C 
ATOM     17  C12 <0> d          -2.582  -0.561   4.030  0.00  0.00     0.178 C 
ATOM     18  S1  <0> d          -1.075  -1.530   4.454  0.00  0.00     0.146 S 
ATOM     19  C11 <0> d           0.069  -0.803   3.200  0.00  0.00     0.143 C 
ATOM     20  O2  <0> d          -0.635  -1.165   5.755  0.00  0.00    -0.228 OA
ATOM     21  O3  <0> d          -1.297  -2.900   4.146  0.00  0.00    -0.228 OA
ATOM     22  C10 <0> d          -0.945  -0.529   2.054  0.00  0.00     0.054 C 
ATOM     23  C13 <0> d          -2.199   1.514   2.699  0.00  0.00     0.047 C 
ENDBRANCH  13  16
ENDBRANCH   1  13
TORSDOF 3
