REMARK  6 active torsions:
REMARK  status: ('A' for Active; 'I' for Inactive)
REMARK    1  A    between atoms: C8_9  and  S1_11 
REMARK    2  A    between atoms: S1_11  and  C9_12 
REMARK    3  A    between atoms: C9_12  and  C10_13 
REMARK       I    between atoms: C10_13  and  N3_15 
REMARK    4  A    between atoms: N3_15  and  C11_16 
REMARK    5  A    between atoms: C13_18  and  S2_23 
REMARK    6  A    between atoms: S2_23  and  N4_26 
ROOT
ATOM      1  C10 <0> d           0.132  -8.426   1.625  0.00  0.00     0.231 C 
ATOM      2  O1  <0> d           0.134  -8.583   2.827  0.00  0.00    -0.272 OA
ATOM      3  N3  <0> d           0.139  -9.496   0.805  0.00  0.00    -0.326 N 
ATOM      4  H9  <0> d           0.056  -9.374  -0.153  0.00  0.00     0.169 HD
ENDROOT
BRANCH   1   5
ATOM      5  C9  <0> d           0.120  -7.035   1.046  0.00  0.00     0.185 C 
BRANCH   5   6
ATOM      6  S1  <0> d           0.113  -5.820   2.393  0.00  0.00    -0.083 SA
BRANCH   6   7
ATOM      7  C8  <0> d           0.100  -4.265   1.565  0.00  0.00     0.168 A 
ATOM      8  N1  <0> d           0.091  -3.046   2.183  0.00  0.00    -0.333 N 
ATOM      9  C6  <0> d           0.084  -2.082   1.188  0.00  0.00     0.063 A 
ATOM     10  H18 <0> d           0.091  -2.886   3.139  0.00  0.00     0.168 HD
ATOM     11  C5  <0> d           0.088  -2.778  -0.032  0.00  0.00     0.086 A 
ATOM     12  C7  <0> d           0.079  -0.695   1.194  0.00  0.00     0.038 A 
ATOM     13  C4  <0> d           0.083  -2.063  -1.232  0.00  0.00     0.034 A 
ATOM     14  N2  <0> d           0.098  -4.104   0.264  0.00  0.00    -0.223 NA
ATOM     15  C3  <0> d           0.073  -0.686  -1.208  0.00  0.00     0.009 A 
ATOM     16  C2  <0> d           0.068  -0.004  -0.000  0.00  0.00    -0.060 A 
ATOM     17  C1  <0> d           0.058   1.503   0.008  0.00  0.00     0.048 C 
ENDBRANCH   6   7
ENDBRANCH   5   6
ENDBRANCH   1   5
BRANCH   3  18
ATOM     18  C11 <0> d           0.266 -10.784   1.338  0.00  0.00     0.042 A 
ATOM     19  C16 <0> d          -0.229 -11.877   0.639  0.00  0.00    -0.035 A 
ATOM     20  C15 <0> d          -0.096 -13.148   1.165  0.00  0.00     0.010 A 
ATOM     21  C17 <0> d          -0.904 -11.679  -0.693  0.00  0.00     0.050 C 
ATOM     22  C14 <0> d           0.517 -13.331   2.391  0.00  0.00     0.026 A 
ATOM     23  C13 <0> d           1.005 -12.243   3.091  0.00  0.00     0.081 A 
ATOM     24  C12 <0> d           0.882 -10.971   2.569  0.00  0.00     0.055 A 
BRANCH  23  25
ATOM     25  S2  <0> d           1.786 -12.480   4.653  0.00  0.00     0.256 S 
ATOM     26  O2  <0> d           2.264 -13.819   4.669  0.00  0.00    -0.201 OA
ATOM     27  O3  <0> d           2.643 -11.364   4.853  0.00  0.00    -0.201 OA
BRANCH  25  28
ATOM     28  N4  <0> d           0.606 -12.385   5.811  0.00  0.00    -0.324 N 
ATOM     29  H16 <0> d          -0.315 -12.223   5.552  0.00  0.00     0.169 HD
ATOM     30  H17 <0> d           0.836 -12.491   6.747  0.00  0.00     0.169 HD
ENDBRANCH  25  28
ENDBRANCH  23  25
ENDBRANCH   3  18
TORSDOF 6
