REMARK  6 active torsions:
REMARK  status: ('A' for Active; 'I' for Inactive)
REMARK    1  A    between atoms: C4_6  and  S1_7 
REMARK    2  A    between atoms: S1_7  and  C5_8 
REMARK    3  A    between atoms: C8_11  and  N3_14 
REMARK       I    between atoms: N3_14  and  C11_15 
REMARK    4  A    between atoms: C11_15  and  C12_17 
REMARK       I    between atoms: C12_17  and  N4_19 
REMARK    5  A    between atoms: N4_19  and  C13_20 
REMARK    6  A    between atoms: C13_20  and  C14_21 
ROOT
ATOM      1  C5  <0> d           0.044  -1.724   3.802  0.00  0.00     0.008 A 
ATOM      2  C6  <0> d           0.139  -2.994   3.248  0.00  0.00     0.021 A 
ATOM      3  C7  <0> d           0.169  -4.104   4.068  0.00  0.00     0.031 A 
ATOM      4  C8  <0> d           0.105  -3.951   5.447  0.00  0.00     0.035 A 
ATOM      5  C9  <0> d           0.011  -2.680   6.002  0.00  0.00     0.031 A 
ATOM      6  C10 <0> d          -0.014  -1.570   5.182  0.00  0.00     0.021 A 
ENDROOT
BRANCH   4   7
ATOM      7  N3  <0> d           0.135  -5.076   6.278  0.00  0.00    -0.319 N 
ATOM      8  C11 <0> d           0.882  -6.145   5.938  0.00  0.00     0.313 C 
ATOM      9  O1  <0> d           1.462  -6.166   4.871  0.00  0.00    -0.262 OA
ATOM     10  H10 <0> d          -0.381  -5.086   7.099  0.00  0.00     0.169 HD
BRANCH   8  11
ATOM     11  C12 <0> d           0.996  -7.303   6.872  0.00  0.00     0.309 C 
ATOM     12  O2  <0> d           0.417  -7.283   7.939  0.00  0.00    -0.262 OA
ATOM     13  N4  <0> d           1.743  -8.373   6.532  0.00  0.00    -0.353 N 
ATOM     14  H11 <0> d           2.207  -8.389   5.680  0.00  0.00     0.162 HD
BRANCH  13  15
ATOM     15  C13 <0> d           1.855  -9.509   7.449  0.00  0.00     0.127 C 
BRANCH  15  16
ATOM     16  C14 <0> d           2.754 -10.580   6.827  0.00  0.00     0.003 A 
ATOM     17  C16 <0> d           3.092 -11.803   7.682  0.00  0.00     0.007 A 
ATOM     18  C15 <0> d           2.120 -11.936   6.508  0.00  0.00     0.007 A 
ENDBRANCH  15  16
ENDBRANCH  13  15
ENDBRANCH   8  11
ENDBRANCH   4   7
BRANCH   1  19
ATOM     19  S1  <0> d           0.006  -0.306   2.756  0.00  0.00    -0.052 SA
BRANCH  19  20
ATOM     20  C4  <0> d          -1.712   0.033   2.561  0.00  0.00     0.172 A 
ATOM     21  N1  <0> d          -2.244   1.102   1.907  0.00  0.00    -0.339 N 
ATOM     22  C1  <0> d          -1.500   2.175   1.242  0.00  0.00     0.158 C 
ATOM     23  C2  <0> d          -3.612   0.981   1.985  0.00  0.00     0.112 A 
ATOM     24  C3  <0> d          -3.868  -0.141   2.679  0.00  0.00     0.136 A 
ATOM     25  N2  <0> d          -2.697  -0.701   3.024  0.00  0.00    -0.235 NA
ENDBRANCH  19  20
ENDBRANCH   1  19
TORSDOF 6
