REMARK  7 active torsions:
REMARK  status: ('A' for Active; 'I' for Inactive)
REMARK    1  A    between atoms: C2_2  and  C3_3 
REMARK    2  A    between atoms: C3_3  and  C5_5 
REMARK    3  A    between atoms: C5_5  and  N1_6 
REMARK    4  A    between atoms: C7_9  and  C16_22 
REMARK    5  A    between atoms: N3_14  and  C13_17 
REMARK    6  A    between atoms: N4_19  and  C14_20 
REMARK    7  A    between atoms: C16_22  and  C18_24 
ROOT
ATOM      1  N1  <0> d           1.719  -2.527  -2.271  0.00  0.00    -0.317 N 
ATOM      2  C6  <0> d           1.315  -2.857  -3.516  0.00  0.00     0.253 C 
ATOM      3  O1  <0> d           0.181  -2.777  -3.937  0.00  0.00    -0.271 OA
ATOM      4  C7  <0> d           2.517  -3.344  -4.297  0.00  0.00     0.284 C 
ATOM      5  N2  <0> d           3.541  -3.643  -3.268  0.00  0.00    -0.035 N 
ATOM      6  C8  <0> d           3.162  -2.750  -2.150  0.00  0.00     0.206 C 
ATOM      7  C9  <0> d           3.483  -3.427  -0.819  0.00  0.00     0.081 C 
ATOM      8  C10 <0> d           3.049  -2.515   0.333  0.00  0.00     0.129 C 
ATOM      9  N3  <0> d           3.671  -1.196   0.151  0.00  0.00    -0.358 N 
ATOM     10  C11 <0> d           3.483  -0.495  -1.127  0.00  0.00     0.129 C 
ATOM     11  C12 <0> d           3.913  -1.425  -2.266  0.00  0.00     0.081 C 
ATOM     12  H14 <0> d           3.492  -4.612  -2.987  0.00  0.00     0.281 HD
ATOM     13  H37 <0> d           4.464  -3.415  -3.606  0.00  0.00     0.281 HD
ENDROOT
BRANCH   1  14
ATOM     14  C5  <0> d           0.850  -2.018  -1.208  0.00  0.00     0.132 C 
BRANCH  14  15
ATOM     15  C3  <0> d           0.035  -3.171  -0.619  0.00  0.00    -0.001 C 
ATOM     16  C4  <0> d           0.970  -4.332  -0.274  0.00  0.00     0.011 C 
BRANCH  15  17
ATOM     17  C2  <0> d          -0.678  -2.697   0.649  0.00  0.00     0.001 C 
ATOM     18  C1  <0> d          -1.590  -3.811   1.168  0.00  0.00     0.005 C 
ENDBRANCH  15  17
ENDBRANCH  14  15
ENDBRANCH   1  14
BRANCH   4  19
ATOM     19  C16 <0> d           2.164  -4.607  -5.085  0.00  0.00     0.021 C 
ATOM     20  C17 <0> d           1.570  -5.650  -4.136  0.00  0.00     0.012 C 
BRANCH  19  21
ATOM     21  C18 <0> d           1.141  -4.263  -6.170  0.00  0.00     0.002 C 
ATOM     22  C19 <0> d           0.882  -5.497  -7.036  0.00  0.00     0.005 C 
ENDBRANCH  19  21
ENDBRANCH   4  19
BRANCH   9  23
ATOM     23  C13 <0> d           4.401  -0.640   1.138  0.00  0.00     0.169 C 
ATOM     24  S1  <0> d           4.721  -1.524   2.569  0.00  0.00    -0.041 SA
ATOM     25  N4  <0> d           4.880   0.613   0.998  0.00  0.00    -0.367 N 
ATOM     26  H23 <0> d           4.760   1.087   0.161  0.00  0.00     0.161 HD
BRANCH  25  27
ATOM     27  C14 <0> d           5.579   1.258   2.112  0.00  0.00     0.117 C 
ATOM     28  C15 <0> d           6.016   2.663   1.694  0.00  0.00     0.026 C 
ENDBRANCH  25  27
ENDBRANCH   9  23
TORSDOF 7
