REMARK  4 active torsions:
REMARK  status: ('A' for Active; 'I' for Inactive)
REMARK    1  A    between atoms: C5_6  and  C6_7 
REMARK       I    between atoms: C6_7  and  N1_9 
REMARK    2  A    between atoms: N1_9  and  N2_10 
REMARK       I    between atoms: N2_10  and  C7_11 
REMARK    3  A    between atoms: C7_11  and  C8_13 
REMARK    4  A    between atoms: C14_20  and  C16_22 
ROOT
ATOM      1  N2  <0> d          -3.533  -1.189   0.030  0.00  0.00    -0.262 N 
ATOM      2  C7  <0> d          -4.772  -0.657   0.045  0.00  0.00     0.277 C 
ATOM      3  O3  <0> d          -4.915   0.551   0.052  0.00  0.00    -0.265 OA
ATOM      4  H8  <0> d          -3.404  -2.281   0.024  0.00  0.00     0.190 HD
ENDROOT
BRANCH   2   5
ATOM      5  C8  <0> d          -5.946  -1.535   0.052  0.00  0.00     0.075 A 
ATOM      6  S1  <0> d          -6.019  -3.318   0.044  0.00  0.00    -0.089 SA
ATOM      7  C11 <0> d          -7.732  -3.497   0.060  0.00  0.00    -0.010 A 
ATOM      8  C10 <0> d          -8.219  -2.221   0.071  0.00  0.00    -0.043 A 
ATOM      9  C12 <0> d          -8.525  -4.767   0.060  0.00  0.00     0.047 C 
ATOM     10  C9  <0> d          -7.287  -1.197   0.072  0.00  0.00     0.033 A 
ATOM     11  C15 <0> d          -9.725  -1.967   0.087  0.00  0.00     0.045 C 
ATOM     12  C14 <0> d         -10.434  -3.241   0.549  0.00  0.00    -0.003 C 
ATOM     13  C13 <0> d          -9.979  -4.430  -0.301  0.00  0.00     0.011 C 
BRANCH  12  14
ATOM     14  C16 <0> d         -11.946  -3.061   0.403  0.00  0.00    -0.048 C 
ATOM     15  C17 <0> d         -12.289  -2.788  -1.063  0.00  0.00     0.015 C 
ATOM     16  C18 <0> d         -12.658  -4.334   0.865  0.00  0.00     0.015 C 
ATOM     17  C19 <0> d         -12.405  -1.880   1.262  0.00  0.00     0.015 C 
ENDBRANCH  12  14
ENDBRANCH   2   5
BRANCH   1  18
ATOM     18  N1  <0> d          -2.411  -0.350   0.024  0.00  0.00    -0.261 N 
ATOM     19  C6  <0> d          -1.173  -0.882   0.009  0.00  0.00     0.294 C 
ATOM     20  O2  <0> d          -1.029  -2.090   0.002  0.00  0.00    -0.264 OA
ATOM     21  H7  <0> d          -2.541   0.742   0.030  0.00  0.00     0.190 HD
BRANCH  19  22
ATOM     22  C5  <0> d           0.002  -0.004   0.002  0.00  0.00     0.150 A 
ATOM     23  C2  <0> d           1.306  -0.409  -0.013  0.00  0.00    -0.021 A 
ATOM     24  C1  <0> d           1.806  -1.830  -0.026  0.00  0.00     0.051 C 
ATOM     25  C3  <0> d           2.090   0.755  -0.014  0.00  0.00     0.034 A 
ATOM     26  C4  <0> d           1.241   1.807  -0.000  0.00  0.00     0.143 A 
ATOM     27  O1  <0> d          -0.016   1.345   0.009  0.00  0.00    -0.317 OA
ENDBRANCH  19  22
ENDBRANCH   1  18
TORSDOF 4
