REMARK  6 active torsions:
REMARK  status: ('A' for Active; 'I' for Inactive)
REMARK    1  A    between atoms: O1_2  and  C2_3 
REMARK    2  A    between atoms: C2_3  and  C3_4 
REMARK    3  A    between atoms: C3_4  and  N1_5 
REMARK    4  A    between atoms: C4_6  and  C5_10 
REMARK    5  A    between atoms: C5_10  and  C6_11 
REMARK    6  A    between atoms: C5_10  and  N6_32 
ROOT
ATOM      1  C5  <0> d           3.512   0.638  -0.028  0.00  0.00     0.299 C 
ENDROOT
BRANCH   1   2
ATOM      2  C4  <0> d           2.005   0.637  -0.014  0.00  0.00     0.183 A 
ATOM      3  N1  <0> d           1.200   1.716  -0.000  0.00  0.00    -0.230 N 
ATOM      4  N4  <0> d          -0.015   1.283   0.009  0.00  0.00    -0.044 NA
ATOM      5  N3  <0> d           0.002  -0.004   0.002  0.00  0.00    -0.023 NA
ATOM      6  N2  <0> d           1.223  -0.415  -0.012  0.00  0.00    -0.111 NA
BRANCH   3   7
ATOM      7  C3  <0> d           1.625   3.118   0.003  0.00  0.00     0.180 C 
BRANCH   7   8
ATOM      8  C2  <0> d           1.787   3.599   1.446  0.00  0.00     0.189 C 
BRANCH   8   9
ATOM      9  O1  <0> d           2.201   4.966   1.449  0.00  0.00    -0.394 OA
ATOM     10  C1  <0> d           2.382   5.516   2.756  0.00  0.00     0.201 C 
ENDBRANCH   8   9
ENDBRANCH   7   8
ENDBRANCH   3   7
ENDBRANCH   1   2
BRANCH   1  11
ATOM     11  C6  <0> d           4.027   0.263   1.338  0.00  0.00     0.049 A 
ATOM     12  C14 <0> d           3.775  -1.024   1.855  0.00  0.00     0.254 A 
ATOM     13  N5  <0> d           4.223  -1.398   3.065  0.00  0.00    -0.322 N 
ATOM     14  O2  <0> d           3.139  -1.819   1.184  0.00  0.00    -0.268 OA
ATOM     15  C13 <0> d           4.941  -0.526   3.858  0.00  0.00     0.048 A 
ATOM     16  H2  <0> d           4.034  -2.323   3.397  0.00  0.00     0.169 HD
ATOM     17  C8  <0> d           5.213   0.774   3.390  0.00  0.00    -0.006 A 
ATOM     18  C12 <0> d           5.396  -0.914   5.112  0.00  0.00     0.070 A 
ATOM     19  C7  <0> d           4.727   1.168   2.068  0.00  0.00     0.029 A 
ATOM     20  C9  <0> d           5.940   1.667   4.188  0.00  0.00     0.053 A 
ATOM     21  C10 <0> d           6.384   1.268   5.429  0.00  0.00     0.105 A 
ATOM     22  O4  <0> d           7.098   1.931   6.386  0.00  0.00    -0.323 OA
ATOM     23  C11 <0> d           6.112  -0.026   5.893  0.00  0.00     0.107 A 
ATOM     24  C15 <0> d           6.907   1.178   7.598  0.00  0.00     0.352 C 
ATOM     25  O3  <0> d           6.658  -0.162   7.136  0.00  0.00    -0.323 OA
ENDBRANCH   1  11
BRANCH   1  26
ATOM     26  N6  <0> d           3.964  -0.376  -0.993  0.00  0.00    -0.056 N 
ATOM     27  C16 <0> d           5.459  -0.514  -0.915  0.00  0.00     0.236 C 
ATOM     28  C17 <0> d           6.034  -1.285  -2.072  0.00  0.00     0.028 C 
ATOM     29  C18 <0> d           6.512  -0.280  -3.141  0.00  0.00     0.002 C 
ATOM     30  C19 <0> d           5.407   0.244  -3.936  0.00  0.00     0.002 C 
ATOM     31  C20 <0> d           4.379   1.006  -3.074  0.00  0.00     0.028 C 
ATOM     32  C21 <0> d           3.506   0.002  -2.373  0.00  0.00     0.236 C 
ATOM     33  H27 <0> d           3.542  -1.279  -0.747  0.00  0.00     0.281 HD
ENDBRANCH   1  26
TORSDOF 6
