REMARK  5 active torsions:
REMARK  status: ('A' for Active; 'I' for Inactive)
REMARK    1  A    between atoms: C2_2  and  C3_3 
REMARK    2  A    between atoms: C3_3  and  O1_4 
REMARK    3  A    between atoms: O1_4  and  C4_5 
REMARK    4  A    between atoms: C5_6  and  O2_26 
REMARK    5  A    between atoms: C7_8  and  C10_12 
ROOT
ATOM      1  C10 <0> d          -6.401  -4.590   0.035  0.00  0.00     0.259 C 
ATOM      2  N1  <0> d          -6.440  -5.596  -1.042  0.00  0.00    -0.200 N 
ATOM      3  C11 <0> d          -6.713  -5.158  -2.330  0.00  0.00     0.688 C 
ATOM      4  N2  <0> d          -7.854  -4.369  -2.487  0.00  0.00    -0.021 N 
ATOM      5  C12 <0> d          -8.143  -3.527  -1.417  0.00  0.00     0.724 A 
ATOM      6  N3  <0> d          -7.474  -3.621  -0.216  0.00  0.00    -0.152 N 
ATOM      7  C13 <0> d          -8.000  -2.674   0.616  0.00  0.00     0.083 A 
ATOM      8  C14 <0> d          -7.729  -2.315   1.931  0.00  0.00     0.033 A 
ATOM      9  C15 <0> d          -8.476  -1.280   2.469  0.00  0.00     0.002 A 
ATOM     10  C16 <0> d          -9.453  -0.623   1.740  0.00  0.00     0.002 A 
ATOM     11  C17 <0> d          -9.742  -0.961   0.430  0.00  0.00     0.034 A 
ATOM     12  C18 <0> d          -9.000  -2.005  -0.134  0.00  0.00     0.103 A 
ATOM     13  N4  <0> d          -9.031  -2.572  -1.361  0.00  0.00    -0.062 NA
ATOM     14  N5  <0> d          -5.947  -5.466  -3.337  0.00  0.00    -0.234 N 
ATOM     15  H11 <0> d          -6.279  -6.535  -0.856  0.00  0.00     0.180 HD
ATOM     16  H16 <0> d          -5.161  -6.017  -3.198  0.00  0.00     0.174 HD
ATOM     17  H20 <0> d          -8.404  -4.404  -3.285  0.00  0.00     0.203 HD
ATOM     18  H21 <0> d          -6.163  -5.146  -4.227  0.00  0.00     0.174 HD
ENDROOT
BRANCH   1  19
ATOM     19  C7  <0> d          -5.068  -3.888   0.029  0.00  0.00    -0.011 A 
ATOM     20  C6  <0> d          -4.451  -3.569   1.225  0.00  0.00     0.050 A 
ATOM     21  C5  <0> d          -3.225  -2.923   1.222  0.00  0.00     0.103 A 
ATOM     22  C4  <0> d          -2.617  -2.596   0.013  0.00  0.00     0.119 A 
ATOM     23  C9  <0> d          -3.243  -2.914  -1.182  0.00  0.00     0.047 A 
ATOM     24  C8  <0> d          -4.464  -3.564  -1.172  0.00  0.00     0.033 A 
ATOM     25 Br1  <0> d          -2.425  -2.465  -2.827  0.00  0.00    -0.048 Br
BRANCH  21  26
ATOM     26  O2  <0> d          -2.618  -2.609   2.397  0.00  0.00    -0.353 OA
ATOM     27  C19 <0> d          -3.300  -2.974   3.598  0.00  0.00     0.210 C 
ENDBRANCH  21  26
BRANCH  22  28
ATOM     28  O1  <0> d          -1.414  -1.962   0.005  0.00  0.00    -0.347 OA
BRANCH  28  29
ATOM     29  C3  <0> d          -1.433  -0.534   0.013  0.00  0.00     0.175 C 
BRANCH  29  30
ATOM     30  C2  <0> d           0.002  -0.004   0.002  0.00  0.00     0.022 C 
ATOM     31  C1  <0> d          -0.019   1.526   0.010  0.00  0.00     0.007 C 
ENDBRANCH  29  30
ENDBRANCH  28  29
ENDBRANCH  22  28
ENDBRANCH   1  19
TORSDOF 5
