REMARK  5 active torsions:
REMARK  status: ('A' for Active; 'I' for Inactive)
REMARK    1  A    between atoms: N1_10  and  C10_14 
REMARK    2  A    between atoms: C10_14  and  N4_30 
REMARK    3  A    between atoms: C12_16  and  C13_17 
REMARK    4  A    between atoms: C12_16  and  N4_30 
REMARK    5  A    between atoms: C16_20  and  N3_23 
ROOT
ATOM      1  C11 <0> d          -3.773  -1.882   1.032  0.00  0.00     0.272 C 
ATOM      2  N4  <0> d          -3.234  -1.860   2.408  0.00  0.00    -0.055 N 
ATOM      3  H33 <0> d          -2.253  -2.163   2.387  0.00  0.00     0.281 HD
ENDROOT
BRANCH   2   4
ATOM      4  C10 <0> d          -3.301  -0.488   2.955  0.00  0.00     0.371 C 
BRANCH   4   5
ATOM      5  N1  <0> d          -2.136   0.263   2.478  0.00  0.00    -0.242 N 
ATOM      6  C8  <0> d          -2.117   0.991   1.342  0.00  0.00     0.258 A 
ATOM      7  C7  <0> d          -0.726   1.577   1.263  0.00  0.00     0.119 A 
ATOM      8  O1  <0> d          -3.023   1.142   0.552  0.00  0.00    -0.270 OA
ATOM      9  C2  <0> d          -0.790   3.101   1.286  0.00  0.00     0.019 C 
ATOM     10  C6  <0> d          -0.013   1.086   0.008  0.00  0.00     0.041 C 
ATOM     11  N2  <0> d          -0.056   1.072   2.468  0.00  0.00    -0.324 N 
ATOM     12  C1  <0> d          -1.536   3.561   2.539  0.00  0.00     0.013 C 
ATOM     13  C3  <0> d          -1.527   3.600   0.040  0.00  0.00     0.007 C 
ATOM     14  C4  <0> d          -0.790   3.122  -1.213  0.00  0.00     0.001 C 
ATOM     15  C5  <0> d          -0.753   1.593  -1.233  0.00  0.00     0.003 C 
ATOM     16  C9  <0> d          -0.960   0.312   3.115  0.00  0.00     0.327 A 
ATOM     17  H13 <0> d           0.857   1.250   2.743  0.00  0.00     0.165 HD
ATOM     18  O2  <0> d          -0.734  -0.264   4.161  0.00  0.00    -0.247 OA
ENDBRANCH   4   5
ENDBRANCH   2   4
BRANCH   2  19
ATOM     19  C12 <0> d          -4.004  -2.784   3.267  0.00  0.00     0.274 C 
BRANCH  19  20
ATOM     20  C13 <0> d          -3.740  -4.198   2.818  0.00  0.00    -0.032 A 
ATOM     21  C18 <0> d          -2.682  -4.907   3.357  0.00  0.00     0.010 A 
ATOM     22  C17 <0> d          -2.438  -6.203   2.948  0.00  0.00     0.024 A 
ATOM     23  C16 <0> d          -3.257  -6.795   1.994  0.00  0.00     0.010 A 
ATOM     24  C15 <0> d          -4.319  -6.080   1.455  0.00  0.00     0.024 A 
ATOM     25  C14 <0> d          -4.561  -4.786   1.873  0.00  0.00     0.010 A 
BRANCH  23  26
ATOM     26  N3  <0> d          -3.013  -8.106   1.579  0.00  0.00    -0.279 NA
ATOM     27  C22 <0> d          -3.994  -8.530   0.569  0.00  0.00     0.122 C 
ATOM     28  C21 <0> d          -3.727  -9.988   0.187  0.00  0.00     0.182 C 
ATOM     29  O3  <0> d          -2.381 -10.114  -0.281  0.00  0.00    -0.389 OA
ATOM     30  C20 <0> d          -1.399  -9.710   0.677  0.00  0.00     0.182 C 
ATOM     31  C19 <0> d          -1.643  -8.249   1.065  0.00  0.00     0.122 C 
ENDBRANCH  23  26
ENDBRANCH  19  20
ENDBRANCH   2  19
TORSDOF 5
