REMARK  6 active torsions:
REMARK  status: ('A' for Active; 'I' for Inactive)
REMARK    1  A    between atoms: C6_7  and  C9_10 
REMARK    2  A    between atoms: N2_11  and  N3_12 
REMARK       I    between atoms: N3_12  and  C10_13 
REMARK    3  A    between atoms: C10_13  and  C11_15 
REMARK       I    between atoms: C11_15  and  N4_17 
REMARK    4  A    between atoms: N4_17  and  C12_18 
REMARK    5  A    between atoms: C17_23  and  C18_24 
REMARK       I    between atoms: C18_24  and  N5_26 
REMARK    6  A    between atoms: N5_26  and  C19_27 
ROOT
ATOM      1  C11 <0> d          -0.196  -7.858  -0.060  0.00  0.00     0.315 C 
ATOM      2  O2  <0> d          -1.393  -7.655  -0.028  0.00  0.00    -0.262 OA
ATOM      3  N4  <0> d           0.274  -9.121  -0.069  0.00  0.00    -0.318 N 
ATOM      4  H9  <0> d           1.226  -9.283  -0.161  0.00  0.00     0.169 HD
ENDROOT
BRANCH   3   5
ATOM      5  C12 <0> d          -0.606 -10.191   0.053  0.00  0.00     0.051 A 
ATOM      6  C17 <0> d          -0.219 -11.347   0.748  0.00  0.00     0.059 A 
ATOM      7  C16 <0> d          -1.113 -12.413   0.867  0.00  0.00     0.019 A 
ATOM      8  C15 <0> d          -2.365 -12.328   0.296  0.00  0.00     0.001 A 
ATOM      9  C14 <0> d          -2.743 -11.187  -0.394  0.00  0.00     0.002 A 
ATOM     10  C13 <0> d          -1.871 -10.124  -0.517  0.00  0.00     0.030 A 
BRANCH   6  11
ATOM     11  C18 <0> d           1.124 -11.434   1.353  0.00  0.00     0.258 C 
ATOM     12  O3  <0> d           1.863 -10.468   1.335  0.00  0.00    -0.267 OA
ATOM     13  N5  <0> d           1.532 -12.584   1.926  0.00  0.00    -0.323 N 
ATOM     14  H14 <0> d           0.919 -13.333   2.000  0.00  0.00     0.169 HD
BRANCH  13  15
ATOM     15  C19 <0> d           2.837 -12.697   2.414  0.00  0.00     0.035 A 
ATOM     16  C24 <0> d           3.511 -13.909   2.326  0.00  0.00     0.031 A 
ATOM     17  C23 <0> d           4.802 -14.016   2.805  0.00  0.00     0.021 A 
ATOM     18  C22 <0> d           5.420 -12.921   3.382  0.00  0.00     0.011 A 
ATOM     19  C21 <0> d           4.750 -11.714   3.475  0.00  0.00     0.021 A 
ATOM     20 Br1  <0> d           7.186 -13.075   4.043  0.00  0.00    -0.051 Br
ATOM     21  C20 <0> d           3.461 -11.600   2.994  0.00  0.00     0.031 A 
ENDBRANCH  13  15
ENDBRANCH   6  11
ENDBRANCH   3   5
BRANCH   1  22
ATOM     22  C10 <0> d           0.753  -6.708  -0.088  0.00  0.00     0.329 C 
ATOM     23  N3  <0> d           0.283  -5.445  -0.079  0.00  0.00    -0.239 N 
ATOM     24  H8  <0> d          -0.673  -5.284  -0.054  0.00  0.00     0.192 HD
ATOM     25  O1  <0> d           1.950  -6.910  -0.120  0.00  0.00    -0.261 OA
BRANCH  23  26
ATOM     26  N2  <0> d           1.176  -4.365  -0.106  0.00  0.00    -0.184 NA
ATOM     27  C9  <0> d           0.719  -3.138  -0.097  0.00  0.00     0.148 C 
BRANCH  27  28
ATOM     28  C6  <0> d           1.612  -2.057  -0.124  0.00  0.00    -0.009 A 
ATOM     29  C5  <0> d           3.123  -2.120  -0.165  0.00  0.00     0.161 A 
ATOM     30  N1  <0> d           3.586  -0.729  -0.182  0.00  0.00    -0.385 N 
ATOM     31  C4  <0> d           2.546   0.075  -0.156  0.00  0.00     0.039 A 
ATOM     32  H19 <0> d           4.514  -0.447  -0.208  0.00  0.00     0.160 HD
ATOM     33  C3  <0> d           2.453   1.494  -0.159  0.00  0.00     0.030 A 
ATOM     34  C7  <0> d           1.294  -0.701  -0.120  0.00  0.00    -0.000 A 
ATOM     35  C2  <0> d           1.237   2.089  -0.128  0.00  0.00     0.002 A 
ATOM     36  C1  <0> d           0.052   1.347  -0.094  0.00  0.00     0.001 A 
ATOM     37  C8  <0> d           0.062  -0.010  -0.089  0.00  0.00     0.014 A 
ENDBRANCH  27  28
ENDBRANCH  23  26
ENDBRANCH   1  22
TORSDOF 6
