REMARK  4 active torsions:
REMARK  status: ('A' for Active; 'I' for Inactive)
REMARK    1  A    between atoms: N1_2  and  N2_4 
REMARK    2  A    between atoms: C5_7  and  C9_13 
REMARK    3  A    between atoms: C7_9  and  N3_10 
REMARK    4  A    between atoms: C15_21  and  C17_23 
ROOT
ATOM      1  N2  <0> d           1.417  -3.910   0.183  0.00  0.00    -0.263 N 
ATOM      2  C3  <0> d           2.196  -3.767  -0.933  0.00  0.00     0.043 C 
ATOM      3  C4  <0> d           2.699  -2.561  -1.271  0.00  0.00     0.026 C 
ATOM      4  C5  <0> d           2.402  -1.338  -0.441  0.00  0.00     0.112 C 
ATOM      5  C6  <0> d           1.914  -1.717   0.926  0.00  0.00     0.081 C 
ATOM      6  C7  <0> d           1.445  -2.966   1.182  0.00  0.00     0.134 C 
ATOM      7  C8  <0> d           1.944  -0.747   1.979  0.00  0.00     0.100 C 
ATOM      8  N4  <0> d           1.968   0.022   2.815  0.00  0.00    -0.191 NA
ATOM      9  C13 <0> d           3.515  -2.408  -2.406  0.00  0.00     0.159 C 
ATOM     10  O1  <0> d           3.945  -1.307  -2.686  0.00  0.00    -0.293 OA
ATOM     11  C14 <0> d           3.865  -3.581  -3.279  0.00  0.00     0.093 C 
ATOM     12  C15 <0> d           3.851  -4.857  -2.430  0.00  0.00     0.031 C 
ATOM     13  C16 <0> d           2.474  -4.988  -1.774  0.00  0.00     0.069 C 
ENDROOT
BRANCH   4  14
ATOM     14  C9  <0> d           1.345  -0.515  -1.132  0.00  0.00    -0.004 A 
ATOM     15  S1  <0> d          -0.335  -0.958  -1.540  0.00  0.00    -0.105 SA
ATOM     16  C12 <0> d          -0.819   0.576  -2.314  0.00  0.00     0.050 A 
ATOM     17  C11 <0> d           0.315   1.312  -2.211  0.00  0.00     0.008 A 
ATOM     18  C10 <0> d           1.424   0.752  -1.605  0.00  0.00     0.016 A 
ENDBRANCH   4  14
BRANCH   6  19
ATOM     19  N3  <0> d           0.997  -3.287   2.441  0.00  0.00    -0.383 N 
ATOM     20  H9  <0> d           1.393  -2.863   3.218  0.00  0.00     0.157 HD
ATOM     21  H10 <0> d           0.285  -3.936   2.552  0.00  0.00     0.157 HD
ENDBRANCH   6  19
BRANCH   1  22
ATOM     22  N1  <0> d           0.603  -5.001   0.305  0.00  0.00    -0.231 NA
ATOM     23  C1  <0> d           1.053  -5.874   1.397  0.00  0.00     0.136 C 
ATOM     24  C2  <0> d          -0.796  -4.595   0.497  0.00  0.00     0.136 C 
ENDBRANCH   1  22
BRANCH  12  25
ATOM     25  C17 <0> d           4.109  -6.053  -3.310  0.00  0.00    -0.053 A 
ATOM     26  C22 <0> d           5.192  -6.875  -3.059  0.00  0.00     0.007 A 
ATOM     27  C21 <0> d           5.428  -7.972  -3.866  0.00  0.00     0.001 A 
ATOM     28  C20 <0> d           4.582  -8.248  -4.923  0.00  0.00     0.000 A 
ATOM     29  C19 <0> d           3.498  -7.427  -5.173  0.00  0.00     0.001 A 
ATOM     30  C18 <0> d           3.259  -6.332  -4.364  0.00  0.00     0.007 A 
ENDBRANCH  12  25
TORSDOF 4
