REMARK  5 active torsions:
REMARK  status: ('A' for Active; 'I' for Inactive)
REMARK    1  A    between atoms: C3_3  and  S1_8 
REMARK    2  A    between atoms: S1_8  and  N2_11 
REMARK    3  A    between atoms: N2_11  and  C6_12 
REMARK    4  A    between atoms: C6_12  and  C8_14 
REMARK       I    between atoms: C8_14  and  N3_16 
REMARK    5  A    between atoms: N3_16  and  C9_17 
ROOT
ATOM      1  C6  <0> d          -2.570   4.140   0.252  0.00  0.00     0.181 C 
ATOM      2  C7  <0> d          -3.428   3.858  -0.983  0.00  0.00     0.043 C 
ENDROOT
BRANCH   1   3
ATOM      3  N2  <0> d          -2.322   5.580   0.356  0.00  0.00    -0.302 N 
ATOM      4  H8  <0> d          -1.587   5.982  -0.132  0.00  0.00     0.173 HD
BRANCH   3   5
ATOM      5  S1  <0> d          -3.298   6.522   1.306  0.00  0.00     0.264 S 
ATOM      6  O2  <0> d          -2.792   7.847   1.221  0.00  0.00    -0.200 OA
ATOM      7  O3  <0> d          -4.638   6.194   0.963  0.00  0.00    -0.200 OA
BRANCH   5   8
ATOM      8  C3  <0> d          -3.063   6.000   2.973  0.00  0.00     0.137 A 
ATOM      9  C2  <0> d          -2.122   6.481   3.911  0.00  0.00     0.084 A 
ATOM     10  C1  <0> d          -1.097   7.563   3.688  0.00  0.00     0.074 C 
ATOM     11  N1  <0> d          -2.316   5.805   5.006  0.00  0.00    -0.132 NA
ATOM     12  O1  <0> d          -3.212   5.003   4.881  0.00  0.00    -0.216 OA
ATOM     13  C4  <0> d          -3.747   5.048   3.653  0.00  0.00     0.100 A 
ATOM     14  C5  <0> d          -4.882   4.206   3.131  0.00  0.00     0.081 C 
ENDBRANCH   5   8
ENDBRANCH   3   5
ENDBRANCH   1   3
BRANCH   1  15
ATOM     15  C8  <0> d          -1.256   3.412   0.128  0.00  0.00     0.245 C 
ATOM     16  O4  <0> d          -0.215   4.035   0.127  0.00  0.00    -0.271 OA
ATOM     17  N3  <0> d          -1.238   2.069   0.019  0.00  0.00    -0.325 N 
ATOM     18  H12 <0> d          -2.070   1.577  -0.057  0.00  0.00     0.169 HD
BRANCH  17  19
ATOM     19  C9  <0> d          -0.017   1.384   0.015  0.00  0.00     0.034 A 
ATOM     20  C14 <0> d           1.051   1.861   0.763  0.00  0.00     0.031 A 
ATOM     21  C13 <0> d           2.252   1.181   0.762  0.00  0.00     0.021 A 
ATOM     22  C12 <0> d           2.393   0.023   0.017  0.00  0.00     0.011 A 
ATOM     23  C11 <0> d           1.330  -0.455  -0.730  0.00  0.00     0.021 A 
ATOM     24 Br1  <0> d           4.039  -0.906   0.017  0.00  0.00    -0.051 Br
ATOM     25  C10 <0> d           0.126   0.222  -0.732  0.00  0.00     0.031 A 
ENDBRANCH  17  19
ENDBRANCH   1  15
TORSDOF 5
