REMARK  5 active torsions:
REMARK  status: ('A' for Active; 'I' for Inactive)
REMARK    1  A    between atoms: C7_7  and  N1_8 
REMARK       I    between atoms: N1_8  and  C8_9 
REMARK    2  A    between atoms: C8_9  and  C9_11 
REMARK    3  A    between atoms: C9_11  and  C10_12 
REMARK    4  A    between atoms: C10_12  and  S1_14 
REMARK    5  A    between atoms: S1_14  and  C12_17 
ROOT
ATOM      1  C10 <0> d           3.490  -2.470   0.270  0.00  0.00     0.118 C 
ATOM      2  C11 <0> d           4.818  -3.197   0.493  0.00  0.00     0.027 C 
ENDROOT
BRANCH   1   3
ATOM      3  C9  <0> d           3.744  -0.964   0.175  0.00  0.00     0.123 C 
BRANCH   3   4
ATOM      4  C8  <0> d           2.426  -0.239   0.078  0.00  0.00     0.223 C 
ATOM      5  N1  <0> d           2.403   1.106  -0.015  0.00  0.00    -0.327 N 
ATOM      6  H8  <0> d           3.233   1.601  -0.087  0.00  0.00     0.169 HD
ATOM      7  O1  <0> d           1.387  -0.864   0.085  0.00  0.00    -0.273 OA
BRANCH   5   8
ATOM      8  C7  <0> d           1.180   1.786  -0.010  0.00  0.00     0.040 A 
ATOM      9  C2  <0> d           1.080   3.033   0.593  0.00  0.00    -0.034 A 
ATOM     10  C1  <0> d           2.289   3.655   1.243  0.00  0.00     0.050 C 
ATOM     11  C3  <0> d          -0.128   3.703   0.596  0.00  0.00     0.032 A 
ATOM     12  C4  <0> d          -1.238   3.133  -0.001  0.00  0.00     0.034 A 
ATOM     13  C5  <0> d          -1.140   1.892  -0.607  0.00  0.00     0.026 A 
ATOM     14 Cl1  <0> d          -2.755   3.977   0.005  0.00  0.00    -0.084 Cl
ATOM     15  C6  <0> d           0.064   1.216  -0.608  0.00  0.00     0.032 A 
ENDBRANCH   5   8
ENDBRANCH   3   4
ENDBRANCH   1   3
BRANCH   1  16
ATOM     16  S1  <0> d           2.732  -3.055  -1.271  0.00  0.00     0.179 S 
ATOM     17  O2  <0> d           1.421  -2.524  -1.403  0.00  0.00    -0.222 OA
ATOM     18  O3  <0> d           3.663  -2.960  -2.341  0.00  0.00    -0.222 OA
BRANCH  16  19
ATOM     19  C12 <0> d           2.496  -4.784  -1.032  0.00  0.00     0.061 A 
ATOM     20  C17 <0> d           3.489  -5.673  -1.399  0.00  0.00     0.055 A 
ATOM     21  C16 <0> d           3.304  -7.032  -1.206  0.00  0.00     0.070 A 
ATOM     22  C15 <0> d           2.113  -7.501  -0.653  0.00  0.00     0.096 A 
ATOM     23  N2  <0> d           4.301  -7.950  -1.565  0.00  0.00    -0.323 N 
ATOM     24  C14 <0> d           1.121  -6.605  -0.293  0.00  0.00     0.040 A 
ATOM     25  O5  <0> d           1.938  -8.838  -0.475  0.00  0.00    -0.340 OA
ATOM     26  C13 <0> d           1.315  -5.249  -0.483  0.00  0.00     0.026 A 
ATOM     27  C19 <0> d           2.557  -9.700  -1.434  0.00  0.00     0.278 C 
ATOM     28  C18 <0> d           3.980  -9.258  -1.668  0.00  0.00     0.246 C 
ATOM     29  O4  <0> d           4.832 -10.074  -1.948  0.00  0.00    -0.271 OA
ATOM     30  H17 <0> d           5.207  -7.650  -1.736  0.00  0.00     0.169 HD
ENDBRANCH  16  19
ENDBRANCH   1  16
TORSDOF 5
