REMARK  6 active torsions:
REMARK  status: ('A' for Active; 'I' for Inactive)
REMARK    1  A    between atoms: C4_4  and  C5_5 
REMARK    2  A    between atoms: C8_8  and  C9_10 
REMARK    3  A    between atoms: C9_10  and  N1_11 
REMARK    4  A    between atoms: N1_11  and  C11_13 
REMARK    5  A    between atoms: C11_13  and  C12_14 
REMARK    6  A    between atoms: C14_16  and  O2_17 
REMARK       I    between atoms: N2_25  and  C21_26 
ROOT
ATOM      1  C12 <0> d          -3.958  -6.979  -0.573  0.00  0.00    -0.015 A 
ATOM      2  C13 <0> d          -5.110  -7.041   0.184  0.00  0.00     0.073 A 
ATOM      3  C14 <0> d          -6.345  -6.851  -0.419  0.00  0.00     0.183 A 
ATOM      4  O3  <0> d          -6.450  -6.606  -1.730  0.00  0.00    -0.287 OA
ATOM      5  C15 <0> d          -5.356  -6.535  -2.516  0.00  0.00     0.091 A 
ATOM      6  C16 <0> d          -4.072  -6.715  -1.954  0.00  0.00     0.006 A 
ATOM      7  C17 <0> d          -2.929  -6.636  -2.770  0.00  0.00     0.017 A 
ATOM      8  C18 <0> d          -3.060  -6.381  -4.098  0.00  0.00     0.030 A 
ATOM      9  C19 <0> d          -4.333  -6.195  -4.665  0.00  0.00     0.037 A 
ATOM     10  C20 <0> d          -5.478  -6.281  -3.870  0.00  0.00     0.067 A 
ATOM     11  N2  <0> d          -4.451  -5.940  -5.997  0.00  0.00    -0.327 N 
ATOM     12  C21 <0> d          -5.580  -5.457  -6.478  0.00  0.00     0.218 C 
ATOM     13  O4  <0> d          -6.473  -5.125  -5.720  0.00  0.00    -0.274 OA
ATOM     14  C22 <0> d          -5.764  -5.316  -7.967  0.00  0.00     0.117 C 
ATOM     15  H21 <0> d          -3.705  -6.113  -6.591  0.00  0.00     0.169 HD
ENDROOT
BRANCH   1  16
ATOM     16  C11 <0> d          -2.607  -7.182   0.062  0.00  0.00     0.274 C 
BRANCH  16  17
ATOM     17  N1  <0> d          -2.135  -5.911   0.628  0.00  0.00    -0.065 N 
ATOM     18  C10 <0> d          -3.023  -5.504   1.725  0.00  0.00     0.270 C 
ATOM     19  H25 <0> d          -2.139  -5.202  -0.090  0.00  0.00     0.280 HD
BRANCH  17  20
ATOM     20  C9  <0> d          -0.769  -6.081   1.141  0.00  0.00     0.299 C 
BRANCH  20  21
ATOM     21  C8  <0> d          -0.239  -4.750   1.609  0.00  0.00     0.079 A 
ATOM     22  C7  <0> d          -0.362  -4.247   2.851  0.00  0.00     0.037 A 
ATOM     23  C6  <0> d           0.277  -2.985   2.846  0.00  0.00     0.035 A 
ATOM     24  C5  <0> d           0.751  -2.792   1.603  0.00  0.00     0.058 A 
ATOM     25  O1  <0> d           0.430  -3.862   0.856  0.00  0.00    -0.317 OA
BRANCH  24  26
ATOM     26  C4  <0> d           1.507  -1.579   1.126  0.00  0.00     0.047 A 
ATOM     27  C2  <0> d           0.895  -0.770  -0.019  0.00  0.00    -0.007 A 
ATOM     28  C1  <0> d           1.092   0.748   0.005  0.00  0.00     0.011 C 
ATOM     29  C3  <0> d           2.129  -1.638  -0.272  0.00  0.00     0.016 A 
ENDBRANCH  24  26
ENDBRANCH  20  21
ENDBRANCH  17  20
ENDBRANCH  16  17
ENDBRANCH   1  16
BRANCH   3  30
ATOM     30  O2  <0> d          -7.462  -6.914   0.331  0.00  0.00    -0.341 OA
ATOM     31  H26 <0> d          -8.279  -6.770  -0.167  0.00  0.00     0.220 HD
ENDBRANCH   3  30
TORSDOF 6
