REMARK  3 active torsions:
REMARK  status: ('A' for Active; 'I' for Inactive)
REMARK    1  A    between atoms: C4_4  and  C13_17 
REMARK    2  A    between atoms: C6_6  and  C9_12 
REMARK       I    between atoms: C13_17  and  N4_19 
REMARK    3  A    between atoms: N4_19  and  C14_20 
ROOT
ATOM      1  C13 <0> d          -0.430   0.800  -3.139  0.00  0.00     0.257 C 
ATOM      2  O1  <0> d          -0.425   1.753  -2.383  0.00  0.00    -0.267 OA
ATOM      3  N4  <0> d          -0.483   0.997  -4.471  0.00  0.00    -0.322 N 
ATOM      4  H11 <0> d          -0.553   0.239  -5.071  0.00  0.00     0.169 HD
ENDROOT
BRANCH   1   5
ATOM      5  C4  <0> d          -0.379  -0.574  -2.596  0.00  0.00     0.050 A 
ATOM      6  C3  <0> d          -1.095  -0.923  -1.426  0.00  0.00     0.053 A 
ATOM      7  C2  <0> d          -1.938  -0.208  -0.550  0.00  0.00     0.066 A 
ATOM      8  C7  <0> d          -1.019  -2.245  -0.943  0.00  0.00     0.159 A 
ATOM      9  C1  <0> d          -2.308   1.247  -0.678  0.00  0.00     0.073 C 
ATOM     10  N3  <0> d          -2.340  -1.015   0.390  0.00  0.00    -0.175 NA
ATOM     11  N2  <0> d          -1.799  -2.290   0.183  0.00  0.00    -0.256 N 
ATOM     12  C8  <0> d          -2.024  -3.466   1.027  0.00  0.00     0.182 C 
ATOM     13  N1  <0> d          -0.286  -3.149  -1.577  0.00  0.00    -0.228 NA
ATOM     14  C6  <0> d           0.394  -2.852  -2.675  0.00  0.00     0.077 A 
ATOM     15  C5  <0> d           0.372  -1.562  -3.220  0.00  0.00     0.051 A 
BRANCH  14  16
ATOM     16  C9  <0> d           1.192  -3.903  -3.336  0.00  0.00     0.033 A 
ATOM     17  S1  <0> d           2.195  -3.795  -4.809  0.00  0.00    -0.100 SA
ATOM     18  C12 <0> d           2.762  -5.487  -4.853  0.00  0.00     0.050 A 
ATOM     19  C11 <0> d           2.153  -6.020  -3.762  0.00  0.00     0.008 A 
ATOM     20  C10 <0> d           1.350  -5.218  -2.983  0.00  0.00     0.021 A 
ENDBRANCH  14  16
ENDBRANCH   1   5
BRANCH   3  21
ATOM     21  C14 <0> d          -0.437   2.298  -4.989  0.00  0.00     0.053 A 
ATOM     22  C18 <0> d          -1.139   2.618  -6.146  0.00  0.00     0.148 A 
ATOM     23  N5  <0> d          -1.116   3.837  -6.649  0.00  0.00    -0.240 NA
ATOM     24  C17 <0> d          -0.417   4.807  -6.085  0.00  0.00     0.148 A 
ATOM     25  C16 <0> d           0.323   4.557  -4.915  0.00  0.00     0.081 A 
ATOM     26  N6  <0> d          -0.392   6.084  -6.622  0.00  0.00    -0.287 N 
ATOM     27  C15 <0> d           0.315   3.281  -4.354  0.00  0.00     0.052 A 
ATOM     28  C20 <0> d           1.089   5.664  -4.317  0.00  0.00     0.265 A 
ATOM     29  N7  <0> d           1.044   6.871  -4.923  0.00  0.00    -0.270 N 
ATOM     30  O3  <0> d           1.743   5.497  -3.306  0.00  0.00    -0.267 OA
ATOM     31  C19 <0> d           0.323   7.061  -6.039  0.00  0.00     0.332 A 
ATOM     32  C21 <0> d           1.796   7.992  -4.352  0.00  0.00     0.164 C 
ATOM     33  O2  <0> d           0.317   8.166  -6.546  0.00  0.00    -0.246 OA
ATOM     34  C22 <0> d          -1.153   6.372  -7.840  0.00  0.00     0.163 C 
ENDBRANCH   3  21
TORSDOF 3
