REMARK  6 active torsions:
REMARK  status: ('A' for Active; 'I' for Inactive)
REMARK    1  A    between atoms: C4_4  and  C10_11 
REMARK    2  A    between atoms: N1_6  and  C6_7 
REMARK       I    between atoms: C10_11  and  N2_13 
REMARK    3  A    between atoms: N2_13  and  C11_14 
REMARK    4  A    between atoms: C15_18  and  C17_20 
REMARK    5  A    between atoms: C17_20  and  N3_21 
REMARK    6  A    between atoms: C20_24  and  C23_27 
REMARK       I    between atoms: C23_27  and  N4_29 
ROOT
ATOM      1  C11 <0> d           0.015  -4.649  -3.367  0.00  0.00     0.035 A 
ATOM      2  C12 <0> d           0.272  -5.844  -2.708  0.00  0.00     0.029 A 
ATOM      3  C13 <0> d           0.271  -7.033  -3.410  0.00  0.00     0.003 A 
ATOM      4  C14 <0> d           0.014  -7.035  -4.769  0.00  0.00     0.009 A 
ATOM      5  C15 <0> d          -0.243  -5.847  -5.429  0.00  0.00    -0.030 A 
ATOM      6  C16 <0> d          -0.248  -4.655  -4.731  0.00  0.00     0.038 A 
ENDROOT
BRANCH   1   7
ATOM      7  N2  <0> d           0.016  -3.443  -2.659  0.00  0.00    -0.323 N 
ATOM      8  C10 <0> d           0.854  -3.274  -1.616  0.00  0.00     0.258 C 
ATOM      9  O1  <0> d           1.672  -4.134  -1.348  0.00  0.00    -0.267 OA
ATOM     10  H13 <0> d          -0.586  -2.728  -2.918  0.00  0.00     0.169 HD
BRANCH   8  11
ATOM     11  C4  <0> d           0.778  -2.050  -0.802  0.00  0.00     0.056 A 
ATOM     12  C3  <0> d          -0.143  -0.924  -0.986  0.00  0.00     0.043 A 
ATOM     13  C2  <0> d           0.145  -0.036  -0.018  0.00  0.00     0.009 A 
ATOM     14  C1  <0> d          -0.545   1.286   0.193  0.00  0.00     0.068 C 
ATOM     15  N1  <0> d           1.170  -0.526   0.738  0.00  0.00    -0.349 N 
ATOM     16  C5  <0> d           1.552  -1.734   0.281  0.00  0.00     0.024 A 
ATOM     17  C9  <0> d           2.651  -2.588   0.859  0.00  0.00     0.069 C 
BRANCH  15  18
ATOM     18  C6  <0> d           1.766   0.161   1.886  0.00  0.00     0.090 A 
ATOM     19  C8  <0> d           3.238   0.565   1.782  0.00  0.00     0.028 A 
ATOM     20  C7  <0> d           2.144   1.633   1.710  0.00  0.00     0.028 A 
ENDBRANCH  15  18
ENDBRANCH   8  11
ENDBRANCH   1   7
BRANCH   5  21
ATOM     21  C17 <0> d          -0.521  -5.853  -6.910  0.00  0.00     0.273 C 
BRANCH  21  22
ATOM     22  N3  <0> d          -1.965  -6.006  -7.135  0.00  0.00    -0.067 N 
ATOM     23  C22 <0> d          -2.223  -6.132  -8.575  0.00  0.00     0.236 C 
ATOM     24  C21 <0> d          -3.716  -6.372  -8.810  0.00  0.00     0.042 C 
ATOM     25  C20 <0> d          -4.512  -5.190  -8.249  0.00  0.00     0.081 C 
ATOM     26  C19 <0> d          -4.178  -5.021  -6.764  0.00  0.00     0.042 C 
ATOM     27  C18 <0> d          -2.668  -4.832  -6.604  0.00  0.00     0.236 C 
ATOM     28  H31 <0> d          -2.293  -6.834  -6.662  0.00  0.00     0.280 HD
BRANCH  25  29
ATOM     29  C23 <0> d          -5.987  -5.455  -8.407  0.00  0.00     0.219 C 
ATOM     30  O2  <0> d          -6.702  -5.505  -7.429  0.00  0.00    -0.273 OA
ATOM     31  N4  <0> d          -6.511  -5.637  -9.635  0.00  0.00    -0.370 N 
ATOM     32  H29 <0> d          -5.939  -5.598 -10.418  0.00  0.00     0.159 HD
ATOM     33  H30 <0> d          -7.460  -5.808  -9.737  0.00  0.00     0.159 HD
ENDBRANCH  25  29
ENDBRANCH  21  22
ENDBRANCH   5  21
TORSDOF 6
