REMARK  3 active torsions:
REMARK  status: ('A' for Active; 'I' for Inactive)
REMARK    1  A    between atoms: N1_2  and  C2_3 
REMARK       I    between atoms: N1_2  and  C6_10 
REMARK    2  A    between atoms: C6_10  and  C7_12 
REMARK    3  A    between atoms: C7_12  and  C12_17 
ROOT
ATOM      1  C1  <0> d           0.053   1.033   0.200  0.00  0.00     0.153 C 
ATOM      2  N1  <0> d          -0.129  -0.401  -0.041  0.00  0.00    -0.350 N 
ATOM      3  C6  <0> d          -0.271  -0.860  -1.300  0.00  0.00     0.235 C 
ATOM      4  O3  <0> d          -0.515  -2.031  -1.494  0.00  0.00    -0.272 OA
ENDROOT
BRANCH   3   5
ATOM      5  C7  <0> d          -0.124   0.083  -2.467  0.00  0.00     0.093 C 
ATOM      6  C11 <0> d           1.237   0.806  -2.395  0.00  0.00     0.027 C 
ATOM      7  C10 <0> d           2.162  -0.036  -3.308  0.00  0.00     0.002 C 
ATOM      8  C9  <0> d           1.222  -0.437  -4.472  0.00  0.00     0.002 C 
ATOM      9  C8  <0> d          -0.134  -0.707  -3.787  0.00  0.00     0.027 C 
BRANCH   5  10
ATOM     10  C12 <0> d          -1.245   1.091  -2.459  0.00  0.00     0.089 C 
ATOM     11  S2  <0> d          -0.915   2.654  -2.527  0.00  0.00    -0.065 SA
ATOM     12  N2  <0> d          -2.525   0.675  -2.395  0.00  0.00    -0.392 N 
ATOM     13  H19 <0> d          -2.724  -0.268  -2.280  0.00  0.00     0.156 HD
ATOM     14  H20 <0> d          -3.248   1.318  -2.463  0.00  0.00     0.156 HD
ENDBRANCH   5  10
ENDBRANCH   3   5
BRANCH   2  15
ATOM     15  C2  <0> d          -0.158  -1.335   1.087  0.00  0.00     0.101 C 
ATOM     16  C5  <0> d           1.186  -1.258   1.867  0.00  0.00     0.165 C 
ATOM     17  S1  <0> d           0.683  -1.994   3.479  0.00  0.00     0.146 S 
ATOM     18  C4  <0> d          -1.133  -1.719   3.385  0.00  0.00     0.142 C 
ATOM     19  O1  <0> d           0.941  -3.391   3.452  0.00  0.00    -0.228 OA
ATOM     20  O2  <0> d           1.215  -1.205   4.534  0.00  0.00    -0.228 OA
ATOM     21  C3  <0> d          -1.293  -0.952   2.051  0.00  0.00     0.041 C 
ENDBRANCH   2  15
TORSDOF 3
