REMARK  2 active torsions:
REMARK  status: ('A' for Active; 'I' for Inactive)
REMARK    1  A    between atoms: N2_5  and  C4_7 
REMARK    2  A    between atoms: C9_12  and  O1_13 
ROOT
ATOM      1  C4  <0> d           0.053  -3.309   1.425  0.00  0.00     0.145 C 
ATOM      2  C5  <0> d          -1.193  -3.344   2.314  0.00  0.00     0.098 C 
ATOM      3  C6  <0> d          -1.168  -4.607   3.175  0.00  0.00     0.166 C 
ATOM      4  C7  <0> d           0.086  -4.614   4.051  0.00  0.00     0.071 C 
ATOM      5  C8  <0> d           1.329  -4.578   3.159  0.00  0.00     0.039 C 
ATOM      6  C9  <0> d           1.306  -3.310   2.303  0.00  0.00     0.143 C 
ATOM      7  O2  <0> d          -1.163  -5.766   2.325  0.00  0.00    -0.353 OA
ATOM      8  C10 <0> d          -1.963  -6.745   3.030  0.00  0.00     0.197 C 
ATOM      9  C11 <0> d          -3.053  -5.854   3.677  0.00  0.00     0.197 C 
ATOM     10  O3  <0> d          -2.336  -4.647   4.006  0.00  0.00    -0.353 OA
ENDROOT
BRANCH   1  11
ATOM     11  N2  <0> d           0.033  -2.097   0.603  0.00  0.00    -0.247 N 
ATOM     12  C3  <0> d           0.027  -2.034  -0.740  0.00  0.00     0.121 A 
ATOM     13  N1  <0> d           0.008  -0.772  -1.087  0.00  0.00    -0.218 NA
ATOM     14  C12 <0> d           0.038  -3.210  -1.681  0.00  0.00     0.093 C 
ATOM     15  C2  <0> d           0.002  -0.004   0.002  0.00  0.00     0.144 A 
ATOM     16  C1  <0> d          -0.018   1.503   0.010  0.00  0.00     0.095 C 
ATOM     17  N3  <0> d           0.022  -0.769   1.062  0.00  0.00    -0.155 NA
ENDBRANCH   1  11
BRANCH   6  18
ATOM     18  O1  <0> d           2.469  -3.274   1.473  0.00  0.00    -0.393 OA
ATOM     19  H12 <0> d           3.302  -3.272   1.964  0.00  0.00     0.210 HD
ENDBRANCH   6  18
TORSDOF 2
