REMARK  5 active torsions:
REMARK  status: ('A' for Active; 'I' for Inactive)
REMARK    1  A    between atoms: C3_3  and  C7_8 
REMARK       I    between atoms: C7_8  and  N1_10 
REMARK    2  A    between atoms: N1_10  and  C8_11 
REMARK    3  A    between atoms: C8_11  and  C9_12 
REMARK    4  A    between atoms: C9_12  and  N2_13 
REMARK    5  A    between atoms: N2_13  and  C10_14 
ROOT
ATOM      1  C8  <0> d           6.092   2.249  -0.045  0.00  0.00     0.142 C 
ENDROOT
BRANCH   1   2
ATOM      2  N1  <0> d           4.832   1.502  -0.036  0.00  0.00    -0.355 N 
ATOM      3  C7  <0> d           3.657   2.162  -0.022  0.00  0.00     0.251 C 
ATOM      4  O1  <0> d           3.643   3.377  -0.015  0.00  0.00    -0.268 OA
ATOM      5  H6  <0> d           4.843   0.532  -0.041  0.00  0.00     0.162 HD
BRANCH   3   6
ATOM      6  C3  <0> d           2.385   1.408  -0.013  0.00  0.00     0.033 A 
ATOM      7  C2  <0> d           1.167   2.088   0.002  0.00  0.00     0.017 A 
ATOM      8  C1  <0> d          -0.017   1.379   0.010  0.00  0.00     0.002 A 
ATOM      9  C6  <0> d           0.002  -0.004   0.002  0.00  0.00     0.019 A 
ATOM     10  C5  <0> d           1.207  -0.686  -0.013  0.00  0.00     0.011 A 
ATOM     11  C4  <0> d           2.398   0.012  -0.021  0.00  0.00     0.036 A 
ATOM     12 Br1  <0> d           1.221  -2.577  -0.023  0.00  0.00    -0.051 Br
ENDBRANCH   3   6
ENDBRANCH   1   2
BRANCH   1  13
ATOM     13  C9  <0> d           7.266   1.268  -0.061  0.00  0.00     0.139 C 
BRANCH  13  14
ATOM     14  N2  <0> d           8.526   2.016  -0.070  0.00  0.00    -0.389 N 
ATOM     15  H11 <0> d           8.515   2.986  -0.065  0.00  0.00     0.159 HD
BRANCH  14  16
ATOM     16  C10 <0> d           9.710   1.350  -0.085  0.00  0.00     0.052 A 
ATOM     17  C13 <0> d          11.040   2.086  -0.094  0.00  0.00     0.228 A 
ATOM     18  C12 <0> d          12.274   1.200  -0.105  0.00  0.00     0.286 A 
ATOM     19 Cl1  <0> d          11.089   3.150  -1.548  0.00  0.00    -0.108 Cl
ATOM     20  N4  <0> d          12.079  -0.128  -0.116  0.00  0.00    -0.110 NA
ATOM     21  O2  <0> d          13.392   1.673  -0.109  0.00  0.00    -0.268 OA
ATOM     22  N3  <0> d          10.919  -0.661  -0.112  0.00  0.00    -0.157 NA
ATOM     23  C11 <0> d           9.768  -0.018  -0.098  0.00  0.00     0.167 A 
ENDBRANCH  14  16
ENDBRANCH  13  14
ENDBRANCH   1  13
TORSDOF 5
