REMARK  6 active torsions:
REMARK  status: ('A' for Active; 'I' for Inactive)
REMARK    1  A    between atoms: C4_4  and  C18_22 
REMARK    2  A    between atoms: C7_7  and  N1_8 
REMARK       I    between atoms: N1_8  and  C8_9 
REMARK       I    between atoms: C8_9  and  N2_11 
REMARK    3  A    between atoms: N2_11  and  C9_12 
REMARK    4  A    between atoms: C9_12  and  C10_13 
REMARK    5  A    between atoms: C10_13  and  C11_14 
REMARK    6  A    between atoms: C11_14  and  N3_15 
REMARK       I    between atoms: C18_22  and  N4_24 
ROOT
ATOM      1  N1  <0> d           0.025  -0.012   2.413  0.00  0.00    -0.308 N 
ATOM      2  C8  <0> d          -0.057  -0.688   3.577  0.00  0.00     0.320 C 
ATOM      3  O1  <0> d          -0.040  -1.903   3.576  0.00  0.00    -0.247 OA
ATOM      4  N2  <0> d          -0.156  -0.015   4.741  0.00  0.00    -0.343 N 
ATOM      5  H7  <0> d           0.078   0.956   2.417  0.00  0.00     0.170 HD
ATOM      6  H8  <0> d          -0.169   0.955   4.741  0.00  0.00     0.164 HD
ENDROOT
BRANCH   1   7
ATOM      7  C7  <0> d           0.033  -0.706   1.204  0.00  0.00     0.042 A 
ATOM      8  C2  <0> d          -0.589  -0.159   0.086  0.00  0.00    -0.034 A 
ATOM      9  C1  <0> d          -1.270   1.182   0.184  0.00  0.00     0.050 C 
ATOM     10  C3  <0> d          -0.579  -0.838  -1.111  0.00  0.00     0.026 A 
ATOM     11  C4  <0> d           0.053  -2.082  -1.202  0.00  0.00     0.032 A 
ATOM     12  C5  <0> d           0.672  -2.631  -0.075  0.00  0.00     0.019 A 
ATOM     13  C6  <0> d           0.657  -1.946   1.119  0.00  0.00     0.031 A 
BRANCH  11  14
ATOM     14  C18 <0> d           0.066  -2.813  -2.483  0.00  0.00     0.251 C 
ATOM     15  O2  <0> d          -0.474  -2.334  -3.462  0.00  0.00    -0.268 OA
ATOM     16  N4  <0> d           0.675  -4.012  -2.569  0.00  0.00    -0.361 N 
ATOM     17  C19 <0> d           0.688  -4.738  -3.841  0.00  0.00     0.149 C 
ATOM     18  H27 <0> d           1.105  -4.394  -1.788  0.00  0.00     0.162 HD
ENDBRANCH  11  14
ENDBRANCH   1   7
BRANCH   4  19
ATOM     19  C9  <0> d          -0.245  -0.749   6.005  0.00  0.00     0.126 C 
BRANCH  19  20
ATOM     20  C10 <0> d          -0.348   0.243   7.165  0.00  0.00     0.047 C 
BRANCH  20  21
ATOM     21  C11 <0> d          -0.441  -0.523   8.486  0.00  0.00     0.236 C 
BRANCH  21  22
ATOM     22  N3  <0> d          -0.540   0.430   9.599  0.00  0.00    -0.071 N 
ATOM     23  C16 <0> d          -0.749  -0.305  10.853  0.00  0.00     0.235 C 
ATOM     24  C15 <0> d          -0.935   0.686  12.004  0.00  0.00     0.032 C 
ATOM     25  C14 <0> d           0.317   1.560  12.125  0.00  0.00    -0.015 C 
ATOM     26  C13 <0> d           0.568   2.264  10.788  0.00  0.00     0.032 C 
ATOM     27  C17 <0> d           0.108   2.605  13.222  0.00  0.00     0.010 C 
ATOM     28  C12 <0> d           0.697   1.214   9.682  0.00  0.00     0.235 C 
ATOM     29  H31 <0> d          -1.320   1.050   9.441  0.00  0.00     0.279 HD
ENDBRANCH  21  22
ENDBRANCH  20  21
ENDBRANCH  19  20
ENDBRANCH   4  19
TORSDOF 6
