REMARK  5 active torsions:
REMARK  status: ('A' for Active; 'I' for Inactive)
REMARK    1  A    between atoms: C2_2  and  C3_3 
REMARK    2  A    between atoms: C2_2  and  N2_13 
REMARK       I    between atoms: C3_3  and  N1_5 
REMARK    3  A    between atoms: N1_5  and  C4_6 
REMARK    4  A    between atoms: C10_16  and  C13_19 
REMARK    5  A    between atoms: C13_19  and  N3_20 
ROOT
ATOM      1  N2  <0> d           0.256  -1.125   1.488  0.00  0.00    -0.059 N 
ATOM      2  C8  <0> d          -0.514  -0.756   2.682  0.00  0.00     0.236 C 
ATOM      3  C9  <0> d          -0.059  -1.606   3.871  0.00  0.00     0.034 C 
ATOM      4  C10 <0> d          -0.289  -3.086   3.551  0.00  0.00     0.015 C 
ATOM      5  C11 <0> d           0.460  -3.441   2.263  0.00  0.00     0.034 C 
ATOM      6  C12 <0> d          -0.015  -2.524   1.134  0.00  0.00     0.236 C 
ATOM      7  H37 <0> d           1.241  -1.012   1.678  0.00  0.00     0.280 HD
ENDROOT
BRANCH   1   8
ATOM      8  C2  <0> d          -0.130  -0.255   0.370  0.00  0.00     0.275 C 
ATOM      9  C1  <0> d           0.203   1.198   0.717  0.00  0.00     0.050 C 
BRANCH   8  10
ATOM     10  C3  <0> d           0.628  -0.662  -0.868  0.00  0.00     0.248 C 
ATOM     11  O1  <0> d           1.717  -1.185  -0.767  0.00  0.00    -0.271 OA
ATOM     12  N1  <0> d           0.095  -0.444  -2.086  0.00  0.00    -0.354 N 
ATOM     13  H6  <0> d          -0.776  -0.025  -2.167  0.00  0.00     0.162 HD
BRANCH  12  14
ATOM     14  C4  <0> d           0.832  -0.840  -3.289  0.00  0.00     0.099 C 
ATOM     15  C7  <0> d           0.387   0.046  -4.478  0.00  0.00     0.165 C 
ATOM     16  S1  <0> d           0.560  -1.089  -5.915  0.00  0.00     0.146 S 
ATOM     17  C6  <0> d           1.072  -2.623  -5.032  0.00  0.00     0.142 C 
ATOM     18  O2  <0> d          -0.720  -1.296  -6.496  0.00  0.00    -0.228 OA
ATOM     19  O3  <0> d           1.635  -0.644  -6.730  0.00  0.00    -0.228 OA
ATOM     20  C5  <0> d           0.544  -2.317  -3.601  0.00  0.00     0.041 C 
ENDBRANCH  12  14
ENDBRANCH   8  10
ENDBRANCH   1   8
BRANCH   4  21
ATOM     21  C13 <0> d           0.237  -3.945   4.702  0.00  0.00     0.239 C 
BRANCH  21  22
ATOM     22  N3  <0> d          -0.074  -5.357   4.441  0.00  0.00    -0.071 N 
ATOM     23  C19 <0> d           0.566  -6.142   5.402  0.00  0.00     0.235 C 
ATOM     24  C18 <0> d           0.367  -7.650   5.143  0.00  0.00     0.028 C 
ATOM     25  C17 <0> d          -1.008  -8.053   5.612  0.00  0.00     0.002 C 
ATOM     26  C16 <0> d          -2.055  -7.990   4.482  0.00  0.00     0.002 C 
ATOM     27  C15 <0> d          -1.871  -6.740   3.601  0.00  0.00     0.028 C 
ATOM     28  C14 <0> d          -1.540  -5.524   4.429  0.00  0.00     0.235 C 
ATOM     29  H36 <0> d           0.286  -5.604   3.531  0.00  0.00     0.279 HD
ENDBRANCH  21  22
ENDBRANCH   4  21
TORSDOF 5
