REMARK  5 active torsions:
REMARK  status: ('A' for Active; 'I' for Inactive)
REMARK    1  A    between atoms: C5_6  and  C6_7 
REMARK       I    between atoms: C6_7  and  N1_9 
REMARK    2  A    between atoms: N1_9  and  N2_10 
REMARK       I    between atoms: N2_10  and  C7_11 
REMARK       I    between atoms: C7_11  and  N3_13 
REMARK    3  A    between atoms: N3_13  and  C8_14 
REMARK    4  A    between atoms: C8_14  and  C9_15 
REMARK    5  A    between atoms: C8_14  and  C17_25 
ROOT
ATOM      1  N2  <0> d           0.058  -0.732   4.900  0.00  0.00    -0.249 N 
ATOM      2  C7  <0> d           0.080  -1.625   5.909  0.00  0.00     0.335 C 
ATOM      3  O2  <0> d           0.086  -1.239   7.062  0.00  0.00    -0.246 OA
ATOM      4  N3  <0> d           0.096  -2.945   5.640  0.00  0.00    -0.333 N 
ATOM      5  H8  <0> d           0.047   0.219   5.094  0.00  0.00     0.192 HD
ATOM      6  H9  <0> d           0.091  -3.253   4.720  0.00  0.00     0.165 HD
ENDROOT
BRANCH   4   7
ATOM      7  C8  <0> d           0.119  -3.916   6.737  0.00  0.00     0.122 C 
BRANCH   7   8
ATOM      8  C9  <0> d          -0.468  -5.221   6.265  0.00  0.00    -0.032 A 
ATOM      9  C14 <0> d          -1.294  -5.949   7.102  0.00  0.00     0.049 A 
ATOM     10  C13 <0> d          -1.840  -7.148   6.668  0.00  0.00     0.102 A 
ATOM     11  C12 <0> d          -1.548  -7.619   5.394  0.00  0.00     0.102 A 
ATOM     12  O3  <0> d          -2.650  -7.853   7.503  0.00  0.00    -0.346 OA
ATOM     13  C11 <0> d          -0.713  -6.888   4.562  0.00  0.00     0.040 A 
ATOM     14  O4  <0> d          -2.073  -8.793   4.949  0.00  0.00    -0.346 OA
ATOM     15  C10 <0> d          -0.176  -5.692   4.999  0.00  0.00     0.012 A 
ATOM     16  C16 <0> d          -2.599  -9.681   5.941  0.00  0.00     0.202 C 
ATOM     17  C15 <0> d          -3.470  -8.862   6.904  0.00  0.00     0.202 C 
ENDBRANCH   7   8
BRANCH   7  18
ATOM     18  C17 <0> d           1.564  -4.141   7.189  0.00  0.00     0.005 C 
ATOM     19  C18 <0> d           2.160  -2.815   7.667  0.00  0.00     0.012 C 
ATOM     20  C19 <0> d           1.588  -5.154   8.334  0.00  0.00     0.012 C 
ENDBRANCH   7  18
ENDBRANCH   4   7
BRANCH   1  21
ATOM     21  N1  <0> d           0.052  -1.176   3.571  0.00  0.00    -0.261 N 
ATOM     22  C6  <0> d           0.030  -0.283   2.562  0.00  0.00     0.277 C 
ATOM     23  O1  <0> d           0.016   0.910   2.805  0.00  0.00    -0.265 OA
ATOM     24  H7  <0> d           0.063  -2.126   3.378  0.00  0.00     0.190 HD
BRANCH  22  25
ATOM     25  C5  <0> d           0.023  -0.748   1.172  0.00  0.00     0.080 A 
ATOM     26  C2  <0> d           0.002  -0.004   0.002  0.00  0.00    -0.039 A 
ATOM     27  C1  <0> d          -0.018   1.503   0.010  0.00  0.00     0.050 C 
ATOM     28  C3  <0> d           0.007  -0.729  -1.166  0.00  0.00     0.015 A 
ATOM     29  C4  <0> d           0.026  -2.083  -1.101  0.00  0.00     0.051 A 
ATOM     30  S1  <0> d           0.038  -2.416   0.545  0.00  0.00    -0.096 SA
ENDBRANCH  22  25
ENDBRANCH   1  21
TORSDOF 5
