REMARK  7 active torsions:
REMARK  status: ('A' for Active; 'I' for Inactive)
REMARK    1  A    between atoms: C5_5  and  C8_8 
REMARK    2  A    between atoms: C8_8  and  C9_9 
REMARK    3  A    between atoms: C8_8  and  N4_28 
REMARK    4  A    between atoms: C9_9  and  N1_10 
REMARK       I    between atoms: N1_10  and  C10_11 
REMARK    5  A    between atoms: C10_11  and  C11_13 
REMARK       I    between atoms: C11_13  and  N2_15 
REMARK    6  A    between atoms: N2_15  and  C12_16 
REMARK    7  A    between atoms: C16_20  and  N3_22 
ROOT
ATOM      1  N1  <0> d           1.506  -6.279   0.421  0.00  0.00    -0.350 N 
ATOM      2  C10 <0> d           2.608  -6.989   0.737  0.00  0.00     0.309 C 
ATOM      3  O1  <0> d           3.682  -6.432   0.829  0.00  0.00    -0.262 OA
ATOM      4  H11 <0> d           0.647  -6.723   0.348  0.00  0.00     0.162 HD
ENDROOT
BRANCH   2   5
ATOM      5  C11 <0> d           2.506  -8.460   0.974  0.00  0.00     0.313 C 
ATOM      6  O2  <0> d           1.431  -9.016   0.882  0.00  0.00    -0.262 OA
ATOM      7  N2  <0> d           3.607  -9.169   1.290  0.00  0.00    -0.319 N 
ATOM      8  H12 <0> d           4.476  -8.739   1.297  0.00  0.00     0.169 HD
BRANCH   7   9
ATOM      9  C12 <0> d           3.497 -10.526   1.607  0.00  0.00     0.037 A 
ATOM     10  C17 <0> d           4.326 -11.084   2.570  0.00  0.00     0.059 A 
ATOM     11  C16 <0> d           4.209 -12.429   2.887  0.00  0.00     0.039 A 
ATOM     12  C15 <0> d           3.271 -13.217   2.231  0.00  0.00     0.030 A 
ATOM     13  C14 <0> d           2.450 -12.660   1.269  0.00  0.00     0.004 A 
ATOM     14  C13 <0> d           2.560 -11.319   0.956  0.00  0.00     0.029 A 
BRANCH  11  15
ATOM     15  N3  <0> d           5.039 -12.994   3.862  0.00  0.00    -0.318 N 
ATOM     16  C21 <0> d           5.896 -12.295   4.626  0.00  0.00     0.224 C 
ATOM     17  C20 <0> d           6.633 -13.225   5.564  0.00  0.00     0.105 C 
ATOM     18  O3  <0> d           6.052 -11.094   4.573  0.00  0.00    -0.273 OA
ATOM     19  C19 <0> d           6.407 -14.630   4.959  0.00  0.00     0.029 C 
ATOM     20  C18 <0> d           5.090 -14.427   4.176  0.00  0.00     0.133 C 
ENDBRANCH  11  15
ENDBRANCH   7   9
ENDBRANCH   2   5
BRANCH   1  21
ATOM     21  C9  <0> d           1.607  -4.836   0.189  0.00  0.00     0.164 C 
BRANCH  21  22
ATOM     22  C8  <0> d           0.208  -4.256  -0.029  0.00  0.00     0.273 C 
BRANCH  22  23
ATOM     23  C5  <0> d          -0.391  -4.845  -1.280  0.00  0.00    -0.024 A 
ATOM     24  C4  <0> d          -1.301  -5.882  -1.190  0.00  0.00     0.010 A 
ATOM     25  C3  <0> d          -1.850  -6.422  -2.337  0.00  0.00     0.007 A 
ATOM     26  C2  <0> d          -1.490  -5.925  -3.576  0.00  0.00    -0.062 A 
ATOM     27  C1  <0> d          -2.089  -6.513  -4.827  0.00  0.00     0.048 C 
ATOM     28  C7  <0> d          -0.576  -4.892  -3.667  0.00  0.00     0.007 A 
ATOM     29  C6  <0> d          -0.030  -4.349  -2.519  0.00  0.00     0.010 A 
ENDBRANCH  22  23
BRANCH  22  30
ATOM     30  N4  <0> d           0.299  -2.797  -0.170  0.00  0.00     0.103 N 
ATOM     31  C25 <0> d           0.973  -2.196   0.990  0.00  0.00     0.299 C 
ATOM     32  C24 <0> d           1.099  -0.686   0.775  0.00  0.00     0.198 C 
ATOM     33  O4  <0> d          -0.200  -0.130   0.556  0.00  0.00    -0.388 OA
ATOM     34  C23 <0> d          -0.884  -0.692  -0.568  0.00  0.00     0.198 C 
ATOM     35  C22 <0> d          -1.031  -2.202  -0.366  0.00  0.00     0.299 C 
ENDBRANCH  22  30
ENDBRANCH  21  22
ENDBRANCH   1  21
TORSDOF 7
