REMARK  7 active torsions:
REMARK  status: ('A' for Active; 'I' for Inactive)
REMARK    1  A    between atoms: C2_2  and  C4_4 
REMARK    2  A    between atoms: C4_4  and  C5_5 
REMARK    3  A    between atoms: C4_4  and  N4_24 
REMARK    4  A    between atoms: C5_5  and  N1_6 
REMARK       I    between atoms: N1_6  and  C6_7 
REMARK    5  A    between atoms: C6_7  and  C7_9 
REMARK       I    between atoms: C7_9  and  N2_11 
REMARK    6  A    between atoms: N2_11  and  C8_12 
REMARK    7  A    between atoms: C11_15  and  C14_19 
REMARK       I    between atoms: C14_19  and  N3_21 
ROOT
ATOM      1  C7  <0> d          -5.028  -1.305  -1.034  0.00  0.00     0.313 C 
ATOM      2  O2  <0> d          -5.470  -1.889  -0.066  0.00  0.00    -0.262 OA
ATOM      3  N2  <0> d          -5.841  -0.996  -2.063  0.00  0.00    -0.319 N 
ATOM      4  H12 <0> d          -5.474  -0.605  -2.871  0.00  0.00     0.169 HD
ENDROOT
BRANCH   1   5
ATOM      5  C6  <0> d          -3.583  -0.930  -1.085  0.00  0.00     0.309 C 
ATOM      6  N1  <0> d          -2.770  -1.240  -0.056  0.00  0.00    -0.351 N 
ATOM      7  H11 <0> d          -3.123  -1.707   0.718  0.00  0.00     0.162 HD
ATOM      8  O1  <0> d          -3.142  -0.347  -2.053  0.00  0.00    -0.262 OA
BRANCH   6   9
ATOM      9  C5  <0> d          -1.352  -0.873  -0.106  0.00  0.00     0.156 C 
BRANCH   9  10
ATOM     10  C4  <0> d          -0.628  -1.469   1.102  0.00  0.00     0.208 C 
BRANCH  10  11
ATOM     11  C2  <0> d           0.801  -0.925   1.159  0.00  0.00     0.010 C 
ATOM     12  C1  <0> d           0.763   0.584   1.406  0.00  0.00     0.011 C 
ATOM     13  C3  <0> d           1.562  -1.609   2.297  0.00  0.00     0.011 C 
ENDBRANCH  10  11
BRANCH  10  14
ATOM     14  N4  <0> d          -0.590  -2.932   0.977  0.00  0.00    -0.073 N 
ATOM     15  C17 <0> d          -1.957  -3.465   1.050  0.00  0.00     0.269 C 
ATOM     16  C18 <0> d           0.010  -3.299  -0.312  0.00  0.00     0.269 C 
ATOM     17  H28 <0> d          -0.038  -3.320   1.728  0.00  0.00     0.279 HD
ENDBRANCH  10  14
ENDBRANCH   9  10
ENDBRANCH   6   9
ENDBRANCH   1   5
BRANCH   3  18
ATOM     18  C8  <0> d          -7.210  -1.237  -1.966  0.00  0.00     0.036 A 
ATOM     19  C13 <0> d          -7.854  -1.097  -0.741  0.00  0.00     0.054 A 
ATOM     20  C12 <0> d          -9.209  -1.330  -0.643  0.00  0.00     0.051 A 
ATOM     21  C11 <0> d          -9.933  -1.718  -1.775  0.00  0.00     0.053 A 
ATOM     22 Cl1  <0> d         -10.014  -1.148   0.884  0.00  0.00    -0.083 Cl
ATOM     23  C10 <0> d          -9.280  -1.863  -3.003  0.00  0.00     0.021 A 
ATOM     24  C9  <0> d          -7.928  -1.623  -3.094  0.00  0.00     0.030 A 
BRANCH  21  25
ATOM     25  C14 <0> d         -11.383  -1.973  -1.674  0.00  0.00     0.254 C 
ATOM     26  O3  <0> d         -11.806  -2.754  -0.844  0.00  0.00    -0.267 OA
ATOM     27  N3  <0> d         -12.238  -1.341  -2.502  0.00  0.00    -0.357 N 
ATOM     28  C15 <0> d         -13.682  -1.524  -2.342  0.00  0.00     0.152 C 
ATOM     29  C16 <0> d         -11.723  -0.471  -3.562  0.00  0.00     0.152 C 
ENDBRANCH  21  25
ENDBRANCH   3  18
TORSDOF 7
