REMARK  5 active torsions:
REMARK  status: ('A' for Active; 'I' for Inactive)
REMARK    1  A    between atoms: C6_7  and  C9_10 
REMARK    2  A    between atoms: C9_10  and  C10_11 
REMARK       I    between atoms: C10_11  and  N2_13 
REMARK    3  A    between atoms: N2_13  and  C11_14 
REMARK    4  A    between atoms: C11_14  and  C12_15 
REMARK    5  A    between atoms: C15_19  and  N4_21 
ROOT
ATOM      1  C10 <0> d           0.460  -3.646  -1.440  0.00  0.00     0.221 C 
ATOM      2  O1  <0> d           1.006  -3.075  -2.360  0.00  0.00    -0.273 OA
ATOM      3  N2  <0> d          -0.353  -4.693  -1.684  0.00  0.00    -0.357 N 
ATOM      4  H9  <0> d          -0.790  -5.150  -0.948  0.00  0.00     0.162 HD
ENDROOT
BRANCH   3   5
ATOM      5  C11 <0> d          -0.577  -5.141  -3.061  0.00  0.00     0.161 C 
BRANCH   5   6
ATOM      6  C12 <0> d          -1.518  -6.318  -3.059  0.00  0.00    -0.035 A 
ATOM      7  C16 <0> d          -2.886  -6.131  -3.149  0.00  0.00     0.061 A 
ATOM      8  C15 <0> d          -3.722  -7.241  -3.150  0.00  0.00     0.150 A 
ATOM      9  N3  <0> d          -3.221  -8.462  -3.056  0.00  0.00    -0.241 NA
ATOM     10  C14 <0> d          -1.922  -8.671  -2.964  0.00  0.00     0.119 A 
ATOM     11  C13 <0> d          -1.033  -7.615  -2.962  0.00  0.00     0.028 A 
BRANCH   8  12
ATOM     12  N4  <0> d          -5.106  -7.066  -3.245  0.00  0.00    -0.227 N 
ATOM     13  N5  <0> d          -5.778  -5.841  -3.350  0.00  0.00    -0.179 NA
ATOM     14  C19 <0> d          -7.062  -6.082  -3.421  0.00  0.00     0.141 A 
ATOM     15  C18 <0> d          -7.254  -7.467  -3.355  0.00  0.00     0.040 A 
ATOM     16  C17 <0> d          -6.040  -8.053  -3.248  0.00  0.00     0.122 A 
ENDBRANCH   8  12
ENDBRANCH   5   6
ENDBRANCH   3   5
BRANCH   1  17
ATOM     17  C9  <0> d           0.691  -3.186  -0.024  0.00  0.00     0.139 C 
BRANCH  17  18
ATOM     18  C6  <0> d           1.631  -2.008  -0.025  0.00  0.00    -0.041 A 
ATOM     19  C5  <0> d           3.143  -2.053  -0.041  0.00  0.00     0.155 A 
ATOM     20  N1  <0> d           3.587  -0.654  -0.037  0.00  0.00    -0.385 N 
ATOM     21  C4  <0> d           2.529   0.120  -0.022  0.00  0.00     0.038 A 
ATOM     22  H18 <0> d           4.509  -0.353  -0.045  0.00  0.00     0.160 HD
ATOM     23  C3  <0> d           2.391   1.535  -0.013  0.00  0.00     0.030 A 
ATOM     24  C7  <0> d           1.295  -0.698  -0.014  0.00  0.00    -0.005 A 
ATOM     25  C2  <0> d           1.166   2.101   0.002  0.00  0.00     0.002 A 
ATOM     26  C1  <0> d          -0.016   1.348   0.009  0.00  0.00     0.001 A 
ATOM     27  C8  <0> d           0.002  -0.004   0.002  0.00  0.00     0.014 A 
ENDBRANCH  17  18
ENDBRANCH   1  17
TORSDOF 5
