REMARK  7 active torsions:
REMARK  status: ('A' for Active; 'I' for Inactive)
REMARK    1  A    between atoms: S1_2  and  C2_3 
REMARK    2  A    between atoms: C3_4  and  O3_17 
REMARK    3  A    between atoms: C6_7  and  C8_10 
REMARK    4  A    between atoms: C8_10  and  C9_11 
REMARK    5  A    between atoms: C8_10  and  N1_14 
REMARK    6  A    between atoms: C9_11  and  C10_12 
REMARK    7  A    between atoms: N1_14  and  C11_15 
ROOT
ATOM      1  C2  <0> d          -0.795  -2.093  -2.459  0.00  0.00     0.051 A 
ATOM      2  C3  <0> d          -0.811  -3.284  -1.735  0.00  0.00     0.083 A 
ATOM      3  C4  <0> d          -2.010  -3.781  -1.254  0.00  0.00     0.038 A 
ATOM      4  C5  <0> d          -3.189  -3.097  -1.491  0.00  0.00     0.013 A 
ATOM      5  C6  <0> d          -3.175  -1.916  -2.209  0.00  0.00    -0.016 A 
ATOM      6  C7  <0> d          -1.981  -1.408  -2.688  0.00  0.00     0.038 A 
ATOM      7 Br1  <0> d          -1.965   0.212  -3.662  0.00  0.00    -0.049 Br
ENDROOT
BRANCH   5   8
ATOM      8  C8  <0> d          -4.462  -1.176  -2.464  0.00  0.00     0.124 C 
BRANCH   8   9
ATOM      9  C9  <0> d          -4.568   0.010  -1.503  0.00  0.00     0.099 C 
BRANCH   9  10
ATOM     10  C10 <0> d          -5.793   0.821  -1.838  0.00  0.00     0.233 C 
ATOM     11  O1  <0> d          -6.620   1.047  -0.987  0.00  0.00    -0.307 OA
ENDBRANCH   9  10
ENDBRANCH   8   9
BRANCH   8  12
ATOM     12  N1  <0> d          -5.596  -2.079  -2.251  0.00  0.00    -0.359 N 
ATOM     13  H10 <0> d          -6.035  -2.110  -1.387  0.00  0.00     0.162 HD
BRANCH  12  14
ATOM     14  C11 <0> d          -6.027  -2.868  -3.255  0.00  0.00     0.349 C 
ATOM     15  O2  <0> d          -5.477  -2.830  -4.335  0.00  0.00    -0.284 OA
ENDBRANCH  12  14
ENDBRANCH   8  12
ENDBRANCH   5   8
BRANCH   1  16
ATOM     16  S1  <0> d           0.728  -1.454  -3.074  0.00  0.00    -0.130 SA
ATOM     17  C1  <0> d           1.335  -0.397  -1.731  0.00  0.00     0.095 C 
ENDBRANCH   1  16
BRANCH   2  18
ATOM     18  O3  <0> d           0.348  -3.956  -1.503  0.00  0.00    -0.359 OA
ATOM     19  H12 <0> d           0.796  -3.697  -0.686  0.00  0.00     0.217 HD
ENDBRANCH   2  18
TORSDOF 7
