REMARK  5 active torsions:
REMARK  status: ('A' for Active; 'I' for Inactive)
REMARK    1  A    between atoms: N1_2  and  C2_3 
REMARK       I    between atoms: N1_2  and  C11_14 
REMARK    2  A    between atoms: C2_3  and  C3_4 
REMARK    3  A    between atoms: C11_14  and  C12_16 
REMARK    4  A    between atoms: C12_16  and  C13_17 
REMARK    5  A    between atoms: C13_17  and  N2_18 
ROOT
ATOM      1  C1  <0> d           1.193   8.081  -0.239  0.00  0.00     0.152 C 
ATOM      2  N1  <0> d          -0.191   8.015  -0.714  0.00  0.00    -0.354 N 
ATOM      3  C11 <0> d          -0.528   8.583  -1.888  0.00  0.00     0.221 C 
ATOM      4  O3  <0> d          -1.675   8.528  -2.281  0.00  0.00    -0.273 OA
ENDROOT
BRANCH   3   5
ATOM      5  C12 <0> d           0.518   9.287  -2.713  0.00  0.00     0.123 C 
BRANCH   5   6
ATOM      6  C13 <0> d          -0.123   9.838  -3.988  0.00  0.00     0.146 C 
BRANCH   6   7
ATOM      7  N2  <0> d           0.894  10.522  -4.790  0.00  0.00    -0.268 N 
ATOM      8  C20 <0> d           1.642   9.924  -5.727  0.00  0.00     0.326 A 
ATOM      9  N3  <0> d           2.503  10.777  -6.319  0.00  0.00    -0.324 N 
ATOM     10  O5  <0> d           1.555   8.745  -6.011  0.00  0.00    -0.247 OA
ATOM     11  C15 <0> d           2.285  12.081  -5.689  0.00  0.00     0.116 A 
ATOM     12  H25 <0> d           3.259  10.667  -7.110  0.00  0.00     0.165 HD
ATOM     13  C14 <0> d           1.191  11.835  -4.681  0.00  0.00     0.256 A 
ATOM     14  C19 <0> d           3.559  12.597  -5.018  0.00  0.00     0.041 C 
ATOM     15  C16 <0> d           1.850  13.129  -6.722  0.00  0.00     0.041 C 
ATOM     16  O4  <0> d           0.688  12.643  -3.931  0.00  0.00    -0.270 OA
ATOM     17  C18 <0> d           3.872  13.961  -5.674  0.00  0.00     0.003 C 
ATOM     18  C17 <0> d           2.504  14.443  -6.219  0.00  0.00     0.003 C 
ENDBRANCH   6   7
ENDBRANCH   5   6
ENDBRANCH   3   5
BRANCH   2  19
ATOM     19  C2  <0> d          -1.208   7.331   0.088  0.00  0.00     0.159 C 
BRANCH  19  20
ATOM     20  C3  <0> d          -1.270   5.856  -0.315  0.00  0.00     0.171 C 
ATOM     21  O2  <0> d          -0.045   5.207   0.043  0.00  0.00    -0.339 OA
ATOM     22  C10 <0> d          -0.046   3.846   0.026  0.00  0.00     0.102 A 
ATOM     23  C5  <0> d          -1.241   3.136   0.031  0.00  0.00     0.102 A 
ATOM     24  C9  <0> d           1.161   3.164   0.009  0.00  0.00     0.039 A 
ATOM     25  O1  <0> d          -2.437   3.785   0.043  0.00  0.00    -0.346 OA
ATOM     26  C6  <0> d          -1.219   1.749   0.017  0.00  0.00     0.039 A 
ATOM     27  C4  <0> d          -2.417   5.163   0.432  0.00  0.00     0.209 C 
ATOM     28  C7  <0> d          -0.013   1.076   0.008  0.00  0.00     0.003 A 
ATOM     29  C8  <0> d           1.176   1.782   0.000  0.00  0.00     0.003 A 
ENDBRANCH  19  20
ENDBRANCH   2  19
TORSDOF 5
