REMARK  6 active torsions:
REMARK  status: ('A' for Active; 'I' for Inactive)
REMARK    1  A    between atoms: C3_3  and  C9_14 
REMARK    2  A    between atoms: C6_9  and  S1_11 
REMARK    3  A    between atoms: C9_14  and  C10_15 
REMARK       I    between atoms: C10_15  and  N5_17 
REMARK    4  A    between atoms: N5_17  and  C11_18 
REMARK    5  A    between atoms: C11_18  and  C12_19 
REMARK    6  A    between atoms: C12_19  and  N6_20 
ROOT
ATOM      1  C1  <0> d          -0.018   1.503   0.010  0.00  0.00     0.072 C 
ATOM      2  C2  <0> d           0.002  -0.004   0.002  0.00  0.00     0.058 A 
ATOM      3  C3  <0> d          -1.202  -0.717   0.004  0.00  0.00     0.000 A 
ATOM      4  C4  <0> d          -1.169  -2.075  -0.004  0.00  0.00     0.059 A 
ATOM      5  N1  <0> d           0.035  -2.706  -0.014  0.00  0.00    -0.061 N 
ATOM      6  C5  <0> d           1.192  -1.980  -0.015  0.00  0.00     0.752 A 
ATOM      7  N2  <0> d           1.151  -0.643  -0.012  0.00  0.00    -0.065 NA
ATOM      8  N3  <0> d           2.202  -2.844  -0.025  0.00  0.00    -0.033 NA
ATOM      9  C6  <0> d           1.728  -4.088  -0.030  0.00  0.00     0.226 A 
ATOM     10  N4  <0> d           0.410  -4.055  -0.023  0.00  0.00    -0.124 NA
ATOM     11  C8  <0> d          -2.449  -2.871  -0.002  0.00  0.00     0.072 C 
ENDROOT
BRANCH   3  12
ATOM     12  C9  <0> d          -2.520   0.013   0.015  0.00  0.00     0.145 C 
BRANCH  12  13
ATOM     13  C10 <0> d          -2.893   0.356   1.435  0.00  0.00     0.222 C 
ATOM     14  O1  <0> d          -2.159   0.039   2.347  0.00  0.00    -0.273 OA
ATOM     15  N5  <0> d          -4.040   1.015   1.690  0.00  0.00    -0.359 N 
ATOM     16  H12 <0> d          -4.626   1.269   0.960  0.00  0.00     0.162 HD
BRANCH  15  17
ATOM     17  C11 <0> d          -4.402   1.349   3.070  0.00  0.00     0.143 C 
BRANCH  17  18
ATOM     18  C12 <0> d          -5.740   2.090   3.081  0.00  0.00     0.148 C 
BRANCH  18  19
ATOM     19  N6  <0> d          -6.102   2.424   4.461  0.00  0.00    -0.350 N 
ATOM     20  C15 <0> d          -5.776   3.554   5.124  0.00  0.00     0.182 A 
ATOM     21  N7  <0> d          -6.276   3.492   6.328  0.00  0.00    -0.361 N 
ATOM     22  C14 <0> d          -6.926   2.329   6.477  0.00  0.00     0.106 A 
ATOM     23  H20 <0> d          -6.189   4.178   7.008  0.00  0.00     0.166 HD
ATOM     24  C13 <0> d          -6.829   1.645   5.321  0.00  0.00     0.108 A 
ENDBRANCH  18  19
ENDBRANCH  17  18
ENDBRANCH  15  17
ENDBRANCH  12  13
ENDBRANCH   3  12
BRANCH   9  25
ATOM     25  S1  <0> d           2.710  -5.551  -0.044  0.00  0.00    -0.092 SA
ATOM     26  C7  <0> d           4.416  -4.935  -0.049  0.00  0.00     0.099 C 
ENDBRANCH   9  25
TORSDOF 6
