REMARK  7 active torsions:
REMARK  status: ('A' for Active; 'I' for Inactive)
REMARK    1  A    between atoms: C2_2  and  N1_3 
REMARK    2  A    between atoms: N2_6  and  C7_9 
REMARK    3  A    between atoms: C7_9  and  C8_10 
REMARK    4  A    between atoms: C8_10  and  C9_11 
REMARK    5  A    between atoms: C9_11  and  N3_12 
REMARK       I    between atoms: N3_12  and  C10_13 
REMARK    6  A    between atoms: C10_13  and  C11_15 
REMARK       I    between atoms: N4_18  and  C16_21 
REMARK    7  A    between atoms: C16_21  and  C17_23 
ROOT
ATOM      1  C11 <0> d          -3.029   2.859  -1.482  0.00  0.00     0.081 C 
ATOM      2  C12 <0> d          -3.106   1.921  -2.689  0.00  0.00     0.034 C 
ATOM      3  C13 <0> d          -3.637   0.557  -2.236  0.00  0.00     0.127 C 
ATOM      4  N4  <0> d          -4.917   0.754  -1.542  0.00  0.00    -0.347 N 
ATOM      5  C14 <0> d          -4.975   1.705  -0.424  0.00  0.00     0.127 C 
ATOM      6  C15 <0> d          -4.428   3.056  -0.896  0.00  0.00     0.034 C 
ATOM      7  C16 <0> d          -6.017   0.076  -1.925  0.00  0.00     0.261 C 
ATOM      8  O2  <0> d          -7.051   0.189  -1.294  0.00  0.00    -0.267 OA
ENDROOT
BRANCH   1   9
ATOM      9  C10 <0> d          -2.474   4.191  -1.917  0.00  0.00     0.221 C 
ATOM     10  N3  <0> d          -1.246   4.263  -2.466  0.00  0.00    -0.361 N 
ATOM     11  H21 <0> d          -0.645   3.350  -2.593  0.00  0.00     0.162 HD
ATOM     12  O1  <0> d          -3.134   5.199  -1.773  0.00  0.00    -0.273 OA
BRANCH  10  13
ATOM     13  C9  <0> d          -0.709   5.557  -2.895  0.00  0.00     0.124 C 
BRANCH  13  14
ATOM     14  C8  <0> d           0.688   5.360  -3.486  0.00  0.00     0.050 C 
BRANCH  14  15
ATOM     15  C7  <0> d           1.248   6.712  -3.933  0.00  0.00     0.274 C 
BRANCH  15  16
ATOM     16  N2  <0> d           2.590   6.522  -4.500  0.00  0.00     0.091 N 
ATOM     17  C4  <0> d           3.064   7.750  -5.154  0.00  0.00     0.300 C 
ATOM     18  C3  <0> d           4.427   7.489  -5.799  0.00  0.00     0.265 C 
ATOM     19  N1  <0> d           5.376   7.044  -4.769  0.00  0.00    -0.068 N 
ATOM     20  C6  <0> d           4.902   5.816  -4.115  0.00  0.00     0.265 C 
ATOM     21  H35 <0> d           5.442   7.832  -4.004  0.00  0.00     0.280 HD
ATOM     22  C5  <0> d           3.539   6.078  -3.470  0.00  0.00     0.300 C 
BRANCH  19  23
ATOM     23  C2  <0> d           6.718   6.854  -5.336  0.00  0.00     0.230 C 
ATOM     24  C1  <0> d           7.724   6.637  -4.204  0.00  0.00     0.034 C 
ENDBRANCH  19  23
ENDBRANCH  15  16
ENDBRANCH  14  15
ENDBRANCH  13  14
ENDBRANCH  10  13
ENDBRANCH   1   9
BRANCH   7  25
ATOM     25  C17 <0> d          -5.967  -0.799  -3.100  0.00  0.00     0.082 A 
ATOM     26  S1  <0> d          -4.729  -2.007  -3.538  0.00  0.00    -0.063 SA
ATOM     27  C22 <0> d          -5.449  -2.572  -5.060  0.00  0.00     0.116 A 
ATOM     28  C19 <0> d          -6.626  -1.798  -5.168  0.00  0.00     0.075 A 
ATOM     29  N6  <0> d          -5.114  -3.470  -5.978  0.00  0.00    -0.236 NA
ATOM     30  C18 <0> d          -6.859  -0.895  -4.128  0.00  0.00    -0.021 A 
ATOM     31  C20 <0> d          -7.442  -2.067  -6.374  0.00  0.00     0.260 A 
ATOM     32  C23 <0> d          -8.091  -0.027  -4.143  0.00  0.00     0.051 C 
ATOM     33  O3  <0> d          -8.479  -1.459  -6.575  0.00  0.00    -0.267 OA
ATOM     34  N5  <0> d          -7.009  -3.001  -7.243  0.00  0.00    -0.317 N 
ATOM     35  H1  <0> d          -7.593  -3.224  -8.148  0.00  0.00     0.169 HD
ATOM     36  C21 <0> d          -5.857  -3.683  -7.029  0.00  0.00     0.211 A 
ENDBRANCH   7  25
TORSDOF 7
