REMARK  7 active torsions:
REMARK  status: ('A' for Active; 'I' for Inactive)
REMARK    1  A    between atoms: N1_2  and  C2_3 
REMARK       I    between atoms: N1_2  and  C9_12 
REMARK    2  A    between atoms: C2_3  and  C3_4 
REMARK    3  A    between atoms: C9_12  and  C10_14 
REMARK    4  A    between atoms: C10_14  and  C11_15 
REMARK    5  A    between atoms: C11_15  and  N2_16 
REMARK    6  A    between atoms: C15_20  and  S1_26 
REMARK    7  A    between atoms: S1_26  and  N3_29 
ROOT
ATOM      1  N2  <0> d          -4.209   0.797  -4.543  0.00  0.00    -0.290 N 
ATOM      2  C12 <0> d          -5.362   1.582  -4.552  0.00  0.00     0.073 A 
ATOM      3  C13 <0> d          -6.155   2.119  -3.550  0.00  0.00     0.034 A 
ATOM      4  C14 <0> d          -7.263   2.874  -3.882  0.00  0.00     0.027 A 
ATOM      5  C15 <0> d          -7.582   3.095  -5.211  0.00  0.00     0.077 A 
ATOM      6  C16 <0> d          -6.792   2.569  -6.214  0.00  0.00     0.064 A 
ATOM      7  C17 <0> d          -5.680   1.806  -5.891  0.00  0.00     0.109 A 
ATOM      8  O2  <0> d          -4.750   1.165  -6.640  0.00  0.00    -0.259 OA
ATOM      9  C18 <0> d          -3.869   0.561  -5.826  0.00  0.00     0.372 A 
ATOM     10  O3  <0> d          -2.913  -0.096  -6.190  0.00  0.00    -0.237 OA
ENDROOT
BRANCH   1  11
ATOM     11  C11 <0> d          -3.500   0.311  -3.356  0.00  0.00     0.144 C 
BRANCH  11  12
ATOM     12  C10 <0> d          -2.437   1.331  -2.945  0.00  0.00     0.123 C 
BRANCH  12  13
ATOM     13  C9  <0> d          -1.708   0.832  -1.724  0.00  0.00     0.221 C 
ATOM     14  N1  <0> d          -0.721   1.571  -1.179  0.00  0.00    -0.352 N 
ATOM     15  C1  <0> d          -0.357   2.860  -1.774  0.00  0.00     0.152 C 
ATOM     16  O1  <0> d          -2.010  -0.234  -1.231  0.00  0.00    -0.273 OA
BRANCH  14  17
ATOM     17  C2  <0> d          -0.013   1.086   0.008  0.00  0.00     0.164 C 
BRANCH  17  18
ATOM     18  C3  <0> d          -0.718   1.572   1.248  0.00  0.00    -0.039 A 
ATOM     19  C8  <0> d          -1.719   0.808   1.817  0.00  0.00     0.034 A 
ATOM     20  C7  <0> d          -2.367   1.254   2.955  0.00  0.00     0.056 A 
ATOM     21  C6  <0> d          -2.012   2.465   3.523  0.00  0.00     0.055 A 
ATOM     22 Cl1  <0> d          -3.625   0.295   3.671  0.00  0.00    -0.083 Cl
ATOM     23  C5  <0> d          -1.010   3.229   2.952  0.00  0.00     0.026 A 
ATOM     24 Cl2  <0> d          -2.824   3.026   4.952  0.00  0.00    -0.083 Cl
ATOM     25  C4  <0> d          -0.359   2.779   1.818  0.00  0.00     0.010 A 
ENDBRANCH  17  18
ENDBRANCH  14  17
ENDBRANCH  12  13
ENDBRANCH  11  12
ENDBRANCH   1  11
BRANCH   5  26
ATOM     26  S1  <0> d          -8.998   4.059  -5.624  0.00  0.00     0.239 S 
ATOM     27  O4  <0> d          -9.391   3.664  -6.931  0.00  0.00    -0.206 OA
ATOM     28  O5  <0> d          -9.876   3.989  -4.510  0.00  0.00    -0.206 OA
BRANCH  26  29
ATOM     29  N3  <0> d          -8.500   5.635  -5.736  0.00  0.00    -0.225 NA
ATOM     30  H16 <0> d          -9.359   6.273  -5.994  0.00  0.00     0.136 HD
ATOM     31  H17 <0> d          -7.731   5.722  -6.518  0.00  0.00     0.136 HD
ENDBRANCH  26  29
ENDBRANCH   5  26
TORSDOF 7
