REMARK  6 active torsions:
REMARK  status: ('A' for Active; 'I' for Inactive)
REMARK    1  A    between atoms: C2_2  and  N1_5 
REMARK       I    between atoms: N1_5  and  C5_6 
REMARK    2  A    between atoms: C5_6  and  C6_8 
REMARK    3  A    between atoms: N4_21  and  C17_24 
REMARK    4  A    between atoms: C17_24  and  C18_25 
REMARK    5  A    between atoms: C18_25  and  C19_26 
REMARK    6  A    between atoms: C22_29  and  O3_32 
ROOT
ATOM      1  C6  <0> d           1.278  -0.725  -0.125  0.00  0.00     0.076 A 
ATOM      2  C7  <0> d           1.272  -2.113  -0.115  0.00  0.00     0.042 A 
ATOM      3  C8  <0> d           0.052  -2.796   0.001  0.00  0.00     0.080 A 
ATOM      4  C9  <0> d          -1.166  -2.086   0.105  0.00  0.00     0.149 A 
ATOM      5  N2  <0> d          -2.303  -2.761   0.213  0.00  0.00    -0.212 NA
ATOM      6  C10 <0> d          -2.328  -4.094   0.224  0.00  0.00     0.139 A 
ATOM      7  C11 <0> d          -3.565  -4.753   0.340  0.00  0.00     0.051 A 
ATOM      8  C12 <0> d          -3.604  -6.115   0.353  0.00  0.00     0.005 A 
ATOM      9  C13 <0> d          -2.410  -6.842   0.250  0.00  0.00     0.018 A 
ATOM     10  C14 <0> d          -1.229  -6.193   0.139  0.00  0.00     0.102 A 
ATOM     11  N3  <0> d          -1.180  -4.831   0.125  0.00  0.00    -0.273 N 
ATOM     12  C15 <0> d           0.017  -4.214   0.014  0.00  0.00     0.267 A 
ATOM     13  O2  <0> d           1.045  -4.863  -0.074  0.00  0.00    -0.267 OA
ATOM     14  N4  <0> d          -1.176  -0.713   0.103  0.00  0.00    -0.316 N 
ATOM     15  C16 <0> d           0.001  -0.004  -0.014  0.00  0.00     0.118 A 
ATOM     16  N5  <0> d          -0.019   1.305  -0.022  0.00  0.00    -0.384 N 
ATOM     17  H16 <0> d          -0.975   1.841   0.061  0.00  0.00     0.157 HD
ATOM     18  H28 <0> d           0.922   1.868  -0.111  0.00  0.00     0.157 HD
ENDROOT
BRANCH  14  19
ATOM     19  C17 <0> d          -2.448   0.005   0.220  0.00  0.00     0.137 C 
BRANCH  19  20
ATOM     20  C18 <0> d          -3.028   0.245  -1.175  0.00  0.00     0.059 C 
BRANCH  20  21
ATOM     21  C19 <0> d          -4.336   0.983  -1.055  0.00  0.00    -0.057 A 
ATOM     22  C24 <0> d          -4.352   2.365  -1.063  0.00  0.00     0.010 A 
ATOM     23  C23 <0> d          -5.550   3.044  -0.953  0.00  0.00     0.037 A 
ATOM     24  C22 <0> d          -6.738   2.338  -0.835  0.00  0.00     0.068 A 
ATOM     25  C21 <0> d          -6.720   0.951  -0.827  0.00  0.00     0.037 A 
ATOM     26  C20 <0> d          -5.519   0.276  -0.943  0.00  0.00     0.010 A 
BRANCH  24  27
ATOM     27  O3  <0> d          -7.918   3.003  -0.726  0.00  0.00    -0.356 OA
ATOM     28  C25 <0> d          -9.101   2.211  -0.608  0.00  0.00     0.210 C 
ENDBRANCH  24  27
ENDBRANCH  20  21
ENDBRANCH  19  20
ENDBRANCH  14  19
BRANCH   1  29
ATOM     29  C5  <0> d           2.541   0.013  -0.244  0.00  0.00     0.256 C 
ATOM     30  N1  <0> d           3.692  -0.653  -0.460  0.00  0.00    -0.349 N 
ATOM     31  H10 <0> d           3.686  -1.750  -0.548  0.00  0.00     0.163 HD
ATOM     32  O1  <0> d           2.549   1.226  -0.147  0.00  0.00    -0.268 OA
BRANCH  30  33
ATOM     33  C2  <0> d           4.953   0.083  -0.579  0.00  0.00     0.022 C 
ATOM     34  C1  <0> d           5.213   0.861   0.713  0.00  0.00     0.037 C 
ATOM     35  C3  <0> d           6.099  -0.902  -0.820  0.00  0.00     0.037 C 
ATOM     36  C4  <0> d           4.865   1.060  -1.754  0.00  0.00     0.037 C 
ENDBRANCH  30  33
ENDBRANCH   1  29
TORSDOF 6
