REMARK  5 active torsions:
REMARK  status: ('A' for Active; 'I' for Inactive)
REMARK    1  A    between atoms: C2_2  and  C3_3 
REMARK    2  A    between atoms: C3_3  and  N1_4 
REMARK    3  A    between atoms: N1_4  and  C4_5 
REMARK    4  A    between atoms: C4_5  and  C5_6 
REMARK    5  A    between atoms: C4_5  and  C13_17 
ROOT
ATOM      1  C4  <0> d           1.472  -2.466   2.424  0.00  0.00     0.256 C 
ENDROOT
BRANCH   1   2
ATOM      2  N1  <0> d           0.762  -1.980   1.234  0.00  0.00    -0.063 N 
ATOM      3  H10 <0> d          -0.185  -2.329   1.241  0.00  0.00     0.278 HD
ATOM      4  H19 <0> d           1.234  -2.305   0.403  0.00  0.00     0.278 HD
BRANCH   2   5
ATOM      5  C3  <0> d           0.742  -0.511   1.242  0.00  0.00     0.233 C 
BRANCH   5   6
ATOM      6  C2  <0> d           0.002  -0.004   0.002  0.00  0.00     0.023 C 
ATOM      7  C1  <0> d          -0.019   1.526   0.010  0.00  0.00     0.007 C 
ENDBRANCH   5   6
ENDBRANCH   2   5
ENDBRANCH   1   2
BRANCH   1   8
ATOM      8  C5  <0> d           1.600  -3.966   2.354  0.00  0.00    -0.003 A 
ATOM      9  C10 <0> d           2.560  -4.613   3.111  0.00  0.00     0.022 A 
ATOM     10  C9  <0> d           2.678  -5.990   3.052  0.00  0.00     0.059 A 
ATOM     11 Br1  <0> d           3.708  -3.615   4.233  0.00  0.00    -0.050 Br
ATOM     12  C8  <0> d           1.841  -6.724   2.225  0.00  0.00     0.103 A 
ATOM     13  C7  <0> d           0.878  -6.073   1.462  0.00  0.00     0.102 A 
ATOM     14  O1  <0> d           1.977  -8.077   2.168  0.00  0.00    -0.346 OA
ATOM     15  C6  <0> d           0.762  -4.693   1.529  0.00  0.00     0.050 A 
ATOM     16  O2  <0> d           0.043  -6.775   0.648  0.00  0.00    -0.346 OA
ATOM     17  C12 <0> d           0.436  -8.113   0.322  0.00  0.00     0.202 C 
ATOM     18  C11 <0> d           0.879  -8.811   1.615  0.00  0.00     0.202 C 
ENDBRANCH   1   8
BRANCH   1  19
ATOM     19  C13 <0> d           0.701  -2.085   3.660  0.00  0.00     0.013 A 
ATOM     20  C15 <0> d          -0.690  -2.120   3.806  0.00  0.00     0.149 A 
ATOM     21  N3  <0> d          -0.984  -1.722   5.017  0.00  0.00    -0.187 NA
ATOM     22  N2  <0> d           0.211  -1.411   5.678  0.00  0.00    -0.289 N 
ATOM     23  C14 <0> d           1.230  -1.642   4.824  0.00  0.00     0.120 A 
ATOM     24  H2  <0> d           0.292  -1.087   6.589  0.00  0.00     0.188 HD
ENDBRANCH   1  19
TORSDOF 5
