REMARK  4 active torsions:
REMARK  status: ('A' for Active; 'I' for Inactive)
REMARK    1  A    between atoms: C3_3  and  C5_6 
REMARK    2  A    between atoms: C6_7  and  C7_8 
REMARK       I    between atoms: C7_8  and  N1_10 
REMARK    3  A    between atoms: N1_10  and  C8_11 
REMARK    4  A    between atoms: C11_14  and  N2_18 
ROOT
ATOM      1  C8  <0> d           8.348   0.533  -0.166  0.00  0.00     0.038 A 
ATOM      2  C9  <0> d           8.728   1.869  -0.151  0.00  0.00     0.032 A 
ATOM      3  C10 <0> d          10.062   2.209  -0.252  0.00  0.00     0.037 A 
ATOM      4  C11 <0> d          11.025   1.216  -0.368  0.00  0.00     0.098 A 
ATOM      5  C12 <0> d          10.646  -0.122  -0.383  0.00  0.00     0.147 A 
ATOM      6  C13 <0> d           9.310  -0.462  -0.276  0.00  0.00     0.074 A 
ATOM      7  F1  <0> d          11.583  -1.089  -0.496  0.00  0.00    -0.204 F 
ENDROOT
BRANCH   1   8
ATOM      8  N1  <0> d           6.996   0.190  -0.064  0.00  0.00    -0.324 N 
ATOM      9  C7  <0> d           6.058   0.970  -0.636  0.00  0.00     0.245 C 
ATOM     10  O1  <0> d           6.378   2.017  -1.169  0.00  0.00    -0.268 OA
ATOM     11  H6  <0> d           6.733  -0.610   0.418  0.00  0.00     0.169 HD
BRANCH   9  12
ATOM     12  C6  <0> d           4.700   0.573  -0.618  0.00  0.00     0.075 C 
ATOM     13  C5  <0> d           3.756   1.358  -1.194  0.00  0.00     0.024 C 
BRANCH  13  14
ATOM     14  C3  <0> d           2.397   0.961  -1.176  0.00  0.00     0.004 A 
ATOM     15  C2  <0> d           1.286   1.611  -1.701  0.00  0.00     0.019 A 
ATOM     16  C1  <0> d           0.083   0.971  -1.526  0.00  0.00     0.008 A 
ATOM     17  C4  <0> d           0.058  -0.217  -0.872  0.00  0.00     0.050 A 
ATOM     18  S1  <0> d           1.664  -0.505  -0.473  0.00  0.00    -0.102 SA
ENDBRANCH  13  14
ENDBRANCH   9  12
ENDBRANCH   1   8
BRANCH   4  19
ATOM     19  N2  <0> d          12.382   1.562  -0.472  0.00  0.00    -0.223 N 
ATOM     20  N4  <0> d          12.922   2.858  -0.473  0.00  0.00    -0.159 NA
ATOM     21  C15 <0> d          14.218   2.727  -0.586  0.00  0.00     0.257 A 
ATOM     22  N3  <0> d          14.518   1.431  -0.662  0.00  0.00    -0.233 NA
ATOM     23  C14 <0> d          13.423   0.717  -0.595  0.00  0.00     0.236 A 
ENDBRANCH   4  19
TORSDOF 4
