REMARK  4 active torsions:
REMARK  status: ('A' for Active; 'I' for Inactive)
REMARK    1  A    between atoms: C4_4  and  N3_23 
REMARK    2  A    between atoms: C5_5  and  N1_7 
REMARK       I    between atoms: N1_7  and  C7_8 
REMARK    3  A    between atoms: C7_8  and  C8_10 
REMARK    4  A    between atoms: C11_13  and  N2_16 
ROOT
ATOM      1  N1  <0> d           0.020   5.024   1.516  0.00  0.00    -0.321 N 
ATOM      2  C7  <0> d           0.736   6.119   1.839  0.00  0.00     0.256 C 
ATOM      3  O1  <0> d           0.259   6.963   2.572  0.00  0.00    -0.267 OA
ATOM      4  H5  <0> d           0.476   4.229   0.907  0.00  0.00     0.169 HD
ENDROOT
BRANCH   2   5
ATOM      5  C8  <0> d           2.100   6.294   1.301  0.00  0.00     0.032 A 
ATOM      6  C13 <0> d           2.844   7.429   1.635  0.00  0.00     0.019 A 
ATOM      7  C12 <0> d           4.115   7.589   1.132  0.00  0.00     0.031 A 
ATOM      8  C11 <0> d           4.660   6.624   0.293  0.00  0.00     0.045 A 
ATOM      9  C10 <0> d           3.923   5.493  -0.041  0.00  0.00     0.031 A 
ATOM     10  C9  <0> d           2.652   5.323   0.463  0.00  0.00     0.019 A 
BRANCH   8  11
ATOM     11  N2  <0> d           5.951   6.790  -0.216  0.00  0.00    -0.252 N 
ATOM     12  C17 <0> d           6.920   5.882  -0.044  0.00  0.00     0.231 A 
ATOM     13  C16 <0> d           8.185   6.370  -0.717  0.00  0.00     0.113 A 
ATOM     14  O3  <0> d           6.803   4.836   0.556  0.00  0.00    -0.273 OA
ATOM     15  C15 <0> d           7.774   7.731  -1.315  0.00  0.00     0.113 A 
ATOM     16  C14 <0> d           6.319   7.867  -0.921  0.00  0.00     0.231 A 
ATOM     17  O2  <0> d           5.601   8.803  -1.198  0.00  0.00    -0.273 OA
ENDBRANCH   8  11
ENDBRANCH   2   5
BRANCH   1  18
ATOM     18  C5  <0> d          -1.303   4.898   1.955  0.00  0.00     0.062 A 
ATOM     19  C4  <0> d          -2.249   4.262   1.152  0.00  0.00     0.064 A 
ATOM     20  C3  <0> d          -3.560   4.145   1.591  0.00  0.00     0.032 A 
ATOM     21  C2  <0> d          -3.922   4.649   2.825  0.00  0.00     0.002 A 
ATOM     22  C1  <0> d          -2.984   5.280   3.622  0.00  0.00     0.002 A 
ATOM     23  C6  <0> d          -1.677   5.405   3.191  0.00  0.00     0.032 A 
BRANCH  19  24
ATOM     24  N3  <0> d          -1.878   3.748  -0.097  0.00  0.00    -0.316 N 
ATOM     25  C21 <0> d          -1.928   4.441  -1.248  0.00  0.00     0.224 C 
ATOM     26  C20 <0> d          -1.446   3.580  -2.395  0.00  0.00     0.105 C 
ATOM     27  O4  <0> d          -2.304   5.589  -1.352  0.00  0.00    -0.273 OA
ATOM     28  C19 <0> d          -0.709   2.408  -1.706  0.00  0.00     0.029 C 
ATOM     29  C18 <0> d          -1.385   2.382  -0.317  0.00  0.00     0.133 C 
ENDBRANCH  19  24
ENDBRANCH   1  18
TORSDOF 4
