REMARK  8 active torsions:
REMARK  status: ('A' for Active; 'I' for Inactive)
REMARK    1  A    between atoms: C2_2  and  C3_3 
REMARK    2  A    between atoms: C3_3  and  O1_4 
REMARK    3  A    between atoms: O1_4  and  C4_5 
REMARK    4  A    between atoms: C7_8  and  C11_13 
REMARK    5  A    between atoms: C9_10  and  O2_11 
REMARK    6  A    between atoms: N2_19  and  C26_34 
REMARK    7  A    between atoms: C26_34  and  C27_35 
REMARK    8  A    between atoms: C27_35  and  O5_36 
ROOT
ATOM      1  C11 <0> d          -1.755  -0.651   3.050  0.00  0.00     0.072 C 
ATOM      2  C12 <0> d          -2.230  -0.413   1.612  0.00  0.00     0.142 C 
ATOM      3  N1  <0> d          -2.080   1.019   1.292  0.00  0.00    -0.327 N 
ATOM      4  C13 <0> d          -3.170   1.754   1.056  0.00  0.00     0.239 C 
ATOM      5  O3  <0> d          -4.233   1.177   0.961  0.00  0.00    -0.271 OA
ATOM      6  C14 <0> d          -3.165   3.240   0.899  0.00  0.00     0.228 C 
ATOM      7  N2  <0> d          -1.838   3.806   1.079  0.00  0.00    -0.339 N 
ATOM      8  C15 <0> d          -0.753   3.072   1.255  0.00  0.00     0.254 C 
ATOM      9  O4  <0> d           0.296   3.661   1.407  0.00  0.00    -0.270 OA
ATOM     10  C16 <0> d          -0.729   1.579   1.267  0.00  0.00     0.155 C 
ATOM     11  C17 <0> d           0.013   1.071   2.481  0.00  0.00     0.056 A 
ATOM     12  C18 <0> d          -0.451   0.074   3.266  0.00  0.00    -0.010 A 
ATOM     13  C19 <0> d           0.529  -0.129   4.314  0.00  0.00    -0.000 A 
ATOM     14  C20 <0> d           0.591  -1.013   5.395  0.00  0.00     0.014 A 
ATOM     15  C21 <0> d           1.694  -0.923   6.208  0.00  0.00     0.001 A 
ATOM     16  C22 <0> d           2.704  -0.004   5.978  0.00  0.00     0.002 A 
ATOM     17  C23 <0> d           2.669   0.882   4.915  0.00  0.00     0.030 A 
ATOM     18  C24 <0> d           1.561   0.813   4.072  0.00  0.00     0.043 A 
ATOM     19  N3  <0> d           1.215   1.520   2.957  0.00  0.00    -0.356 N 
ATOM     20  H2  <0> d           1.742   2.232   2.561  0.00  0.00     0.166 HD
ATOM     21  C25 <0> d          -0.013   1.086   0.008  0.00  0.00     0.056 C 
ENDROOT
BRANCH   1  22
ATOM     22  C7  <0> d          -1.553  -2.127   3.277  0.00  0.00    -0.045 A 
ATOM     23  C6  <0> d          -0.649  -2.828   2.501  0.00  0.00     0.011 A 
ATOM     24  C5  <0> d          -0.461  -4.182   2.705  0.00  0.00     0.040 A 
ATOM     25  C4  <0> d          -1.179  -4.840   3.690  0.00  0.00     0.102 A 
ATOM     26  C9  <0> d          -2.089  -4.136   4.472  0.00  0.00     0.102 A 
ATOM     27  C8  <0> d          -2.269  -2.777   4.265  0.00  0.00     0.047 A 
BRANCH  25  28
ATOM     28  O1  <0> d          -0.995  -6.173   3.892  0.00  0.00    -0.348 OA
BRANCH  28  29
ATOM     29  C3  <0> d          -0.045  -6.831   3.052  0.00  0.00     0.175 C 
BRANCH  29  30
ATOM     30  C2  <0> d           0.024  -8.314   3.425  0.00  0.00     0.022 C 
ATOM     31  C1  <0> d           1.041  -9.019   2.525  0.00  0.00     0.007 C 
ENDBRANCH  29  30
ENDBRANCH  28  29
ENDBRANCH  25  28
BRANCH  26  32
ATOM     32  O2  <0> d          -2.796  -4.777   5.440  0.00  0.00    -0.353 OA
ATOM     33  C10 <0> d          -3.712  -3.990   6.204  0.00  0.00     0.210 C 
ENDBRANCH  26  32
ENDBRANCH   1  22
BRANCH   7  34
ATOM     34  C26 <0> d          -1.702   5.264   1.075  0.00  0.00     0.152 C 
BRANCH  34  35
ATOM     35  C27 <0> d          -1.857   5.794   2.502  0.00  0.00     0.184 C 
BRANCH  35  36
ATOM     36  O5  <0> d          -0.778   5.316   3.308  0.00  0.00    -0.399 OA
ATOM     37  H31 <0> d          -0.812   5.614   4.227  0.00  0.00     0.209 HD
ENDBRANCH  35  36
ENDBRANCH  34  35
ENDBRANCH   7  34
TORSDOF 8
