REMARK  7 active torsions:
REMARK  status: ('A' for Active; 'I' for Inactive)
REMARK    1  A    between atoms: C9_9  and  O1_19 
REMARK    2  A    between atoms: C10_10  and  C11_11 
REMARK    3  A    between atoms: C11_11  and  N1_12 
REMARK    4  A    between atoms: N1_12  and  C12_13 
REMARK    5  A    between atoms: C12_13  and  C13_14 
REMARK    6  A    between atoms: O1_19  and  C17_20 
REMARK    7  A    between atoms: C17_20  and  C18_21 
REMARK       I    between atoms: C18_21  and  N2_23 
ROOT
ATOM      1  C1  <0> d          -0.013   1.076   0.008  0.00  0.00     0.001 A 
ATOM      2  C2  <0> d          -1.235   1.746   0.017  0.00  0.00     0.001 A 
ATOM      3  C3  <0> d          -1.288   3.105   0.030  0.00  0.00     0.013 A 
ATOM      4  C4  <0> d          -0.095   3.849   0.023  0.00  0.00    -0.015 A 
ATOM      5  C5  <0> d           1.148   3.167   0.008  0.00  0.00    -0.025 A 
ATOM      6  C6  <0> d           1.163   1.762   0.000  0.00  0.00     0.012 A 
ATOM      7  C7  <0> d           2.342   3.909  -0.001  0.00  0.00     0.015 A 
ATOM      8  C8  <0> d           2.292   5.268   0.006  0.00  0.00     0.038 A 
ATOM      9  C9  <0> d           1.067   5.942   0.021  0.00  0.00     0.078 A 
ATOM     10  C10 <0> d          -0.112   5.253   0.029  0.00  0.00     0.012 A 
ENDROOT
BRANCH  10  11
ATOM     11  C11 <0> d          -1.423   5.995   0.045  0.00  0.00     0.274 C 
BRANCH  11  12
ATOM     12  N1  <0> d          -1.837   6.230   1.435  0.00  0.00    -0.067 N 
ATOM     13  H9  <0> d          -1.955   5.265   1.950  0.00  0.00     0.277 HD
ATOM     14  H19 <0> d          -1.071   6.828   1.949  0.00  0.00     0.277 HD
BRANCH  12  15
ATOM     15  C12 <0> d          -3.115   6.953   1.489  0.00  0.00     0.278 C 
BRANCH  15  16
ATOM     16  C13 <0> d          -3.505   7.175   2.928  0.00  0.00     0.008 A 
ATOM     17  S1  <0> d          -4.479   6.133   4.001  0.00  0.00    -0.105 SA
ATOM     18  C16 <0> d          -4.425   7.157   5.463  0.00  0.00     0.050 A 
ATOM     19  C15 <0> d          -3.679   8.207   5.041  0.00  0.00     0.008 A 
ATOM     20  C14 <0> d          -3.204   8.214   3.744  0.00  0.00     0.017 A 
ENDBRANCH  15  16
ENDBRANCH  12  15
ENDBRANCH  11  12
ENDBRANCH  10  11
BRANCH   9  21
ATOM     21  O1  <0> d           1.050   7.301   0.027  0.00  0.00    -0.341 OA
BRANCH  21  22
ATOM     22  C17 <0> d           2.315   7.966   0.018  0.00  0.00     0.278 C 
BRANCH  22  23
ATOM     23  C18 <0> d           2.098   9.457   0.027  0.00  0.00     0.239 C 
ATOM     24  O2  <0> d           0.971   9.906   0.040  0.00  0.00    -0.271 OA
ATOM     25  N2  <0> d           3.156  10.292   0.021  0.00  0.00    -0.368 N 
ATOM     26  H17 <0> d           2.998  11.380   0.027  0.00  0.00     0.159 HD
ATOM     27  H18 <0> d           4.178   9.885   0.009  0.00  0.00     0.159 HD
ENDBRANCH  22  23
ENDBRANCH  21  22
ENDBRANCH   9  21
TORSDOF 7
