REMARK  5 active torsions:
REMARK  status: ('A' for Active; 'I' for Inactive)
REMARK    1  A    between atoms: C5_5  and  C9_9 
REMARK    2  A    between atoms: C9_9  and  C10_10 
REMARK    3  A    between atoms: C10_10  and  N1_11 
REMARK       I    between atoms: N1_11  and  C11_12 
REMARK    4  A    between atoms: C11_12  and  C12_14 
REMARK       I    between atoms: N2_16  and  C20_24 
REMARK    5  A    between atoms: C20_24  and  C21_26 
ROOT
ATOM      1  C12 <0> d           2.723  -8.397  -0.059  0.00  0.00     0.106 C 
ATOM      2  C13 <0> d           2.193  -8.949   1.284  0.00  0.00     0.141 C 
ATOM      3  N2  <0> d           3.035 -10.138   1.557  0.00  0.00    -0.348 N 
ATOM      4  C14 <0> d           4.395  -9.733   1.130  0.00  0.00     0.136 C 
ATOM      5  C15 <0> d           4.168  -8.913  -0.156  0.00  0.00    -0.007 C 
ATOM      6  C16 <0> d           4.330  -9.803  -1.385  0.00  0.00     0.039 C 
ATOM      7  C17 <0> d           5.788 -10.258  -1.491  0.00  0.00     0.233 C 
ATOM      8  N3  <0> d           6.662  -9.083  -1.594  0.00  0.00    -0.075 N 
ATOM      9  C18 <0> d           6.570  -8.281  -0.368  0.00  0.00     0.233 C 
ATOM     10  C19 <0> d           5.145  -7.743  -0.214  0.00  0.00     0.039 C 
ATOM     11  C20 <0> d           2.650 -11.320   2.078  0.00  0.00     0.251 C 
ATOM     12  O2  <0> d           3.464 -12.204   2.243  0.00  0.00    -0.270 OA
ATOM     13  H25 <0> d           7.616  -9.386  -1.725  0.00  0.00     0.277 HD
ATOM     14  H36 <0> d           6.379  -8.523  -2.384  0.00  0.00     0.277 HD
ENDROOT
BRANCH   1  15
ATOM     15  C11 <0> d           2.703  -6.890  -0.050  0.00  0.00     0.224 C 
ATOM     16  N1  <0> d           2.556  -6.212  -1.206  0.00  0.00    -0.360 N 
ATOM     17  H16 <0> d           2.463  -6.693  -2.042  0.00  0.00     0.162 HD
ATOM     18  O1  <0> d           2.819  -6.288   0.996  0.00  0.00    -0.273 OA
BRANCH  16  19
ATOM     19  C10 <0> d           2.538  -4.747  -1.198  0.00  0.00     0.127 C 
BRANCH  19  20
ATOM     20  C9  <0> d           2.361  -4.231  -2.627  0.00  0.00     0.058 C 
BRANCH  20  21
ATOM     21  C5  <0> d           2.341  -2.724  -2.619  0.00  0.00    -0.056 A 
ATOM     22  C4  <0> d           3.521  -2.017  -2.756  0.00  0.00     0.007 A 
ATOM     23  C3  <0> d           3.503  -0.635  -2.750  0.00  0.00     0.008 A 
ATOM     24  C2  <0> d           2.305   0.040  -2.606  0.00  0.00    -0.056 A 
ATOM     25  C1  <0> d           2.286   1.547  -2.599  0.00  0.00     0.049 C 
ATOM     26  C7  <0> d           1.126  -0.667  -2.463  0.00  0.00    -0.056 A 
ATOM     27  C6  <0> d           1.144  -2.050  -2.474  0.00  0.00     0.014 A 
ATOM     28  C8  <0> d          -0.179   0.069  -2.300  0.00  0.00     0.049 C 
ENDBRANCH  20  21
ENDBRANCH  19  20
ENDBRANCH  16  19
ENDBRANCH   1  15
BRANCH  11  29
ATOM     29  C21 <0> d           1.208 -11.545   2.454  0.00  0.00     0.245 C 
ATOM     30  O4  <0> d           1.026 -12.898   2.884  0.00  0.00    -0.331 OA
ATOM     31  C28 <0> d          -0.136 -13.182   3.534  0.00  0.00     0.103 A 
ATOM     32  C23 <0> d          -0.917 -12.167   4.072  0.00  0.00     0.102 A 
ATOM     33  C27 <0> d          -0.538 -14.504   3.662  0.00  0.00     0.040 A 
ATOM     34  O3  <0> d          -0.543 -10.863   3.954  0.00  0.00    -0.345 OA
ATOM     35  C24 <0> d          -2.093 -12.480   4.738  0.00  0.00     0.039 A 
ATOM     36  C22 <0> d           0.825 -10.615   3.613  0.00  0.00     0.218 C 
ATOM     37  C25 <0> d          -2.487 -13.799   4.863  0.00  0.00     0.003 A 
ATOM     38  C26 <0> d          -1.712 -14.809   4.325  0.00  0.00     0.003 A 
ENDBRANCH  11  29
TORSDOF 5
