REMARK  6 active torsions:
REMARK  status: ('A' for Active; 'I' for Inactive)
REMARK    1  A    between atoms: C2_2  and  C3_3 
REMARK    2  A    between atoms: C2_2  and  N1_12 
REMARK       I    between atoms: N1_12  and  C11_13 
REMARK    3  A    between atoms: C11_13  and  C12_15 
REMARK    4  A    between atoms: C12_15  and  O3_16 
REMARK    5  A    between atoms: O3_16  and  C13_17 
REMARK    6  A    between atoms: C13_17  and  C14_19 
ROOT
ATOM      1  C13 <0> d          -0.371   3.150  -5.855  0.00  0.00     0.309 C 
ATOM      2  O4  <0> d          -1.536   3.458  -5.941  0.00  0.00    -0.260 OA
ENDROOT
BRANCH   1   3
ATOM      3  O3  <0> d           0.125   2.720  -4.684  0.00  0.00    -0.309 OA
BRANCH   3   4
ATOM      4  C12 <0> d          -0.797   2.652  -3.564  0.00  0.00     0.281 C 
BRANCH   4   5
ATOM      5  C11 <0> d          -0.068   2.152  -2.343  0.00  0.00     0.242 C 
ATOM      6  N1  <0> d          -0.727   2.007  -1.177  0.00  0.00    -0.349 N 
ATOM      7  H10 <0> d          -1.671   2.224  -1.123  0.00  0.00     0.163 HD
ATOM      8  O2  <0> d           1.112   1.880  -2.410  0.00  0.00    -0.271 OA
BRANCH   6   9
ATOM      9  C2  <0> d          -0.019   1.521   0.010  0.00  0.00     0.138 C 
ATOM     10  C1  <0> d           0.003  -0.009   0.001  0.00  0.00     0.039 C 
BRANCH   9  11
ATOM     11  C3  <0> d          -0.724   2.006   1.250  0.00  0.00     0.077 A 
ATOM     12  O1  <0> d          -2.059   2.068   1.402  0.00  0.00    -0.312 OA
ATOM     13  C10 <0> d          -2.382   2.541   2.622  0.00  0.00     0.086 A 
ATOM     14  C5  <0> d          -1.180   2.810   3.298  0.00  0.00     0.000 A 
ATOM     15  C9  <0> d          -3.590   2.791   3.262  0.00  0.00     0.038 A 
ATOM     16  C4  <0> d          -0.113   2.444   2.359  0.00  0.00     0.049 A 
ATOM     17  C6  <0> d          -1.205   3.320   4.595  0.00  0.00     0.014 A 
ATOM     18  C7  <0> d          -2.404   3.558   5.207  0.00  0.00     0.001 A 
ATOM     19  C8  <0> d          -3.595   3.295   4.545  0.00  0.00     0.003 A 
ENDBRANCH   9  11
ENDBRANCH   6   9
ENDBRANCH   4   5
ENDBRANCH   3   4
ENDBRANCH   1   3
BRANCH   1  20
ATOM     20  C14 <0> d           0.526   3.247  -7.062  0.00  0.00     0.207 C 
ATOM     21  N2  <0> d          -0.291   3.365  -8.282  0.00  0.00    -0.280 N 
ATOM     22  C17 <0> d          -0.227   4.595  -8.796  0.00  0.00     0.227 C 
ATOM     23  C18 <0> d          -0.965   2.256  -8.798  0.00  0.00     0.056 A 
ATOM     24  C16 <0> d           0.835   5.411  -8.101  0.00  0.00     0.108 C 
ATOM     25  O5  <0> d          -0.926   5.001  -9.700  0.00  0.00    -0.273 OA
ATOM     26  C15 <0> d           1.379   4.515  -6.972  0.00  0.00     0.075 C 
ATOM     27  C23 <0> d          -0.359   1.005  -8.567  0.00  0.00     0.059 A 
ATOM     28  C19 <0> d          -2.163   2.339  -9.472  0.00  0.00     0.031 A 
ATOM     29  C22 <0> d          -0.992  -0.153  -9.007  0.00  0.00     0.019 A 
ATOM     30  C24 <0> d           0.936   0.973  -7.862  0.00  0.00     0.258 C 
ATOM     31  C21 <0> d          -2.197  -0.057  -9.674  0.00  0.00     0.001 A 
ATOM     32  C20 <0> d          -2.779   1.178  -9.910  0.00  0.00     0.002 A 
ATOM     33  O6  <0> d           1.629  -0.025  -7.914  0.00  0.00    -0.267 OA
ATOM     34  N3  <0> d           1.357   2.048  -7.159  0.00  0.00    -0.316 N 
ATOM     35  C25 <0> d           2.657   2.010  -6.486  0.00  0.00     0.156 C 
ENDBRANCH   1  20
TORSDOF 6
