REMARK  6 active torsions:
REMARK  status: ('A' for Active; 'I' for Inactive)
REMARK    1  A    between atoms: C2_2  and  C3_3 
REMARK    2  A    between atoms: C2_2  and  N5_30 
REMARK    3  A    between atoms: C5_8  and  C6_9 
REMARK    4  A    between atoms: C9_12  and  O1_16 
REMARK    5  A    between atoms: C13_18  and  C14_19 
REMARK    6  A    between atoms: C13_18  and  N5_30 
ROOT
ATOM      1  C2  <0> d           3.358   5.884  -1.398  0.00  0.00     0.277 C 
ENDROOT
BRANCH   1   2
ATOM      2  C3  <0> d           3.465   6.058  -2.891  0.00  0.00     0.016 A 
ATOM      3  C5  <0> d           3.934   5.096  -3.807  0.00  0.00     0.099 A 
ATOM      4  N2  <0> d           3.874   5.622  -5.013  0.00  0.00    -0.174 NA
ATOM      5  N1  <0> d           3.369   6.923  -4.896  0.00  0.00    -0.288 N 
ATOM      6  C4  <0> d           3.122   7.162  -3.590  0.00  0.00     0.120 A 
ATOM      7  H1  <0> d           3.217   7.563  -5.649  0.00  0.00     0.188 HD
BRANCH   3   8
ATOM      8  C6  <0> d           4.412   3.732  -3.472  0.00  0.00     0.034 A 
ATOM      9  C11 <0> d           4.963   2.921  -4.465  0.00  0.00     0.131 A 
ATOM     10  C10 <0> d           5.407   1.651  -4.148  0.00  0.00     0.079 A 
ATOM     11  F1  <0> d           5.063   3.376  -5.733  0.00  0.00    -0.205 F 
ATOM     12  C9  <0> d           5.304   1.184  -2.846  0.00  0.00     0.071 A 
ATOM     13  C8  <0> d           4.755   1.989  -1.857  0.00  0.00     0.038 A 
ATOM     14  C7  <0> d           4.315   3.260  -2.165  0.00  0.00     0.020 A 
BRANCH  12  15
ATOM     15  O1  <0> d           5.742  -0.065  -2.537  0.00  0.00    -0.356 OA
ATOM     16  C12 <0> d           5.606  -0.483  -1.177  0.00  0.00     0.210 C 
ENDBRANCH  12  15
ENDBRANCH   3   8
ENDBRANCH   1   2
BRANCH   1  17
ATOM     17  N5  <0> d           2.244   4.957  -1.106  0.00  0.00    -0.066 N 
ATOM     18  C1  <0> d           0.951   5.619  -1.381  0.00  0.00     0.270 C 
ATOM     19  H27 <0> d           2.330   4.131  -1.709  0.00  0.00     0.280 HD
BRANCH  17  20
ATOM     20  C13 <0> d           2.301   4.528   0.307  0.00  0.00     0.296 C 
BRANCH  20  21
ATOM     21  C14 <0> d           1.298   3.424   0.521  0.00  0.00     0.088 A 
ATOM     22  N4  <0> d           1.521   2.144   0.366  0.00  0.00    -0.177 NA
ATOM     23  N3  <0> d           0.337   1.454   0.660  0.00  0.00    -0.281 N 
ATOM     24  C16 <0> d          -0.598   2.363   0.998  0.00  0.00     0.036 A 
ATOM     25  H2  <0> d           0.209   0.463   0.626  0.00  0.00     0.189 HD
ATOM     26  C15 <0> d          -0.031   3.590   0.919  0.00  0.00    -0.006 A 
ATOM     27  C17 <0> d          -2.020   2.079   1.410  0.00  0.00     0.059 C 
ATOM     28  C21 <0> d          -0.726   4.899   1.195  0.00  0.00     0.043 C 
ATOM     29  C20 <0> d          -1.864   4.670   2.187  0.00  0.00     0.005 C 
ATOM     30  C19 <0> d          -3.145   4.310   1.438  0.00  0.00     0.001 C 
ATOM     31  C18 <0> d          -2.963   3.016   0.650  0.00  0.00     0.006 C 
ENDBRANCH  20  21
ENDBRANCH  17  20
ENDBRANCH   1  17
TORSDOF 6
