REMARK  7 active torsions:
REMARK  status: ('A' for Active; 'I' for Inactive)
REMARK    1  A    between atoms: C2_2  and  N1_3 
REMARK    2  A    between atoms: N2_6  and  C7_11 
REMARK    3  A    between atoms: C7_11  and  C8_12 
REMARK       I    between atoms: C8_12  and  N3_14 
REMARK    4  A    between atoms: N3_14  and  C9_15 
REMARK    5  A    between atoms: C9_15  and  C10_16 
REMARK    6  A    between atoms: C10_16  and  C11_17 
REMARK    7  A    between atoms: C11_17  and  N4_18 
ROOT
ATOM      1  C8  <0> d           3.009  -0.310   5.753  0.00  0.00     0.235 C 
ATOM      2  O3  <0> d           2.490   0.765   5.540  0.00  0.00    -0.272 OA
ATOM      3  N3  <0> d           3.683  -0.518   6.902  0.00  0.00    -0.360 N 
ATOM      4  H12 <0> d           4.097  -1.378   7.072  0.00  0.00     0.162 HD
ENDROOT
BRANCH   1   5
ATOM      5  C7  <0> d           2.900  -1.414   4.733  0.00  0.00     0.229 C 
BRANCH   5   6
ATOM      6  N2  <0> d           2.125  -0.942   3.583  0.00  0.00    -0.334 N 
ATOM      7  C4  <0> d           2.807  -0.302   2.457  0.00  0.00     0.146 C 
ATOM      8  C3  <0> d           2.157  -0.707   1.137  0.00  0.00     0.146 C 
ATOM      9  N1  <0> d           0.711  -0.489   1.189  0.00  0.00    -0.343 N 
ATOM     10  C6  <0> d           0.030  -0.729   2.327  0.00  0.00     0.311 C 
ATOM     11  C5  <0> d           0.786  -1.099   3.564  0.00  0.00     0.312 C 
ATOM     12  O2  <0> d          -1.181  -0.650   2.348  0.00  0.00    -0.262 OA
ATOM     13  O1  <0> d           0.204  -1.529   4.537  0.00  0.00    -0.262 OA
BRANCH   9  14
ATOM     14  C2  <0> d           0.002  -0.004   0.002  0.00  0.00     0.122 C 
ATOM     15  C1  <0> d          -0.019   1.526   0.010  0.00  0.00     0.026 C 
ENDBRANCH   9  14
ENDBRANCH   5   6
ENDBRANCH   1   5
BRANCH   3  16
ATOM     16  C9  <0> d           3.788   0.556   7.893  0.00  0.00     0.124 C 
BRANCH  16  17
ATOM     17  C10 <0> d           4.598   0.063   9.094  0.00  0.00     0.040 C 
BRANCH  17  18
ATOM     18  C11 <0> d           4.708   1.184  10.129  0.00  0.00     0.131 C 
BRANCH  18  19
ATOM     19  N4  <0> d           5.483   0.712  11.280  0.00  0.00    -0.346 N 
ATOM     20  C14 <0> d           6.829   0.715  11.395  0.00  0.00     0.079 A 
ATOM     21  N5  <0> d           7.150   0.221  12.560  0.00  0.00    -0.355 N 
ATOM     22  C15 <0> d           7.798   1.210  10.354  0.00  0.00     0.089 C 
ATOM     23  C13 <0> d           6.032  -0.119  13.219  0.00  0.00     0.106 A 
ATOM     24  H24 <0> d           8.054   0.114  12.894  0.00  0.00     0.166 HD
ATOM     25  C12 <0> d           4.979   0.179  12.435  0.00  0.00     0.109 A 
ENDBRANCH  18  19
ENDBRANCH  17  18
ENDBRANCH  16  17
ENDBRANCH   3  16
TORSDOF 7
