REMARK  5 active torsions:
REMARK  status: ('A' for Active; 'I' for Inactive)
REMARK    1  A    between atoms: C5_5  and  S1_9 
REMARK    2  A    between atoms: S1_9  and  N1_12 
REMARK    3  A    between atoms: N1_12  and  C9_13 
REMARK    4  A    between atoms: C9_13  and  C10_14 
REMARK    5  A    between atoms: C13_17  and  N3_20 
ROOT
ATOM      1  C10 <0> d           3.270  -6.222   2.352  0.00  0.00    -0.024 A 
ATOM      2  C11 <0> d           3.031  -7.519   2.788  0.00  0.00     0.014 A 
ATOM      3  C12 <0> d           4.115  -8.344   3.032  0.00  0.00     0.049 A 
ATOM      4  C13 <0> d           5.400  -7.849   2.834  0.00  0.00     0.103 A 
ATOM      5  N2  <0> d           5.586  -6.606   2.417  0.00  0.00    -0.352 N 
ATOM      6  C14 <0> d           4.571  -5.799   2.171  0.00  0.00     0.098 A 
ATOM      7  H26 <0> d           6.491  -6.282   2.286  0.00  0.00     0.166 HD
ENDROOT
BRANCH   1   8
ATOM      8  C9  <0> d           2.120  -5.289   2.074  0.00  0.00     0.172 C 
BRANCH   8   9
ATOM      9  N1  <0> d           1.708  -5.425   0.675  0.00  0.00    -0.311 N 
ATOM     10  H11 <0> d           2.292  -5.867   0.038  0.00  0.00     0.172 HD
BRANCH   9  11
ATOM     11  S1  <0> d           0.246  -4.826   0.180  0.00  0.00     0.259 S 
ATOM     12  O1  <0> d          -0.723  -5.307   1.102  0.00  0.00    -0.201 OA
ATOM     13  O2  <0> d           0.157  -5.072  -1.216  0.00  0.00    -0.201 OA
BRANCH  11  14
ATOM     14  C5  <0> d           0.306  -3.076   0.380  0.00  0.00     0.085 A 
ATOM     15  C4  <0> d          -0.531  -2.455   1.289  0.00  0.00     0.026 A 
ATOM     16  C3  <0> d          -0.483  -1.083   1.447  0.00  0.00     0.008 A 
ATOM     17  C2  <0> d           0.401  -0.331   0.696  0.00  0.00    -0.061 A 
ATOM     18  C1  <0> d           0.453   1.165   0.867  0.00  0.00     0.048 C 
ATOM     19  C7  <0> d           1.234  -0.951  -0.217  0.00  0.00     0.015 A 
ATOM     20  C6  <0> d           1.189  -2.325  -0.371  0.00  0.00    -0.038 A 
ATOM     21  C8  <0> d           2.101  -3.001  -1.361  0.00  0.00     0.050 C 
ENDBRANCH  11  14
ENDBRANCH   9  11
ENDBRANCH   8   9
ENDBRANCH   1   8
BRANCH   4  22
ATOM     22  N3  <0> d           6.498  -8.666   3.075  0.00  0.00    -0.363 N 
ATOM     23  C18 <0> d           6.324 -10.087   3.417  0.00  0.00     0.155 C 
ATOM     24  C17 <0> d           7.140 -10.389   4.674  0.00  0.00     0.135 C 
ATOM     25  O3  <0> d           8.485  -9.942   4.483  0.00  0.00    -0.383 OA
ATOM     26  C19 <0> d           7.136 -11.896   4.939  0.00  0.00     0.041 C 
ATOM     27  C16 <0> d           8.609  -8.531   4.285  0.00  0.00     0.188 C 
ATOM     28  C15 <0> d           7.868  -8.135   3.002  0.00  0.00     0.150 C 
ENDBRANCH   4  22
TORSDOF 5
