REMARK  2 active torsions:
REMARK  status: ('A' for Active; 'I' for Inactive)
REMARK    1  A    between atoms: N1_4  and  C7_10 
REMARK    2  A    between atoms: C4_5  and  N3_9 
ROOT
ATOM      1  C1  <0> d           1.844  -0.225   1.774  0.00  0.00     0.052 C 
ATOM      2  C2  <0> d           0.842  -0.767   0.788  0.00  0.00    -0.015 A 
ATOM      3  C3  <0> d           1.065  -1.062  -0.502  0.00  0.00     0.017 A 
ATOM      4  N1  <0> d          -0.092  -1.532  -1.068  0.00  0.00    -0.329 N 
ATOM      5  C4  <0> d          -1.089  -1.548  -0.146  0.00  0.00     0.123 A 
ATOM      6  C5  <0> d          -0.568  -1.082   1.054  0.00  0.00     0.096 A 
ATOM      7  C6  <0> d          -1.264  -0.935   2.297  0.00  0.00     0.104 C 
ATOM      8  N2  <0> d          -1.817  -0.819   3.283  0.00  0.00    -0.191 NA
ATOM      9  C14 <0> d           2.382  -0.902  -1.217  0.00  0.00     0.069 C 
ENDROOT
BRANCH   5  10
ATOM     10  N3  <0> d          -2.391  -1.961  -0.363  0.00  0.00    -0.384 N 
ATOM     11  H5  <0> d          -2.565  -2.785  -0.844  0.00  0.00     0.157 HD
ATOM     12  H6  <0> d          -3.131  -1.426  -0.034  0.00  0.00     0.157 HD
ENDBRANCH   5  10
BRANCH   4  13
ATOM     13  C7  <0> d          -0.232  -1.955  -2.463  0.00  0.00     0.121 C 
ATOM     14  C11 <0> d          -1.429  -2.906  -2.595  0.00  0.00     0.014 C 
ATOM     15  C10 <0> d          -1.159  -4.143  -1.722  0.00  0.00     0.034 C 
ATOM     16  C12 <0> d          -1.528  -3.361  -4.057  0.00  0.00     0.034 C 
ATOM     17  C9  <0> d           0.139  -4.805  -2.189  0.00  0.00     0.235 C 
ATOM     18  N4  <0> d           0.708  -4.057  -3.313  0.00  0.00    -0.069 N 
ATOM     19  C8  <0> d           1.036  -2.688  -2.907  0.00  0.00     0.260 C 
ATOM     20  C13 <0> d          -0.216  -4.051  -4.449  0.00  0.00     0.235 C 
ATOM     21  H21 <0> d           1.559  -4.519  -3.596  0.00  0.00     0.280 HD
ENDBRANCH   4  13
TORSDOF 2
