REMARK  4 active torsions:
REMARK  status: ('A' for Active; 'I' for Inactive)
REMARK    1  A    between atoms: C7_7  and  N1_8 
REMARK       I    between atoms: N1_8  and  C8_9 
REMARK    2  A    between atoms: C8_9  and  C9_11 
REMARK    3  A    between atoms: C9_11  and  S1_12 
REMARK    4  A    between atoms: S1_12  and  C10_13 
ROOT
ATOM      1  C9  <0> d          -0.021   1.073   0.008  0.00  0.00     0.185 C 
ENDROOT
BRANCH   1   2
ATOM      2  C8  <0> d          -0.743   1.582  -1.213  0.00  0.00     0.231 C 
ATOM      3  N1  <0> d          -0.288   1.272  -2.443  0.00  0.00    -0.326 N 
ATOM      4  H8  <0> d           0.547   0.790  -2.544  0.00  0.00     0.169 HD
ATOM      5  O1  <0> d          -1.734   2.271  -1.088  0.00  0.00    -0.272 OA
BRANCH   3   6
ATOM      6  C7  <0> d          -1.022   1.647  -3.575  0.00  0.00     0.040 A 
ATOM      7  C2  <0> d          -0.380   1.818  -4.794  0.00  0.00    -0.034 A 
ATOM      8  C1  <0> d           1.108   1.601  -4.900  0.00  0.00     0.050 C 
ATOM      9  C3  <0> d          -1.107   2.182  -5.911  0.00  0.00     0.028 A 
ATOM     10  C4  <0> d          -2.471   2.387  -5.813  0.00  0.00     0.011 A 
ATOM     11  C5  <0> d          -3.113   2.222  -4.598  0.00  0.00     0.021 A 
ATOM     12 Br1  <0> d          -3.462   2.893  -7.342  0.00  0.00    -0.051 Br
ATOM     13  C6  <0> d          -2.392   1.853  -3.479  0.00  0.00     0.031 A 
ENDBRANCH   3   6
ENDBRANCH   1   2
BRANCH   1  14
ATOM     14  S1  <0> d          -0.869   1.655   1.497  0.00  0.00    -0.083 SA
BRANCH  14  15
ATOM     15  C10 <0> d           0.158   0.934   2.735  0.00  0.00     0.169 A 
ATOM     16  N3  <0> d           1.217   0.199   2.501  0.00  0.00    -0.221 NA
ATOM     17  C12 <0> d           1.767  -0.190   3.679  0.00  0.00     0.107 A 
ATOM     18  C11 <0> d           0.978   0.352   4.709  0.00  0.00     0.158 A 
ATOM     19  C13 <0> d           2.880  -0.966   4.015  0.00  0.00     0.061 A 
ATOM     20  N2  <0> d          -0.029   1.064   4.083  0.00  0.00    -0.318 N 
ATOM     21  N4  <0> d           1.286   0.130   5.976  0.00  0.00    -0.239 NA
ATOM     22  H1  <0> d          -0.759   1.578   4.534  0.00  0.00     0.169 HD
ATOM     23  C15 <0> d           2.331  -0.599   6.315  0.00  0.00     0.143 A 
ATOM     24  C14 <0> d           3.155  -1.167   5.357  0.00  0.00     0.053 A 
ATOM     25 Cl1  <0> d           4.523  -2.122   5.835  0.00  0.00    -0.083 Cl
ENDBRANCH  14  15
ENDBRANCH   1  14
TORSDOF 4
