REMARK  4 active torsions:
REMARK  status: ('A' for Active; 'I' for Inactive)
REMARK    1  A    between atoms: N1_5  and  C5_7 
REMARK    2  A    between atoms: C6_8  and  C10_13 
REMARK    3  A    between atoms: C10_13  and  N4_14 
REMARK    4  A    between atoms: N4_14  and  C11_15 
ROOT
ATOM      1  C5  <0> d           0.052  -3.239   1.452  0.00  0.00     0.158 A 
ATOM      2  C6  <0> d           0.050  -3.085   2.833  0.00  0.00     0.015 A 
ATOM      3  C7  <0> d           0.068  -4.213   3.636  0.00  0.00     0.014 A 
ATOM      4  C8  <0> d           0.087  -5.459   3.026  0.00  0.00     0.020 A 
ATOM      5  C9  <0> d           0.087  -5.537   1.647  0.00  0.00     0.119 A 
ATOM      6  N3  <0> d           0.065  -4.445   0.908  0.00  0.00    -0.241 NA
ENDROOT
BRANCH   1   7
ATOM      7  N1  <0> d           0.034  -2.109   0.629  0.00  0.00    -0.218 N 
ATOM      8  C4  <0> d           0.027  -2.107  -0.730  0.00  0.00     0.054 A 
ATOM      9  C3  <0> d           0.008  -0.817  -1.138  0.00  0.00     0.061 A 
ATOM     10  C14 <0> d           0.039  -3.322  -1.621  0.00  0.00     0.072 C 
ATOM     11  C2  <0> d           0.002  -0.004   0.002  0.00  0.00     0.070 A 
ATOM     12 Br1  <0> d          -0.009  -0.218  -2.931  0.00  0.00    -0.047 Br
ATOM     13  C1  <0> d          -0.018   1.503   0.010  0.00  0.00     0.074 C 
ATOM     14  N2  <0> d           0.023  -0.775   1.059  0.00  0.00    -0.170 NA
ENDBRANCH   1   7
BRANCH   2  15
ATOM     15  C10 <0> d           0.030  -1.710   3.448  0.00  0.00     0.275 C 
BRANCH  15  16
ATOM     16  N4  <0> d          -1.342  -1.185   3.429  0.00  0.00    -0.067 N 
ATOM     17  H9  <0> d          -1.669  -1.132   2.476  0.00  0.00     0.277 HD
ATOM     18  H18 <0> d          -1.944  -1.799   3.957  0.00  0.00     0.277 HD
BRANCH  16  19
ATOM     19  C11 <0> d          -1.362   0.156   4.029  0.00  0.00     0.186 A 
ATOM     20  C13 <0> d          -2.684   0.924   3.997  0.00  0.00     0.035 A 
ATOM     21  C12 <0> d          -2.169   0.343   5.315  0.00  0.00     0.035 A 
ENDBRANCH  16  19
ENDBRANCH  15  16
ENDBRANCH   2  15
TORSDOF 4
