REMARK  5 active torsions:
REMARK  status: ('A' for Active; 'I' for Inactive)
REMARK    1  A    between atoms: C5_6  and  C12_16 
REMARK    2  A    between atoms: N2_8  and  C6_9 
REMARK       I    between atoms: C12_16  and  N3_18 
REMARK    3  A    between atoms: N3_18  and  C13_19 
REMARK    4  A    between atoms: C13_19  and  C14_20 
REMARK       I    between atoms: C14_20  and  N4_22 
REMARK    5  A    between atoms: N4_22  and  C15_23 
ROOT
ATOM      1  C12 <0> d           0.722  -4.124   0.109  0.00  0.00     0.276 C 
ATOM      2  O2  <0> d           0.640  -4.788  -0.905  0.00  0.00    -0.266 OA
ATOM      3  N3  <0> d           1.166  -4.688   1.250  0.00  0.00    -0.347 N 
ATOM      4  H9  <0> d           1.232  -4.158   2.060  0.00  0.00     0.163 HD
ENDROOT
BRANCH   1   5
ATOM      5  C5  <0> d           0.335  -2.699   0.092  0.00  0.00     0.194 A 
ATOM      6  C4  <0> d          -0.151  -2.069  -1.145  0.00  0.00     0.209 A 
ATOM      7  C3  <0> d          -0.507  -0.697  -1.078  0.00  0.00     0.084 A 
ATOM      8  O1  <0> d          -0.248  -2.702  -2.185  0.00  0.00    -0.286 OA
ATOM      9  C2  <0> d          -0.366  -0.065   0.111  0.00  0.00     0.036 A 
ATOM     10  C1  <0> d          -0.728   1.393   0.226  0.00  0.00     0.070 C 
ATOM     11  N2  <0> d           0.092  -0.729   1.201  0.00  0.00    -0.238 N 
ATOM     12  N1  <0> d           0.419  -1.968   1.184  0.00  0.00    -0.158 NA
BRANCH  11  13
ATOM     13  C6  <0> d           0.212  -0.026   2.405  0.00  0.00     0.058 A 
ATOM     14  C11 <0> d          -0.257  -0.586   3.587  0.00  0.00     0.033 A 
ATOM     15  C10 <0> d          -0.136   0.110   4.774  0.00  0.00     0.026 A 
ATOM     16  C9  <0> d           0.451   1.363   4.786  0.00  0.00     0.034 A 
ATOM     17  C8  <0> d           0.919   1.923   3.610  0.00  0.00     0.026 A 
ATOM     18 Cl1  <0> d           0.601   2.235   6.280  0.00  0.00    -0.084 Cl
ATOM     19  C7  <0> d           0.806   1.229   2.421  0.00  0.00     0.033 A 
ENDBRANCH  11  13
ENDBRANCH   1   5
BRANCH   3  20
ATOM     20  C13 <0> d           1.550  -6.102   1.267  0.00  0.00     0.226 C 
BRANCH  20  21
ATOM     21  C14 <0> d           2.007  -6.482   2.652  0.00  0.00     0.239 C 
ATOM     22  O3  <0> d           2.012  -5.653   3.538  0.00  0.00    -0.271 OA
ATOM     23  N4  <0> d           2.410  -7.742   2.906  0.00  0.00    -0.325 N 
ATOM     24  H12 <0> d           2.482  -8.384   2.182  0.00  0.00     0.169 HD
BRANCH  23  25
ATOM     25  C15 <0> d           2.725  -8.125   4.215  0.00  0.00     0.052 A 
ATOM     26  C20 <0> d           3.598  -9.183   4.439  0.00  0.00     0.037 A 
ATOM     27  C19 <0> d           3.907  -9.559   5.733  0.00  0.00     0.021 A 
ATOM     28 Br1  <0> d           4.361 -10.108   2.977  0.00  0.00    -0.049 Br
ATOM     29  C18 <0> d           3.350  -8.882   6.803  0.00  0.00     0.002 A 
ATOM     30  C17 <0> d           2.482  -7.828   6.582  0.00  0.00     0.002 A 
ATOM     31  C16 <0> d           2.172  -7.445   5.292  0.00  0.00     0.031 A 
ENDBRANCH  23  25
ENDBRANCH  20  21
ENDBRANCH   3  20
TORSDOF 5
