REMARK  4 active torsions:
REMARK  status: ('A' for Active; 'I' for Inactive)
REMARK    1  A    between atoms: C11_14  and  C18_23 
REMARK    2  A    between atoms: C12_15  and  N3_16 
REMARK    3  A    between atoms: N4_17  and  C13_18 
REMARK       I    between atoms: C18_23  and  N5_25 
REMARK    4  A    between atoms: N5_25  and  C19_26 
ROOT
ATOM      1  C1  <0> d          -0.937   0.589  -0.329  0.00  0.00     0.052 C 
ATOM      2  C2  <0> d          -0.681  -0.878  -0.100  0.00  0.00    -0.015 A 
ATOM      3  C3  <0> d          -0.691  -1.746  -1.148  0.00  0.00     0.012 A 
ATOM      4  C4  <0> d          -0.450  -3.110  -0.922  0.00  0.00     0.018 A 
ATOM      5  C5  <0> d          -0.211  -3.557   0.330  0.00  0.00     0.102 A 
ATOM      6  N1  <0> d          -0.199  -2.696   1.389  0.00  0.00    -0.272 N 
ATOM      7  C6  <0> d          -0.423  -1.359   1.202  0.00  0.00     0.145 A 
ATOM      8  N2  <0> d          -0.414  -0.490   2.207  0.00  0.00    -0.211 NA
ATOM      9  C7  <0> d          -0.178  -0.864   3.469  0.00  0.00     0.150 A 
ATOM     10  C8  <0> d           0.070  -2.236   3.744  0.00  0.00     0.080 A 
ATOM     11  C9  <0> d           0.045  -3.184   2.628  0.00  0.00     0.267 A 
ATOM     12  O1  <0> d           0.251  -4.370   2.807  0.00  0.00    -0.267 OA
ATOM     13  C10 <0> d           0.317  -2.647   5.051  0.00  0.00     0.042 A 
ATOM     14  C11 <0> d           0.310  -1.676   6.055  0.00  0.00     0.076 A 
ATOM     15  C12 <0> d           0.056  -0.330   5.711  0.00  0.00     0.119 A 
ATOM     16  N4  <0> d          -0.174   0.028   4.462  0.00  0.00    -0.312 N 
ENDROOT
BRANCH  14  17
ATOM     17  C18 <0> d           0.565  -2.052   7.455  0.00  0.00     0.256 C 
ATOM     18  O2  <0> d           0.662  -1.190   8.308  0.00  0.00    -0.268 OA
ATOM     19  N5  <0> d           0.689  -3.350   7.793  0.00  0.00    -0.349 N 
ATOM     20  H18 <0> d           0.611  -4.038   7.113  0.00  0.00     0.163 HD
BRANCH  19  21
ATOM     21  C19 <0> d           0.942  -3.724   9.186  0.00  0.00     0.022 C 
ATOM     22  C20 <0> d          -0.205  -3.223  10.065  0.00  0.00     0.037 C 
ATOM     23  C21 <0> d           1.040  -5.247   9.296  0.00  0.00     0.037 C 
ATOM     24  C22 <0> d           2.256  -3.094   9.653  0.00  0.00     0.037 C 
ENDBRANCH  19  21
ENDBRANCH  14  17
BRANCH  15  25
ATOM     25  N3  <0> d           0.050   0.631   6.701  0.00  0.00    -0.384 N 
ATOM     26  H8  <0> d           0.386   1.521   6.515  0.00  0.00     0.157 HD
ATOM     27  H28 <0> d          -0.291   0.415   7.583  0.00  0.00     0.157 HD
ENDBRANCH  15  25
BRANCH  16  28
ATOM     28  C13 <0> d          -0.432   1.437   4.158  0.00  0.00     0.093 C 
ATOM     29  C17 <0> d          -1.585   1.963   5.032  0.00  0.00     0.026 C 
ATOM     30  C16 <0> d          -1.005   3.114   5.879  0.00  0.00     0.002 C 
ATOM     31  C15 <0> d           0.218   3.606   5.066  0.00  0.00     0.002 C 
ATOM     32  C14 <0> d           0.807   2.288   4.505  0.00  0.00     0.026 C 
ENDBRANCH  16  28
TORSDOF 4
