REMARK  7 active torsions:
REMARK  status: ('A' for Active; 'I' for Inactive)
REMARK    1  A    between atoms: C3_3  and  N3_16 
REMARK    2  A    between atoms: C5_5  and  S1_7 
REMARK    3  A    between atoms: S1_7  and  N1_10 
REMARK    4  A    between atoms: N1_10  and  C7_11 
REMARK       I    between atoms: N3_16  and  C11_17 
REMARK    5  A    between atoms: C11_17  and  C12_19 
REMARK    6  A    between atoms: C12_19  and  C13_20 
REMARK    7  A    between atoms: C13_20  and  C19_26 
ROOT
ATOM      1  C1  <0> d          -3.679   5.083   5.712  0.00  0.00     0.004 A 
ATOM      2  C2  <0> d          -3.053   4.618   4.572  0.00  0.00     0.029 A 
ATOM      3  C3  <0> d          -2.183   5.444   3.873  0.00  0.00     0.036 A 
ATOM      4  C4  <0> d          -1.953   6.740   4.317  0.00  0.00     0.054 A 
ATOM      5  C5  <0> d          -2.586   7.201   5.455  0.00  0.00     0.083 A 
ATOM      6  C6  <0> d          -3.448   6.373   6.152  0.00  0.00     0.025 A 
ENDROOT
BRANCH   3   7
ATOM      7  N3  <0> d          -1.544   4.975   2.721  0.00  0.00    -0.327 N 
ATOM      8  C11 <0> d          -1.194   3.676   2.625  0.00  0.00     0.223 C 
ATOM      9  O3  <0> d          -1.350   2.935   3.573  0.00  0.00    -0.273 OA
ATOM     10  H11 <0> d          -1.326   5.665   1.893  0.00  0.00     0.169 HD
BRANCH   8  11
ATOM     11  C12 <0> d          -0.611   3.145   1.341  0.00  0.00     0.123 C 
BRANCH  11  12
ATOM     12  C13 <0> d          -0.170   1.694   1.543  0.00  0.00     0.057 C 
ATOM     13  C18 <0> d           0.373   1.138   0.226  0.00  0.00     0.021 C 
ATOM     14  C17 <0> d           1.569   1.976  -0.228  0.00  0.00     0.001 C 
ATOM     15  C16 <0> d           2.665   1.920   0.839  0.00  0.00     0.000 C 
ATOM     16  C15 <0> d           2.122   2.477   2.157  0.00  0.00     0.001 C 
ATOM     17  C14 <0> d           0.926   1.638   2.610  0.00  0.00     0.021 C 
BRANCH  12  18
ATOM     18  C19 <0> d          -1.349   0.868   1.990  0.00  0.00     0.182 C 
ATOM     19  O4  <0> d          -1.278   0.213   3.003  0.00  0.00    -0.647 OA
ATOM     20  O5  <0> d          -2.477   0.861   1.263  0.00  0.00    -0.647 OA
ENDBRANCH  12  18
ENDBRANCH  11  12
ENDBRANCH   8  11
ENDBRANCH   3   7
BRANCH   5  21
ATOM     21  S1  <0> d          -2.296   8.844   6.019  0.00  0.00     0.284 S 
ATOM     22  O1  <0> d          -2.585   8.853   7.411  0.00  0.00    -0.198 OA
ATOM     23  O2  <0> d          -1.031   9.234   5.502  0.00  0.00    -0.198 OA
BRANCH  21  24
ATOM     24  N1  <0> d          -3.424   9.817   5.295  0.00  0.00    -0.147 NA
BRANCH  24  25
ATOM     25  C7  <0> d          -4.753   9.656   5.584  0.00  0.00     0.113 C 
ATOM     26  C10 <0> d          -5.866  10.490   4.988  0.00  0.00     0.080 C 
ATOM     27  C9  <0> d          -7.145   9.667   5.288  0.00  0.00     0.027 C 
ATOM     28  C8  <0> d          -6.682   8.844   6.513  0.00  0.00     0.121 C 
ATOM     29  N2  <0> d          -5.221   8.780   6.403  0.00  0.00    -0.378 N 
ATOM     30  H24 <0> d          -4.657   8.038   6.987  0.00  0.00     0.160 HD
ENDBRANCH  24  25
ENDBRANCH  21  24
ENDBRANCH   5  21
TORSDOF 7
