REMARK  3 active torsions:
REMARK  status: ('A' for Active; 'I' for Inactive)
REMARK    1  A    between atoms: C6_7  and  C13_17 
REMARK    2  A    between atoms: C7_9  and  C12_14 
REMARK    3  A    between atoms: C18_22  and  O3_23 
ROOT
ATOM      1  C1  <0> d           1.314   1.523  -0.066  0.00  0.00     0.001 A 
ATOM      2  C2  <0> d           2.610   2.035  -0.220  0.00  0.00     0.002 A 
ATOM      3  C3  <0> d           3.696   1.242  -0.337  0.00  0.00     0.030 A 
ATOM      4  C4  <0> d           3.563  -0.173  -0.307  0.00  0.00     0.039 A 
ATOM      5  N1  <0> d           4.449  -1.136  -0.424  0.00  0.00    -0.378 N 
ATOM      6  C5  <0> d           3.772  -2.413  -0.225  0.00  0.00     0.149 C 
ATOM      7  C6  <0> d           3.969  -3.375  -1.400  0.00  0.00     0.284 C 
ATOM      8  N2  <0> d           3.028  -4.495  -1.245  0.00  0.00     0.110 N 
ATOM      9  C7  <0> d           1.625  -4.095  -1.389  0.00  0.00     0.325 C 
ATOM     10  C8  <0> d           1.225  -3.148  -0.243  0.00  0.00     0.084 C 
ATOM     11  C9  <0> d           2.291  -2.077  -0.164  0.00  0.00    -0.040 C 
ATOM     12  C10 <0> d           2.200  -0.742  -0.153  0.00  0.00    -0.005 A 
ATOM     13  C11 <0> d           1.074   0.193  -0.028  0.00  0.00     0.014 A 
ATOM     14  H7  <0> d           3.256  -5.249  -1.875  0.00  0.00     0.318 HD
ATOM     15  H15 <0> d           5.394  -1.018  -0.612  0.00  0.00     0.160 HD
ENDROOT
BRANCH   7  16
ATOM     16  C13 <0> d           3.695  -2.656  -2.696  0.00  0.00     0.011 A 
ATOM     17  C18 <0> d           4.117  -3.205  -3.897  0.00  0.00     0.074 A 
ATOM     18  C17 <0> d           3.858  -2.544  -5.089  0.00  0.00     0.038 A 
ATOM     19  C16 <0> d           3.191  -1.335  -5.076  0.00  0.00     0.022 A 
ATOM     20  C15 <0> d           2.775  -0.785  -3.876  0.00  0.00     0.011 A 
ATOM     21  C14 <0> d           3.028  -1.446  -2.687  0.00  0.00     0.031 A 
ATOM     22 Br1  <0> d           1.861   0.870  -3.861  0.00  0.00    -0.051 Br
BRANCH  17  23
ATOM     23  O3  <0> d           4.778  -4.393  -3.907  0.00  0.00    -0.360 OA
ATOM     24  H14 <0> d           4.200  -5.164  -3.985  0.00  0.00     0.217 HD
ENDBRANCH  17  23
ENDBRANCH   7  16
BRANCH   9  25
ATOM     25  C12 <0> d           1.440  -3.388  -2.707  0.00  0.00     0.207 C 
ATOM     26  O1  <0> d           1.893  -3.874  -3.729  0.00  0.00    -0.646 OA
ATOM     27  O2  <0> d           0.837  -2.329  -2.751  0.00  0.00    -0.646 OA
ENDBRANCH   9  25
TORSDOF 3
