REMARK  2 active torsions:
REMARK  status: ('A' for Active; 'I' for Inactive)
REMARK    1  A    between atoms: C5_6  and  N2_19 
REMARK    2  A    between atoms: C7_8  and  C12_15 
ROOT
ATOM      1  C1  <0> d          -0.019   1.526   0.010  0.00  0.00     0.027 C 
ATOM      2  C2  <0> d           0.002  -0.004   0.002  0.00  0.00     0.056 C 
ATOM      3  C3  <0> d          -1.426  -0.531   0.123  0.00  0.00     0.194 C 
ATOM      4  O1  <0> d          -1.889  -0.410   1.466  0.00  0.00    -0.345 OA
ATOM      5  C4  <0> d          -1.619   0.755   2.114  0.00  0.00     0.121 A 
ATOM      6  C5  <0> d          -2.621   1.698   2.314  0.00  0.00     0.062 A 
ATOM      7  C6  <0> d          -2.330   2.885   2.974  0.00  0.00     0.048 A 
ATOM      8  C7  <0> d          -1.048   3.130   3.430  0.00  0.00     0.052 A 
ATOM      9  C8  <0> d          -0.049   2.194   3.235  0.00  0.00     0.049 A 
ATOM     10  C9  <0> d          -0.332   1.005   2.579  0.00  0.00     0.073 A 
ATOM     11  N1  <0> d           0.668   0.042   2.383  0.00  0.00    -0.319 N 
ATOM     12  C10 <0> d           0.835  -0.499   1.156  0.00  0.00     0.234 C 
ATOM     13  O2  <0> d           1.652  -1.379   0.985  0.00  0.00    -0.272 OA
ATOM     14  C11 <0> d           1.523  -0.373   3.498  0.00  0.00     0.159 C 
ATOM     15  C13 <0> d           0.612  -0.496  -1.312  0.00  0.00     0.027 C 
ENDROOT
BRANCH   8  16
ATOM     16  C12 <0> d          -0.738   4.421   4.143  0.00  0.00     0.417 C 
ATOM     17  F1  <0> d          -1.897   5.201   4.220  0.00  0.00    -0.166 F 
ATOM     18  F2  <0> d          -0.277   4.142   5.434  0.00  0.00    -0.166 F 
ATOM     19  F3  <0> d           0.248   5.119   3.437  0.00  0.00    -0.166 F 
ENDBRANCH   8  16
BRANCH   6  20
ATOM     20  N2  <0> d          -3.919   1.453   1.852  0.00  0.00    -0.397 N 
ATOM     21  H11 <0> d          -4.121   0.624   1.391  0.00  0.00     0.156 HD
ATOM     22  H12 <0> d          -4.617   2.112   1.992  0.00  0.00     0.156 HD
ENDBRANCH   6  20
TORSDOF 2
