REMARK  3 active torsions:
REMARK  status: ('A' for Active; 'I' for Inactive)
REMARK    1  A    between atoms: C6_6  and  C7_7 
REMARK    2  A    between atoms: C7_7  and  C8_8 
REMARK    3  A    between atoms: C7_7  and  N2_15 
ROOT
ATOM      1  C1  <0> d          -0.017   1.379   0.010  0.00  0.00     0.012 A 
ATOM      2  C2  <0> d           1.169   2.072   0.002  0.00  0.00     0.031 A 
ATOM      3  C3  <0> d           2.408   1.409  -0.018  0.00  0.00     0.041 A 
ATOM      4  C4  <0> d           2.420   0.030  -0.030  0.00  0.00    -0.031 A 
ATOM      5  C5  <0> d           1.210  -0.664  -0.016  0.00  0.00     0.019 A 
ATOM      6  C6  <0> d           0.002  -0.004   0.002  0.00  0.00    -0.021 A 
ATOM      7  C13 <0> d           3.648  -0.820  -0.064  0.00  0.00     0.041 C 
ATOM      8  C14 <0> d           4.790  -0.281  -0.868  0.00  0.00     0.014 C 
ATOM      9  C15 <0> d           5.556   0.814  -0.165  0.00  0.00     0.103 C 
ATOM     10  C16 <0> d           4.796   2.091  -0.133  0.00  0.00     0.222 C 
ATOM     11  O1  <0> d           5.446   3.109  -0.237  0.00  0.00    -0.273 OA
ATOM     12  N3  <0> d           3.507   2.235  -0.006  0.00  0.00    -0.327 N 
ATOM     13  H16 <0> d           3.260   3.163   0.131  0.00  0.00     0.169 HD
ENDROOT
BRANCH   6  14
ATOM     14  C7  <0> d          -1.289  -0.782   0.014  0.00  0.00     0.268 C 
BRANCH  14  15
ATOM     15  C8  <0> d          -1.864  -0.822  -1.378  0.00  0.00     0.069 A 
ATOM     16  N1  <0> d          -2.079   0.305  -2.027  0.00  0.00    -0.262 NA
ATOM     17  C12 <0> d          -2.576   0.319  -3.248  0.00  0.00     0.136 A 
ATOM     18  C11 <0> d          -2.901  -0.861  -3.892  0.00  0.00     0.028 A 
ATOM     19  C10 <0> d          -2.694  -2.067  -3.238  0.00  0.00     0.022 A 
ATOM     20 Br1  <0> d          -3.620  -0.831  -5.641  0.00  0.00    -0.050 Br
ATOM     21  C9  <0> d          -2.165  -2.040  -1.957  0.00  0.00     0.031 A 
ENDBRANCH  14  15
BRANCH  14  22
ATOM     22  N2  <0> d          -2.244  -0.130   0.920  0.00  0.00    -0.066 N 
ATOM     23  H8  <0> d          -1.859  -0.103   1.853  0.00  0.00     0.275 HD
ATOM     24  H9  <0> d          -2.421   0.811   0.602  0.00  0.00     0.275 HD
ATOM     25  H17 <0> d          -3.108  -0.651   0.929  0.00  0.00     0.275 HD
ENDBRANCH  14  22
ENDBRANCH   6  14
TORSDOF 3
