REMARK  3 active torsions:
REMARK  status: ('A' for Active; 'I' for Inactive)
REMARK    1  A    between atoms: C6_6  and  N1_8 
REMARK    2  A    between atoms: N1_8  and  C8_9 
REMARK    3  A    between atoms: N2_11  and  C9_12 
ROOT
ATOM      1  C8  <0> d           2.312   0.630  -1.950  0.00  0.00     0.172 C 
ATOM      2  S1  <0> d           2.309  -0.879  -1.143  0.00  0.00    -0.041 SA
ATOM      3  N2  <0> d           1.512   1.626  -1.521  0.00  0.00    -0.358 N 
ATOM      4  H10 <0> d           1.514   2.481  -1.978  0.00  0.00     0.162 HD
ENDROOT
BRANCH   1   5
ATOM      5  N1  <0> d           3.115   0.823  -3.015  0.00  0.00    -0.333 N 
ATOM      6  H9  <0> d           3.072   1.656  -3.510  0.00  0.00     0.168 HD
BRANCH   5   7
ATOM      7  C6  <0> d           4.009  -0.179  -3.407  0.00  0.00     0.034 A 
ATOM      8  C5  <0> d           5.321   0.146  -3.729  0.00  0.00     0.029 A 
ATOM      9  C4  <0> d           6.203  -0.846  -4.111  0.00  0.00     0.003 A 
ATOM     10  C3  <0> d           5.778  -2.160  -4.183  0.00  0.00     0.007 A 
ATOM     11  C2  <0> d           4.471  -2.486  -3.869  0.00  0.00    -0.060 A 
ATOM     12  C1  <0> d           4.013  -3.920  -3.949  0.00  0.00     0.048 C 
ATOM     13  C7  <0> d           3.586  -1.500  -3.481  0.00  0.00     0.036 A 
ENDBRANCH   5   7
ENDBRANCH   1   5
BRANCH   3  14
ATOM     14  C9  <0> d           0.639   1.417  -0.363  0.00  0.00     0.121 C 
ATOM     15  C12 <0> d          -0.649   0.810  -0.820  0.00  0.00     0.011 C 
ATOM     16  C11 <0> d          -1.718   1.552  -0.937  0.00  0.00     0.107 C 
ATOM     17  S2  <0> d          -1.234   3.194  -0.438  0.00  0.00     0.167 S 
ATOM     18  C10 <0> d           0.385   2.778   0.339  0.00  0.00     0.174 C 
ATOM     19  O1  <0> d          -2.180   3.602   0.541  0.00  0.00    -0.223 OA
ATOM     20  O2  <0> d          -1.050   3.925  -1.642  0.00  0.00    -0.223 OA
ENDBRANCH   3  14
TORSDOF 3
