REMARK  5 active torsions:
REMARK  status: ('A' for Active; 'I' for Inactive)
REMARK    1  A    between atoms: C7_7  and  N1_8 
REMARK    2  A    between atoms: N1_8  and  S1_10 
REMARK    3  A    between atoms: S1_10  and  C9_13 
REMARK    4  A    between atoms: C13_17  and  C15_19 
REMARK    5  A    between atoms: C15_19  and  O3_21 
ROOT
ATOM      1  S1  <0> d          -1.404   0.482   3.087  0.00  0.00     0.265 S 
ATOM      2  O1  <0> d          -1.093   1.575   3.940  0.00  0.00    -0.200 OA
ATOM      3  O2  <0> d          -2.338   0.588   2.022  0.00  0.00    -0.200 OA
ENDROOT
BRANCH   1   4
ATOM      4  N1  <0> d           0.025  -0.016   2.415  0.00  0.00    -0.276 N 
ATOM      5  C8  <0> d           1.292   0.266   3.095  0.00  0.00     0.170 C 
BRANCH   4   6
ATOM      6  C7  <0> d           0.023  -0.706   1.200  0.00  0.00     0.050 A 
ATOM      7  C2  <0> d           0.002  -0.004   0.002  0.00  0.00    -0.035 A 
ATOM      8  C1  <0> d          -0.018   1.503   0.010  0.00  0.00     0.050 C 
ATOM      9  C3  <0> d           0.006  -0.689  -1.198  0.00  0.00     0.009 A 
ATOM     10  C4  <0> d           0.024  -2.071  -1.206  0.00  0.00     0.001 A 
ATOM     11  C5  <0> d           0.039  -2.773  -0.014  0.00  0.00     0.002 A 
ATOM     12  C6  <0> d           0.036  -2.095   1.188  0.00  0.00     0.031 A 
ENDBRANCH   4   6
ENDBRANCH   1   4
BRANCH   1  13
ATOM     13  C9  <0> d          -1.973  -0.822   4.128  0.00  0.00     0.080 A 
ATOM     14  C14 <0> d          -1.597  -0.859   5.457  0.00  0.00     0.035 A 
ATOM     15  C13 <0> d          -2.047  -1.879   6.274  0.00  0.00    -0.029 A 
ATOM     16  C12 <0> d          -2.865  -2.867   5.760  0.00  0.00     0.010 A 
ATOM     17  C11 <0> d          -3.236  -2.833   4.428  0.00  0.00     0.002 A 
ATOM     18  C10 <0> d          -2.790  -1.811   3.612  0.00  0.00     0.025 A 
BRANCH  15  19
ATOM     19  C15 <0> d          -1.643  -1.916   7.726  0.00  0.00     0.147 C 
ATOM     20  C16 <0> d          -2.782  -1.368   8.587  0.00  0.00     0.044 C 
BRANCH  19  21
ATOM     21  O3  <0> d          -1.362  -3.264   8.108  0.00  0.00    -0.391 OA
ATOM     22  H19 <0> d          -1.095  -3.363   9.032  0.00  0.00     0.210 HD
ENDBRANCH  19  21
ENDBRANCH  15  19
ENDBRANCH   1  13
TORSDOF 5
