REMARK  6 active torsions:
REMARK  status: ('A' for Active; 'I' for Inactive)
REMARK    1  A    between atoms: C6_6  and  C8_8 
REMARK       I    between atoms: C8_8  and  N1_10 
REMARK    2  A    between atoms: N1_10  and  C10_12 
REMARK    3  A    between atoms: C10_12  and  C11_13 
REMARK    4  A    between atoms: C11_13  and  C12_14 
REMARK    5  A    between atoms: C13_17  and  C14_19 
REMARK    6  A    between atoms: C19_24  and  O3_28 
ROOT
ATOM      1  C12 <0> d           1.538  -3.726   6.719  0.00  0.00     0.131 A 
ATOM      2  N2  <0> d           0.533  -4.224   7.341  0.00  0.00    -0.118 NA
ATOM      3  O2  <0> d           0.942  -4.874   8.530  0.00  0.00    -0.226 OA
ATOM      4  C13 <0> d           2.370  -4.729   8.598  0.00  0.00     0.281 A 
ATOM      5  N3  <0> d           2.716  -3.972   7.384  0.00  0.00    -0.346 N 
ATOM      6  H16 <0> d           3.605  -3.698   7.107  0.00  0.00     0.163 HD
ENDROOT
BRANCH   1   7
ATOM      7  C11 <0> d           1.441  -2.970   5.418  0.00  0.00     0.100 C 
BRANCH   7   8
ATOM      8  C10 <0> d          -0.023  -2.894   4.981  0.00  0.00     0.133 C 
BRANCH   8   9
ATOM      9  N1  <0> d          -0.118  -2.160   3.717  0.00  0.00    -0.352 N 
ATOM     10  C8  <0> d          -0.037  -2.821   2.545  0.00  0.00     0.254 C 
ATOM     11  O1  <0> d           0.035  -4.035   2.536  0.00  0.00    -0.267 OA
ATOM     12  C9  <0> d          -0.300  -0.706   3.726  0.00  0.00     0.152 C 
BRANCH  10  13
ATOM     13  C6  <0> d          -0.036  -2.071   1.271  0.00  0.00     0.038 A 
ATOM     14  C5  <0> d           0.990  -2.265   0.345  0.00  0.00    -0.046 A 
ATOM     15  C4  <0> d           0.985  -1.562  -0.843  0.00  0.00     0.008 A 
ATOM     16  C23 <0> d           2.100  -3.240   0.640  0.00  0.00     0.049 C 
ATOM     17  C3  <0> d          -0.035  -0.668  -1.116  0.00  0.00     0.007 A 
ATOM     18  C2  <0> d          -1.054  -0.471  -0.201  0.00  0.00    -0.061 A 
ATOM     19  C1  <0> d          -2.160   0.506  -0.507  0.00  0.00     0.048 C 
ATOM     20  C7  <0> d          -1.058  -1.163   0.992  0.00  0.00     0.024 A 
ENDBRANCH  10  13
ENDBRANCH   8   9
ENDBRANCH   7   8
ENDBRANCH   1   7
BRANCH   4  21
ATOM     21  C14 <0> d           3.049  -6.100   8.583  0.00  0.00     0.157 A 
ATOM     22  N4  <0> d           2.523  -6.935   9.669  0.00  0.00    -0.377 N 
ATOM     23  C21 <0> d           1.965  -8.002   9.140  0.00  0.00     0.041 A 
ATOM     24  H27 <0> d           2.579  -6.734  10.616  0.00  0.00     0.160 HD
ATOM     25  C16 <0> d           2.076  -7.959   7.664  0.00  0.00    -0.011 A 
ATOM     26  C20 <0> d           1.314  -9.114   9.729  0.00  0.00     0.066 A 
ATOM     27  C15 <0> d           2.722  -6.830   7.300  0.00  0.00     0.016 A 
ATOM     28  C17 <0> d           1.507  -9.071   6.890  0.00  0.00     0.016 A 
ATOM     29  C18 <0> d           0.906 -10.087   7.546  0.00  0.00     0.037 A 
ATOM     30  C19 <0> d           0.812 -10.106   8.950  0.00  0.00     0.070 A 
BRANCH  30  31
ATOM     31  O3  <0> d           0.196 -11.156   9.548  0.00  0.00    -0.356 OA
ATOM     32  C22 <0> d          -0.319 -12.178   8.694  0.00  0.00     0.210 C 
ENDBRANCH  30  31
ENDBRANCH   4  21
TORSDOF 6
