REMARK  5 active torsions:
REMARK  status: ('A' for Active; 'I' for Inactive)
REMARK    1  A    between atoms: C10_11  and  S1_12 
REMARK    2  A    between atoms: S1_12  and  C11_13 
REMARK    3  A    between atoms: C11_13  and  C12_14 
REMARK       I    between atoms: C12_14  and  N2_16 
REMARK    4  A    between atoms: N2_16  and  N3_17 
REMARK       I    between atoms: N3_17  and  C13_18 
REMARK    5  A    between atoms: C13_18  and  C14_20 
ROOT
ATOM      1  C1  <0> d          -2.359  -2.948   0.006  0.00  0.00     0.051 C 
ATOM      2  C2  <0> d          -1.105  -2.111  -0.000  0.00  0.00    -0.026 A 
ATOM      3  C3  <0> d          -1.193  -0.751   0.008  0.00  0.00     0.023 A 
ATOM      4  C4  <0> d           0.002  -0.004   0.002  0.00  0.00    -0.004 A 
ATOM      5  C5  <0> d          -0.017   1.399   0.010  0.00  0.00     0.053 A 
ATOM      6  C6  <0> d           1.158   2.096   0.002  0.00  0.00     0.103 A 
ATOM      7  C7  <0> d           2.388   1.422  -0.010  0.00  0.00     0.104 A 
ATOM      8  C8  <0> d           2.433   0.055  -0.018  0.00  0.00     0.072 A 
ATOM      9  C9  <0> d           1.243  -0.688  -0.012  0.00  0.00     0.071 A 
ATOM     10  N1  <0> d           1.267  -2.026  -0.020  0.00  0.00    -0.241 NA
ATOM     11  C10 <0> d           0.152  -2.730  -0.015  0.00  0.00     0.100 A 
ATOM     12  O3  <0> d           3.558   2.118  -0.012  0.00  0.00    -0.346 OA
ATOM     13  C17 <0> d           3.487   3.498  -0.384  0.00  0.00     0.202 C 
ATOM     14  C18 <0> d           2.317   4.141   0.372  0.00  0.00     0.202 C 
ATOM     15  O4  <0> d           1.115   3.458   0.002  0.00  0.00    -0.346 OA
ENDROOT
BRANCH  11  16
ATOM     16  S1  <0> d           0.245  -4.489  -0.025  0.00  0.00    -0.100 SA
BRANCH  16  17
ATOM     17  C11 <0> d           2.042  -4.709  -0.042  0.00  0.00     0.185 C 
BRANCH  17  18
ATOM     18  C12 <0> d           2.368  -6.180  -0.053  0.00  0.00     0.245 C 
ATOM     19  O1  <0> d           1.474  -7.000  -0.050  0.00  0.00    -0.271 OA
ATOM     20  N2  <0> d           3.654  -6.585  -0.066  0.00  0.00    -0.267 N 
ATOM     21  H9  <0> d           4.369  -5.930  -0.068  0.00  0.00     0.190 HD
BRANCH  20  22
ATOM     22  N3  <0> d           3.957  -7.953  -0.076  0.00  0.00    -0.267 N 
ATOM     23  C13 <0> d           5.242  -8.358  -0.089  0.00  0.00     0.239 C 
ATOM     24  O2  <0> d           6.136  -7.539  -0.092  0.00  0.00    -0.271 OA
ATOM     25  H10 <0> d           3.242  -8.608  -0.074  0.00  0.00     0.190 HD
BRANCH  23  26
ATOM     26  C14 <0> d           5.568  -9.829  -0.100  0.00  0.00     0.071 C 
ATOM     27  C15 <0> d           4.964 -10.476  -1.348  0.00  0.00     0.019 C 
ATOM     28  C16 <0> d           7.087 -10.015  -0.114  0.00  0.00     0.019 C 
ENDBRANCH  23  26
ENDBRANCH  20  22
ENDBRANCH  17  18
ENDBRANCH  16  17
ENDBRANCH  11  16
TORSDOF 5
