REMARK  8 active torsions:
REMARK  status: ('A' for Active; 'I' for Inactive)
REMARK    1  A    between atoms: O1_2  and  C2_3 
REMARK    2  A    between atoms: C2_3  and  C3_4 
REMARK    3  A    between atoms: C3_4  and  N1_5 
REMARK    4  A    between atoms: N1_5  and  S1_6 
REMARK    5  A    between atoms: S1_6  and  C4_9 
REMARK    6  A    between atoms: C8_13  and  C10_15 
REMARK       I    between atoms: C10_15  and  N2_17 
REMARK    7  A    between atoms: N2_17  and  C11_18 
REMARK    8  A    between atoms: C11_18  and  C12_19 
ROOT
ATOM      1  C4  <0> d          -1.141   7.730   0.984  0.00  0.00     0.080 A 
ATOM      2  C5  <0> d          -1.733   8.424   2.025  0.00  0.00     0.027 A 
ATOM      3  C6  <0> d          -2.217   7.746   3.129  0.00  0.00     0.021 A 
ATOM      4  C7  <0> d          -2.116   6.371   3.197  0.00  0.00     0.026 A 
ATOM      5  C8  <0> d          -1.514   5.665   2.153  0.00  0.00     0.050 A 
ATOM      6  C9  <0> d          -1.029   6.357   1.041  0.00  0.00     0.043 A 
ATOM      7 Br1  <0> d          -2.785   5.445   4.705  0.00  0.00    -0.050 Br
ENDROOT
BRANCH   5   8
ATOM      8  C10 <0> d          -1.398   4.194   2.221  0.00  0.00     0.253 C 
ATOM      9  O4  <0> d          -1.822   3.595   3.190  0.00  0.00    -0.268 OA
ATOM     10  N2  <0> d          -0.821   3.516   1.209  0.00  0.00    -0.354 N 
ATOM     11  H13 <0> d          -0.438   4.058   0.332  0.00  0.00     0.162 HD
BRANCH  10  12
ATOM     12  C11 <0> d          -0.706   2.057   1.276  0.00  0.00     0.155 C 
BRANCH  12  13
ATOM     13  C12 <0> d          -0.019   1.541   0.011  0.00  0.00     0.139 C 
ATOM     14  O5  <0> d           1.372   1.929  -0.001  0.00  0.00    -0.384 OA
ATOM     15  C15 <0> d           2.015   1.015  -0.917  0.00  0.00     0.168 C 
ATOM     16  C14 <0> d           1.371  -0.357  -0.622  0.00  0.00     0.029 C 
ATOM     17  C13 <0> d           0.002  -0.004   0.002  0.00  0.00     0.035 C 
ENDBRANCH  12  13
ENDBRANCH  10  12
ENDBRANCH   5   8
BRANCH   1  18
ATOM     18  S1  <0> d          -0.528   8.604  -0.418  0.00  0.00     0.258 S 
ATOM     19  O2  <0> d          -0.262   9.931   0.015  0.00  0.00    -0.201 OA
ATOM     20  O3  <0> d           0.470   7.780  -1.006  0.00  0.00    -0.201 OA
BRANCH  18  21
ATOM     21  N1  <0> d          -1.766   8.702  -1.514  0.00  0.00    -0.313 N 
ATOM     22  H9  <0> d          -1.747   8.059  -2.406  0.00  0.00     0.172 HD
BRANCH  21  23
ATOM     23  C3  <0> d          -2.971   9.470  -1.190  0.00  0.00     0.158 C 
BRANCH  23  24
ATOM     24  C2  <0> d          -3.776   9.717  -2.467  0.00  0.00     0.187 C 
BRANCH  24  25
ATOM     25  O1  <0> d          -4.249   8.470  -2.981  0.00  0.00    -0.394 OA
ATOM     26  C1  <0> d          -5.018   8.589  -4.180  0.00  0.00     0.201 C 
ENDBRANCH  24  25
ENDBRANCH  23  24
ENDBRANCH  21  23
ENDBRANCH  18  21
ENDBRANCH   1  18
TORSDOF 8
