REMARK  2 active torsions:
REMARK  status: ('A' for Active; 'I' for Inactive)
REMARK    1  A    between atoms: C6_6  and  N1_7 
REMARK       I    between atoms: N2_8  and  C9_12 
REMARK    2  A    between atoms: C9_12  and  C10_14 
ROOT
ATOM      1  C1  <0> d           0.179   1.599   0.473  0.00  0.00     0.030 A 
ATOM      2  C2  <0> d           1.217   2.038   1.272  0.00  0.00     0.023 A 
ATOM      3  C3  <0> d           2.385   1.294   1.375  0.00  0.00     0.027 A 
ATOM      4  C4  <0> d           2.515   0.096   0.677  0.00  0.00     0.056 A 
ATOM      5  C5  <0> d           1.467  -0.338  -0.130  0.00  0.00     0.060 A 
ATOM      6  C6  <0> d           0.305   0.410  -0.232  0.00  0.00     0.028 A 
ATOM      7  N2  <0> d           3.655  -0.706   0.760  0.00  0.00    -0.312 N 
ATOM      8  C7  <0> d           4.947  -0.208   1.224  0.00  0.00     0.143 C 
ATOM      9  C8  <0> d           4.760   0.435   2.607  0.00  0.00     0.100 C 
ATOM     10  S1  <0> d           3.693   1.892   2.397  0.00  0.00    -0.126 SA
ATOM     11  C9  <0> d           3.559  -1.999   0.395  0.00  0.00     0.260 C 
ATOM     12  O1  <0> d           2.472  -2.477   0.131  0.00  0.00    -0.267 OA
ENDROOT
BRANCH  11  13
ATOM     13  C10 <0> d           4.771  -2.835   0.315  0.00  0.00     0.056 A 
ATOM     14  C13 <0> d           6.025  -2.436  -0.042  0.00  0.00     0.158 A 
ATOM     15  O2  <0> d           6.838  -3.496   0.016  0.00  0.00    -0.334 OA
ATOM     16  C12 <0> d           6.165  -4.595   0.392  0.00  0.00     0.142 A 
ATOM     17  C11 <0> d           4.878  -4.274   0.597  0.00  0.00     0.043 A 
ENDBRANCH  11  13
BRANCH   6  18
ATOM     18  N1  <0> d          -0.744  -0.035  -1.045  0.00  0.00    -0.399 N 
ATOM     19  H4  <0> d          -1.558   0.487  -1.117  0.00  0.00     0.156 HD
ATOM     20  H5  <0> d          -0.657  -0.866  -1.538  0.00  0.00     0.156 HD
ENDBRANCH   6  18
TORSDOF 2
