REMARK  1 active torsions:
REMARK  status: ('A' for Active; 'I' for Inactive)
REMARK       I    between atoms: N1_15  and  C14_18 
REMARK    1  A    between atoms: C14_18  and  C15_20 
ROOT
ATOM      1  C1  <0> d           2.584  -1.899   0.492  0.00  0.00     0.022 A 
ATOM      2  C2  <0> d           3.571  -0.934   0.457  0.00  0.00     0.039 A 
ATOM      3  C3  <0> d           4.663  -1.024   1.309  0.00  0.00     0.083 A 
ATOM      4  C4  <0> d           4.746  -2.103   2.204  0.00  0.00     0.044 A 
ATOM      5  C5  <0> d           3.744  -3.075   2.230  0.00  0.00     0.037 A 
ATOM      6  C6  <0> d           2.669  -2.967   1.373  0.00  0.00     0.012 A 
ATOM      7 Br1  <0> d           1.306  -4.278   1.400  0.00  0.00    -0.051 Br
ATOM      8  C7  <0> d           5.902  -2.189   3.115  0.00  0.00     0.165 C 
ATOM      9  O1  <0> d           5.924  -2.965   4.047  0.00  0.00    -0.292 OA
ATOM     10  C8  <0> d           7.064  -1.256   2.824  0.00  0.00     0.122 C 
ATOM     11  C9  <0> d           6.466   0.097   2.413  0.00  0.00     0.077 C 
ATOM     12  O2  <0> d           5.632  -0.080   1.269  0.00  0.00    -0.339 OA
ATOM     13  C10 <0> d           5.639   0.656   3.572  0.00  0.00     0.059 C 
ATOM     14  C11 <0> d           5.026   1.997   3.159  0.00  0.00     0.129 C 
ATOM     15  N1  <0> d           6.101   2.888   2.699  0.00  0.00    -0.347 N 
ATOM     16  C12 <0> d           7.008   2.413   1.646  0.00  0.00     0.129 C 
ATOM     17  C13 <0> d           7.601   1.067   2.076  0.00  0.00     0.059 C 
ATOM     18  C14 <0> d           6.250   4.116   3.232  0.00  0.00     0.270 C 
ATOM     19  O3  <0> d           5.443   4.530   4.043  0.00  0.00    -0.266 OA
ENDROOT
BRANCH  18  20
ATOM     20  C15 <0> d           7.387   4.955   2.836  0.00  0.00     0.122 C 
ATOM     21  C18 <0> d           8.290   5.531   3.894  0.00  0.00     0.076 C 
ATOM     22  C17 <0> d           9.727   5.590   3.363  0.00  0.00     0.111 C 
ATOM     23  C16 <0> d           9.719   6.202   1.986  0.00  0.00     0.237 C 
ATOM     24  N3  <0> d           8.673   5.986   1.164  0.00  0.00    -0.247 N 
ATOM     25  O4  <0> d          10.650   6.887   1.619  0.00  0.00    -0.272 OA
ATOM     26  N2  <0> d           7.598   5.193   1.579  0.00  0.00    -0.171 NA
ATOM     27  H14 <0> d           8.666   6.383   0.278  0.00  0.00     0.192 HD
ENDBRANCH  18  20
TORSDOF 1
