REMARK  0 active torsions:
REMARK  status: ('A' for Active; 'I' for Inactive)
ROOT
ATOM      1  C1  <0> d           5.090  -2.036  -0.585  0.00  0.00     0.068 C 
ATOM      2  C2  <0> d           4.095  -1.294   0.271  0.00  0.00     0.052 C 
ATOM      3  N1  <0> d           3.219  -0.473  -0.173  0.00  0.00    -0.190 N 
ATOM      4  O1  <0> d           3.118  -0.150  -1.550  0.00  0.00    -0.083 OA
ATOM      5  C3  <0> d           2.390   0.070   0.899  0.00  0.00     0.262 C 
ATOM      6  C4  <0> d           1.026  -0.592   0.959  0.00  0.00     0.105 C 
ATOM      7  C5  <0> d           0.002  -0.004   0.002  0.00  0.00     0.123 C 
ATOM      8  N2  <0> d          -0.018   1.441   0.010  0.00  0.00    -0.059 N 
ATOM      9  C6  <0> d           1.224   2.180   0.002  0.00  0.00     0.123 C 
ATOM     10  C7  <0> d           2.327   1.585   0.854  0.00  0.00     0.105 C 
ATOM     11  C8  <0> d           1.722   2.404  -1.433  0.00  0.00     0.046 C 
ATOM     12  C9  <0> d           0.920   3.591   0.576  0.00  0.00     0.046 C 
ATOM     13  C10 <0> d          -1.393  -0.494   0.466  0.00  0.00     0.046 C 
ATOM     14  C11 <0> d           0.211  -0.556  -1.412  0.00  0.00     0.046 C 
ATOM     15  N3  <0> d           3.100  -0.287   2.169  0.00  0.00     0.129 N 
ATOM     16  C12 <0> d           3.981  -1.406   1.772  0.00  0.00     0.193 C 
ATOM     17  C13 <0> d           5.363  -1.247   2.417  0.00  0.00     0.055 C 
ATOM     18  C14 <0> d           3.373  -2.752   2.171  0.00  0.00     0.055 C 
ATOM     19  H6  <0> d          -0.549   1.806  -0.881  0.00  0.00     0.279 HD
ATOM     20  H21 <0> d           3.668   0.584   2.528  0.00  0.00     0.320 HD
ATOM     21  H28 <0> d          -0.532   1.796   0.915  0.00  0.00     0.279 HD
ENDROOT
TORSDOF 0
