REMARK  5 active torsions:
REMARK  status: ('A' for Active; 'I' for Inactive)
REMARK    1  A    between atoms: C2_2  and  C4_4 
REMARK    2  A    between atoms: C4_4  and  C5_5 
REMARK       I    between atoms: C5_5  and  N1_7 
REMARK    3  A    between atoms: C11_14  and  C13_17 
REMARK       I    between atoms: C13_17  and  N3_19 
REMARK    4  A    between atoms: N3_19  and  C14_20 
REMARK    5  A    between atoms: C14_20  and  C15_21 
ROOT
ATOM      1  C5  <0> d           2.165  -0.079  -1.208  0.00  0.00     0.220 C 
ATOM      2  O1  <0> d           2.583   0.551  -0.260  0.00  0.00    -0.273 OA
ATOM      3  N1  <0> d           2.995  -0.406  -2.218  0.00  0.00    -0.352 N 
ATOM      4  C6  <0> d           2.502  -1.165  -3.376  0.00  0.00     0.129 C 
ATOM      5  C7  <0> d           2.839  -0.386  -4.653  0.00  0.00     0.070 C 
ATOM      6  C8  <0> d           4.325  -0.063  -4.673  0.00  0.00     0.177 C 
ATOM      7  C9  <0> d           4.738   0.763  -3.464  0.00  0.00     0.070 C 
ATOM      8  C10 <0> d           4.409  -0.005  -2.184  0.00  0.00     0.129 C 
ATOM      9  N2  <0> d           5.135  -1.296  -4.774  0.00  0.00    -0.043 N 
ATOM     10  C11 <0> d           5.372  -1.687  -6.178  0.00  0.00     0.288 C 
ATOM     11  C12 <0> d           5.849  -0.434  -6.973  0.00  0.00     0.119 C 
ATOM     12  S1  <0> d           4.746   0.839  -6.216  0.00  0.00    -0.128 SA
ATOM     13  H19 <0> d           6.023  -1.143  -4.322  0.00  0.00     0.280 HD
ATOM     14  H32 <0> d           4.652  -2.045  -4.302  0.00  0.00     0.280 HD
ENDROOT
BRANCH  10  15
ATOM     15  C13 <0> d           6.434  -2.754  -6.235  0.00  0.00     0.249 C 
ATOM     16  O2  <0> d           6.947  -3.154  -5.211  0.00  0.00    -0.271 OA
ATOM     17  N3  <0> d           6.814  -3.264  -7.423  0.00  0.00    -0.359 N 
ATOM     18  H22 <0> d           6.404  -2.944  -8.241  0.00  0.00     0.162 HD
BRANCH  17  19
ATOM     19  C14 <0> d           7.847  -4.302  -7.477  0.00  0.00     0.126 C 
BRANCH  19  20
ATOM     20  C15 <0> d           8.089  -4.704  -8.934  0.00  0.00    -0.005 C 
ATOM     21  C16 <0> d           8.670  -3.514  -9.701  0.00  0.00     0.011 C 
ATOM     22  C17 <0> d           9.076  -5.872  -8.982  0.00  0.00     0.011 C 
ENDBRANCH  19  20
ENDBRANCH  17  19
ENDBRANCH  10  15
BRANCH   1  23
ATOM     23  C4  <0> d           0.718  -0.497  -1.257  0.00  0.00     0.106 C 
BRANCH  23  24
ATOM     24  C2  <0> d           0.002  -0.004   0.002  0.00  0.00    -0.014 C 
ATOM     25  C1  <0> d          -0.019   1.526   0.010  0.00  0.00     0.010 C 
ATOM     26  C3  <0> d          -1.433  -0.534   0.013  0.00  0.00     0.010 C 
ENDBRANCH  23  24
ENDBRANCH   1  23
TORSDOF 5
