REMARK  4 active torsions:
REMARK  status: ('A' for Active; 'I' for Inactive)
REMARK    1  A    between atoms: C4_5  and  C5_6 
REMARK    2  A    between atoms: C6_9  and  C7_11 
REMARK    3  A    between atoms: C7_11  and  N3_12 
REMARK    4  A    between atoms: C11_16  and  C12_17 
ROOT
ATOM      1  C5  <0> d          -1.127  -0.946   0.008  0.00  0.00     0.209 A 
ATOM      2  N1  <0> d          -2.404  -0.634   0.017  0.00  0.00    -0.121 NA
ATOM      3  N2  <0> d          -3.104  -1.714   0.020  0.00  0.00    -0.125 NA
ATOM      4  C6  <0> d          -2.312  -2.748   0.014  0.00  0.00     0.195 A 
ATOM      5  O1  <0> d          -1.046  -2.293   0.000  0.00  0.00    -0.271 OA
ENDROOT
BRANCH   4   6
ATOM      6  C7  <0> d          -2.737  -4.194   0.015  0.00  0.00     0.324 C 
BRANCH   6   7
ATOM      7  N3  <0> d          -2.884  -4.662  -1.370  0.00  0.00    -0.050 N 
ATOM      8  C11 <0> d          -3.182  -6.106  -1.377  0.00  0.00     0.288 C 
ATOM      9  C10 <0> d          -4.539  -6.289  -2.088  0.00  0.00     0.046 C 
ATOM     10  C9  <0> d          -4.661  -5.002  -2.945  0.00  0.00     0.030 C 
ATOM     11  C8  <0> d          -4.002  -3.947  -2.021  0.00  0.00     0.236 C 
ATOM     12  H12 <0> d          -2.030  -4.490  -1.880  0.00  0.00     0.281 HD
BRANCH   8  13
ATOM     13  C12 <0> d          -2.106  -6.849  -2.126  0.00  0.00     0.205 C 
ATOM     14  O2  <0> d          -2.069  -8.067  -2.091  0.00  0.00    -0.646 OA
ATOM     15  O3  <0> d          -1.273  -6.231  -2.767  0.00  0.00    -0.646 OA
ENDBRANCH   8  13
ENDBRANCH   6   7
ENDBRANCH   4   6
BRANCH   1  16
ATOM     16  C4  <0> d           0.002  -0.004   0.002  0.00  0.00     0.061 A 
ATOM     17  C1  <0> d          -0.017   1.378   0.010  0.00  0.00     0.025 A 
ATOM     18  C2  <0> d           1.184   2.049   0.002  0.00  0.00     0.028 A 
ATOM     19  C3  <0> d           2.343   1.338  -0.013  0.00  0.00     0.052 A 
ATOM     20  S1  <0> d           1.754  -0.347  -0.017  0.00  0.00    -0.078 SA
ATOM     21 Br1  <0> d           4.124   1.973  -0.027  0.00  0.00    -0.043 Br
ENDBRANCH   1  16
TORSDOF 4
