REMARK  6 active torsions:
REMARK  status: ('A' for Active; 'I' for Inactive)
REMARK    1  A    between atoms: C5_5  and  O4_26 
REMARK    2  A    between atoms: C6_6  and  N1_8 
REMARK       I    between atoms: N1_8  and  C8_9 
REMARK    3  A    between atoms: C8_9  and  C9_11 
REMARK    4  A    between atoms: O4_26  and  C18_27 
REMARK    5  A    between atoms: C18_27  and  C19_28 
REMARK    6  A    between atoms: C19_28  and  N5_29 
ROOT
ATOM      1  N1  <0> d          -1.198   1.374   0.056  0.00  0.00    -0.320 N 
ATOM      2  C8  <0> d          -2.194   1.838  -0.723  0.00  0.00     0.257 C 
ATOM      3  O1  <0> d          -2.025   2.837  -1.395  0.00  0.00    -0.267 OA
ATOM      4  H8  <0> d          -1.323   0.427   0.603  0.00  0.00     0.169 HD
ENDROOT
BRANCH   2   5
ATOM      5  C9  <0> d          -3.496   1.132  -0.761  0.00  0.00     0.053 A 
ATOM      6  C13 <0> d          -4.081   0.750  -1.979  0.00  0.00     0.094 A 
ATOM      7  C12 <0> d          -5.317   0.081  -1.973  0.00  0.00     0.150 A 
ATOM      8  C14 <0> d          -3.438   1.029  -3.274  0.00  0.00     0.264 A 
ATOM      9  N2  <0> d          -5.922  -0.185  -0.828  0.00  0.00    -0.235 NA
ATOM     10  N4  <0> d          -5.874  -0.285  -3.186  0.00  0.00    -0.287 N 
ATOM     11  C11 <0> d          -5.399   0.160   0.332  0.00  0.00     0.034 A 
ATOM     12  C10 <0> d          -4.182   0.816   0.414  0.00  0.00     0.045 A 
ATOM     13  C17 <0> d          -6.141  -0.174   1.600  0.00  0.00     0.070 C 
ATOM     14  C15 <0> d          -5.249  -0.009  -4.342  0.00  0.00     0.330 A 
ATOM     15  C16 <0> d          -7.162  -0.984  -3.209  0.00  0.00     0.163 C 
ATOM     16  N3  <0> d          -4.068   0.627  -4.400  0.00  0.00    -0.274 N 
ATOM     17  O3  <0> d          -5.776  -0.350  -5.383  0.00  0.00    -0.246 OA
ATOM     18  H1  <0> d          -3.614   0.820  -5.383  0.00  0.00     0.173 HD
ATOM     19  O2  <0> d          -2.368   1.606  -3.329  0.00  0.00    -0.267 OA
ENDBRANCH   2   5
BRANCH   1  20
ATOM     20  C6  <0> d          -0.004   2.096   0.171  0.00  0.00     0.069 A 
ATOM     21  C5  <0> d           1.151   1.468   0.633  0.00  0.00     0.095 A 
ATOM     22  C4  <0> d           2.329   2.188   0.744  0.00  0.00     0.039 A 
ATOM     23  C3  <0> d           2.358   3.525   0.396  0.00  0.00     0.009 A 
ATOM     24  C2  <0> d           1.213   4.149  -0.063  0.00  0.00    -0.060 A 
ATOM     25  C1  <0> d           1.251   5.607  -0.441  0.00  0.00     0.048 C 
ATOM     26  C7  <0> d           0.034   3.437  -0.182  0.00  0.00     0.039 A 
BRANCH  21  27
ATOM     27  O4  <0> d           1.121   0.152   0.976  0.00  0.00    -0.347 OA
BRANCH  27  28
ATOM     28  C18 <0> d           2.342  -0.425   1.442  0.00  0.00     0.203 C 
BRANCH  28  29
ATOM     29  C19 <0> d           2.114  -1.900   1.776  0.00  0.00     0.260 C 
BRANCH  29  30
ATOM     30  N5  <0> d           1.759  -2.630   0.552  0.00  0.00    -0.077 N 
ATOM     31  C20 <0> d           2.935  -2.818  -0.308  0.00  0.00     0.269 C 
ATOM     32  C21 <0> d           1.129  -3.918   0.871  0.00  0.00     0.269 C 
ATOM     33  H26 <0> d           1.028  -2.025  -0.003  0.00  0.00     0.279 HD
ENDBRANCH  29  30
ENDBRANCH  28  29
ENDBRANCH  27  28
ENDBRANCH  21  27
ENDBRANCH   1  20
TORSDOF 6
