REMARK  5 active torsions:
REMARK  status: ('A' for Active; 'I' for Inactive)
REMARK    1  A    between atoms: C6_6  and  C8_8 
REMARK       I    between atoms: C8_8  and  N1_10 
REMARK    2  A    between atoms: N1_10  and  N2_11 
REMARK       I    between atoms: N2_11  and  C9_12 
REMARK    3  A    between atoms: C9_12  and  C10_14 
REMARK    4  A    between atoms: C10_14  and  N3_15 
REMARK    5  A    between atoms: C14_19  and  C16_22 
ROOT
ATOM      1  N2  <0> d           0.083  -4.905   3.652  0.00  0.00    -0.266 N 
ATOM      2  C9  <0> d           0.100  -6.252   3.639  0.00  0.00     0.254 C 
ATOM      3  O2  <0> d           0.103  -6.849   2.583  0.00  0.00    -0.270 OA
ATOM      4  H9  <0> d           0.080  -4.428   4.496  0.00  0.00     0.190 HD
ENDROOT
BRANCH   2   5
ATOM      5  C10 <0> d           0.115  -7.018   4.937  0.00  0.00     0.236 C 
BRANCH   5   6
ATOM      6  N3  <0> d           0.133  -8.456   4.656  0.00  0.00    -0.315 N 
ATOM      7  C15 <0> d           1.311  -9.094   4.523  0.00  0.00     0.263 A 
ATOM      8  C14 <0> d           1.338 -10.474   4.259  0.00  0.00     0.115 A 
ATOM      9  O3  <0> d           2.357  -8.474   4.637  0.00  0.00    -0.267 OA
ATOM     10  C13 <0> d           0.161 -11.151   4.129  0.00  0.00     0.023 A 
ATOM     11  C12 <0> d          -1.049 -10.457   4.268  0.00  0.00     0.018 A 
ATOM     12  C11 <0> d          -1.039  -9.128   4.527  0.00  0.00     0.095 A 
BRANCH   8  13
ATOM     13  C16 <0> d           2.652 -11.196   4.115  0.00  0.00     0.422 C 
ATOM     14  F1  <0> d           2.414 -12.549   3.852  0.00  0.00    -0.166 F 
ATOM     15  F2  <0> d           3.379 -10.636   3.059  0.00  0.00    -0.166 F 
ATOM     16  F3  <0> d           3.384 -11.074   5.301  0.00  0.00    -0.166 F 
ENDBRANCH   8  13
ENDBRANCH   5   6
ENDBRANCH   2   5
BRANCH   1  17
ATOM     17  N1  <0> d           0.068  -4.193   2.445  0.00  0.00    -0.263 N 
ATOM     18  C8  <0> d           0.051  -2.845   2.458  0.00  0.00     0.270 C 
ATOM     19  O1  <0> d           0.048  -2.248   3.516  0.00  0.00    -0.266 OA
ATOM     20  H8  <0> d           0.071  -4.670   1.601  0.00  0.00     0.190 HD
BRANCH  18  21
ATOM     21  C6  <0> d           0.036  -2.095   1.184  0.00  0.00     0.034 A 
ATOM     22  C5  <0> d           0.039  -2.778  -0.033  0.00  0.00     0.017 A 
ATOM     23  C4  <0> d           0.024  -2.071  -1.218  0.00  0.00     0.002 A 
ATOM     24  C3  <0> d           0.006  -0.688  -1.201  0.00  0.00     0.007 A 
ATOM     25  C2  <0> d           0.002  -0.004   0.002  0.00  0.00    -0.061 A 
ATOM     26  C1  <0> d          -0.018   1.503   0.010  0.00  0.00     0.048 C 
ATOM     27  C7  <0> d           0.023  -0.699   1.194  0.00  0.00     0.024 A 
ENDBRANCH  18  21
ENDBRANCH   1  17
TORSDOF 5
