REMARK  6 active torsions:
REMARK  status: ('A' for Active; 'I' for Inactive)
REMARK    1  A    between atoms: C2_2  and  C3_3 
REMARK    2  A    between atoms: C3_3  and  C4_4 
REMARK    3  A    between atoms: C4_4  and  N1_6 
REMARK    4  A    between atoms: C7_8  and  C10_12 
REMARK       I    between atoms: C10_12  and  N2_14 
REMARK    5  A    between atoms: C14_18  and  C16_20 
REMARK    6  A    between atoms: C16_20  and  N3_21 
REMARK       I    between atoms: N3_21  and  C17_22 
ROOT
ATOM      1  C10 <0> d           1.735  -4.068  -3.345  0.00  0.00     0.226 C 
ATOM      2  O2  <0> d           2.686  -3.700  -2.689  0.00  0.00    -0.273 OA
ATOM      3  N2  <0> d           1.923  -4.566  -4.584  0.00  0.00    -0.351 N 
ATOM      4  C11 <0> d           0.780  -5.010  -5.394  0.00  0.00     0.126 C 
ATOM      5  C12 <0> d           0.833  -4.300  -6.750  0.00  0.00     0.020 C 
ATOM      6  C13 <0> d           2.196  -4.547  -7.399  0.00  0.00     0.009 C 
ATOM      7  C14 <0> d           3.299  -3.969  -6.509  0.00  0.00     0.021 C 
ATOM      8  C15 <0> d           3.274  -4.669  -5.152  0.00  0.00     0.132 C 
ENDROOT
BRANCH   1   9
ATOM      9  C7  <0> d           0.343  -3.969  -2.777  0.00  0.00     0.105 C 
ATOM     10  C6  <0> d           0.369  -3.372  -1.352  0.00  0.00     0.141 C 
ATOM     11  N1  <0> d          -0.834  -2.537  -1.256  0.00  0.00    -0.347 N 
ATOM     12  C9  <0> d          -1.341  -2.267  -2.471  0.00  0.00     0.221 C 
ATOM     13  C8  <0> d          -0.495  -2.919  -3.543  0.00  0.00     0.118 C 
ATOM     14  O1  <0> d          -2.329  -1.597  -2.679  0.00  0.00    -0.273 OA
BRANCH  11  15
ATOM     15  C4  <0> d          -1.413  -2.063   0.004  0.00  0.00     0.083 C 
ATOM     16  C5  <0> d          -2.841  -2.594   0.141  0.00  0.00     0.032 C 
BRANCH  15  17
ATOM     17  C3  <0> d          -1.433  -0.534   0.013  0.00  0.00     0.024 C 
BRANCH  17  18
ATOM     18  C2  <0> d           0.002  -0.004   0.002  0.00  0.00    -0.003 C 
ATOM     19  C1  <0> d          -0.019   1.526   0.010  0.00  0.00     0.005 C 
ENDBRANCH  17  18
ENDBRANCH  15  17
ENDBRANCH  11  15
ENDBRANCH   1   9
BRANCH   7  20
ATOM     20  C16 <0> d           4.659  -4.187  -7.174  0.00  0.00     0.128 C 
BRANCH  20  21
ATOM     21  N3  <0> d           4.723  -3.417  -8.419  0.00  0.00    -0.361 N 
ATOM     22  C17 <0> d           5.835  -3.456  -9.179  0.00  0.00     0.213 C 
ATOM     23  O3  <0> d           6.783  -4.128  -8.832  0.00  0.00    -0.274 OA
ATOM     24  C18 <0> d           5.901  -2.664 -10.460  0.00  0.00     0.117 C 
ATOM     25  H28 <0> d           3.965  -2.879  -8.696  0.00  0.00     0.162 HD
ENDBRANCH  20  21
ENDBRANCH   7  20
TORSDOF 6
