REMARK  5 active torsions:
REMARK  status: ('A' for Active; 'I' for Inactive)
REMARK    1  A    between atoms: C2_2  and  C3_3 
REMARK    2  A    between atoms: C2_2  and  N3_31 
REMARK       I    between atoms: C3_3  and  N1_5 
REMARK    3  A    between atoms: N1_5  and  C4_6 
REMARK    4  A    between atoms: C5_7  and  C11_14 
REMARK       I    between atoms: C11_14  and  N2_16 
REMARK    5  A    between atoms: C14_19  and  C17_22 
ROOT
ATOM      1  C3  <0> d          -2.257   2.497  -3.496  0.00  0.00     0.253 C 
ATOM      2  O1  <0> d          -3.300   3.079  -3.285  0.00  0.00    -0.271 OA
ATOM      3  N1  <0> d          -1.504   2.067  -2.463  0.00  0.00    -0.319 N 
ATOM      4  H5  <0> d          -0.670   1.602  -2.632  0.00  0.00     0.169 HD
ENDROOT
BRANCH   1   5
ATOM      5  C2  <0> d          -1.803   2.255  -4.912  0.00  0.00     0.276 C 
ATOM      6  C1  <0> d          -0.448   2.931  -5.136  0.00  0.00     0.050 C 
BRANCH   5   7
ATOM      7  N3  <0> d          -2.812   2.808  -5.843  0.00  0.00    -0.055 N 
ATOM      8  C12 <0> d          -2.493   2.413  -7.230  0.00  0.00     0.241 C 
ATOM      9  C13 <0> d          -3.705   2.746  -8.104  0.00  0.00     0.067 C 
ATOM     10  C14 <0> d          -4.141   4.162  -7.847  0.00  0.00    -0.049 C 
ATOM     11  C15 <0> d          -3.756   4.842  -6.790  0.00  0.00     0.008 C 
ATOM     12  C16 <0> d          -2.841   4.278  -5.741  0.00  0.00     0.264 C 
ATOM     13  H26 <0> d          -3.736   2.436  -5.593  0.00  0.00     0.281 HD
BRANCH  10  14
ATOM     14  C17 <0> d          -5.038   4.815  -8.823  0.00  0.00    -0.030 A 
ATOM     15  C22 <0> d          -4.594   5.917  -9.555  0.00  0.00     0.012 A 
ATOM     16  C21 <0> d          -5.436   6.522 -10.464  0.00  0.00     0.001 A 
ATOM     17  C20 <0> d          -6.720   6.040 -10.651  0.00  0.00     0.000 A 
ATOM     18  C19 <0> d          -7.167   4.948  -9.928  0.00  0.00     0.001 A 
ATOM     19  C18 <0> d          -6.332   4.330  -9.020  0.00  0.00     0.012 A 
ENDBRANCH  10  14
ENDBRANCH   5   7
ENDBRANCH   1   5
BRANCH   3  20
ATOM     20  C4  <0> d          -1.923   2.290  -1.160  0.00  0.00     0.093 A 
ATOM     21  S1  <0> d          -3.359   3.086  -0.613  0.00  0.00    -0.075 SA
ATOM     22  C7  <0> d          -3.116   2.947   1.141  0.00  0.00    -0.008 A 
ATOM     23  C6  <0> d          -1.949   2.292   1.275  0.00  0.00    -0.026 A 
ATOM     24  C8  <0> d          -3.727   3.290   2.473  0.00  0.00     0.047 C 
ATOM     25  C5  <0> d          -1.294   1.929   0.019  0.00  0.00     0.072 A 
ATOM     26  C10 <0> d          -1.659   2.119   2.766  0.00  0.00     0.041 C 
ATOM     27  C9  <0> d          -2.568   3.137   3.483  0.00  0.00     0.010 C 
BRANCH  25  28
ATOM     28  C11 <0> d          -0.014   1.213   0.009  0.00  0.00     0.252 C 
ATOM     29  O2  <0> d           0.002  -0.004   0.002  0.00  0.00    -0.268 OA
ATOM     30  N2  <0> d           1.143   1.903   0.001  0.00  0.00    -0.366 N 
ATOM     31  H12 <0> d           1.990   1.429  -0.009  0.00  0.00     0.159 HD
ATOM     32  H13 <0> d           1.130   2.873   0.007  0.00  0.00     0.159 HD
ENDBRANCH  25  28
ENDBRANCH   3  20
TORSDOF 5
