REMARK  3 active torsions:
REMARK  status: ('A' for Active; 'I' for Inactive)
REMARK    1  A    between atoms: C2_2  and  N1_3 
REMARK    2  A    between atoms: C4_5  and  N2_12 
REMARK       I    between atoms: N2_12  and  C11_13 
REMARK       I    between atoms: C11_13  and  N3_15 
REMARK    3  A    between atoms: N3_15  and  C12_16 
ROOT
ATOM      1  N2  <0> d          -5.624   1.371   0.634  0.00  0.00    -0.306 N 
ATOM      2  C11 <0> d          -5.865   2.570   0.068  0.00  0.00     0.325 C 
ATOM      3  O1  <0> d          -4.948   3.342  -0.135  0.00  0.00    -0.247 OA
ATOM      4  N3  <0> d          -7.123   2.912  -0.274  0.00  0.00    -0.308 N 
ATOM      5  H11 <0> d          -6.355   0.754   0.796  0.00  0.00     0.170 HD
ATOM      6  H12 <0> d          -7.842   2.266  -0.188  0.00  0.00     0.170 HD
ENDROOT
BRANCH   1   7
ATOM      7  C4  <0> d          -4.310   1.013   0.991  0.00  0.00     0.064 A 
ATOM      8  C3  <0> d          -3.204   1.764   0.833  0.00  0.00     0.121 A 
ATOM      9  N1  <0> d          -2.107   1.079   1.296  0.00  0.00    -0.354 N 
ATOM     10  C6  <0> d          -2.493  -0.150   1.781  0.00  0.00     0.046 A 
ATOM     11  C5  <0> d          -3.886  -0.247   1.612  0.00  0.00     0.019 A 
ATOM     12  C7  <0> d          -1.800  -1.212   2.355  0.00  0.00     0.030 A 
ATOM     13  C10 <0> d          -4.559  -1.400   2.021  0.00  0.00     0.016 A 
ATOM     14  C9  <0> d          -3.859  -2.431   2.583  0.00  0.00     0.001 A 
ATOM     15  C8  <0> d          -2.484  -2.341   2.751  0.00  0.00     0.002 A 
BRANCH   9  16
ATOM     16  C2  <0> d          -0.731   1.583   1.281  0.00  0.00     0.124 C 
ATOM     17  C1  <0> d          -0.016   1.077   0.027  0.00  0.00     0.027 C 
ENDBRANCH   9  16
ENDBRANCH   1   7
BRANCH   4  18
ATOM     18  C12 <0> d          -7.392   4.199  -0.753  0.00  0.00     0.042 A 
ATOM     19  C17 <0> d          -8.492   4.421  -1.571  0.00  0.00    -0.034 A 
ATOM     20  C16 <0> d          -8.758   5.694  -2.038  0.00  0.00     0.028 A 
ATOM     21  C18 <0> d          -9.398   3.276  -1.944  0.00  0.00     0.050 C 
ATOM     22  C15 <0> d          -7.924   6.744  -1.700  0.00  0.00     0.011 A 
ATOM     23  C14 <0> d          -6.824   6.525  -0.889  0.00  0.00     0.021 A 
ATOM     24 Br1  <0> d          -8.287   8.484  -2.348  0.00  0.00    -0.051 Br
ATOM     25  C13 <0> d          -6.557   5.256  -0.415  0.00  0.00     0.031 A 
ENDBRANCH   4  18
TORSDOF 3
