REMARK  2 active torsions:
REMARK  status: ('A' for Active; 'I' for Inactive)
REMARK    1  A    between atoms: N1_7  and  C8_10 
REMARK    2  A    between atoms: C11_16  and  O3_17 
ROOT
ATOM      1  C1  <0> d           0.128   1.246   0.510  0.00  0.00     0.017 A 
ATOM      2  C2  <0> d           1.297   1.927   0.471  0.00  0.00     0.051 A 
ATOM      3  S1  <0> d           2.463   0.635   0.066  0.00  0.00    -0.106 SA
ATOM      4  C3  <0> d           1.311  -0.706  -0.018  0.00  0.00    -0.008 A 
ATOM      5  C4  <0> d           0.110  -0.123   0.258  0.00  0.00    -0.019 A 
ATOM      6  C5  <0> d          -1.153  -0.978   0.273  0.00  0.00     0.275 C 
ATOM      7  N1  <0> d          -0.892  -2.217  -0.469  0.00  0.00    -0.059 N 
ATOM      8  C6  <0> d           0.275  -2.920   0.080  0.00  0.00     0.241 C 
ATOM      9  C7  <0> d           1.548  -2.151  -0.314  0.00  0.00     0.074 C 
ATOM     10  H16 <0> d          -0.720  -1.994  -1.438  0.00  0.00     0.280 HD
ENDROOT
BRANCH   7  11
ATOM     11  C8  <0> d          -2.069  -3.092  -0.378  0.00  0.00     0.231 C 
ATOM     12  C11 <0> d          -3.214  -2.447  -1.145  0.00  0.00     0.164 C 
ATOM     13  C10 <0> d          -3.772  -3.316  -2.290  0.00  0.00     0.174 C 
ATOM     14  S2  <0> d          -3.237  -5.000  -1.756  0.00  0.00     0.149 S 
ATOM     15  C9  <0> d          -1.683  -4.494  -0.898  0.00  0.00     0.176 C 
ATOM     16  O1  <0> d          -4.159  -5.506  -0.801  0.00  0.00    -0.228 OA
ATOM     17  O2  <0> d          -2.911  -5.777  -2.901  0.00  0.00    -0.228 OA
BRANCH  12  18
ATOM     18  O3  <0> d          -2.755  -1.210  -1.694  0.00  0.00    -0.393 OA
ATOM     19  H15 <0> d          -3.426  -0.732  -2.201  0.00  0.00     0.210 HD
ENDBRANCH  12  18
ENDBRANCH   7  11
TORSDOF 2
