REMARK  5 active torsions:
REMARK  status: ('A' for Active; 'I' for Inactive)
REMARK    1  A    between atoms: C4_4  and  O1_22 
REMARK    2  A    between atoms: C5_5  and  C7_7 
REMARK    3  A    between atoms: C7_7  and  N1_8 
REMARK    4  A    between atoms: N1_8  and  N2_9 
REMARK    5  A    between atoms: C8_10  and  C10_15 
ROOT
ATOM      1  N2  <0> d           2.417  -4.182   0.059  0.00  0.00    -0.211 N 
ATOM      2  C8  <0> d           3.601  -5.055   0.166  0.00  0.00     0.289 A 
ATOM      3  N3  <0> d           3.034  -6.410   0.236  0.00  0.00    -0.182 NA
ATOM      4  N4  <0> d           1.805  -6.316   0.180  0.00  0.00    -0.254 N 
ATOM      5  C9  <0> d           1.367  -5.032   0.081  0.00  0.00     0.213 A 
ATOM      6  S1  <0> d          -0.277  -4.562  -0.007  0.00  0.00    -0.037 SA
ATOM      7  H12 <0> d           1.210  -7.081   0.209  0.00  0.00     0.191 HD
ENDROOT
BRANCH   1   8
ATOM      8  N1  <0> d           2.387  -2.785  -0.038  0.00  0.00    -0.179 NA
BRANCH   8   9
ATOM      9  C7  <0> d           1.260  -2.172  -0.239  0.00  0.00     0.153 C 
BRANCH   9  10
ATOM     10  C5  <0> d           1.204  -0.700  -0.198  0.00  0.00     0.016 A 
ATOM     11  C4  <0> d           2.366   0.042   0.058  0.00  0.00     0.077 A 
ATOM     12  C3  <0> d           2.302   1.426   0.094  0.00  0.00     0.037 A 
ATOM     13  C2  <0> d           1.099   2.070  -0.122  0.00  0.00     0.003 A 
ATOM     14  C1  <0> d          -0.051   1.341  -0.376  0.00  0.00     0.001 A 
ATOM     15  C6  <0> d          -0.006  -0.036  -0.415  0.00  0.00     0.016 A 
BRANCH  11  16
ATOM     16  O1  <0> d           3.548  -0.592   0.269  0.00  0.00    -0.360 OA
ATOM     17  H11 <0> d           3.719  -0.806   1.196  0.00  0.00     0.217 HD
ENDBRANCH  11  16
ENDBRANCH   9  10
ENDBRANCH   8   9
ENDBRANCH   1   8
BRANCH   2  18
ATOM     18  C10 <0> d           4.380  -4.738   1.416  0.00  0.00     0.006 A 
ATOM     19  C15 <0> d           5.184  -5.704   1.993  0.00  0.00     0.021 A 
ATOM     20  C14 <0> d           5.902  -5.412   3.139  0.00  0.00     0.020 A 
ATOM     21 Br1  <0> d           5.307  -7.422   1.213  0.00  0.00    -0.050 Br
ATOM     22  C13 <0> d           5.808  -4.157   3.712  0.00  0.00     0.001 A 
ATOM     23  C12 <0> d           5.000  -3.194   3.138  0.00  0.00     0.001 A 
ATOM     24  C11 <0> d           4.286  -3.484   1.990  0.00  0.00     0.012 A 
ENDBRANCH   2  18
TORSDOF 5
