REMARK  2 active torsions:
REMARK  status: ('A' for Active; 'I' for Inactive)
REMARK    1  A    between atoms: C2_2  and  O1_3 
REMARK    2  A    between atoms: O1_3  and  C3_4 
ROOT
ATOM      1  C3  <0> d           0.842  -1.874  -1.339  0.00  0.00     0.160 C 
ATOM      2  C4  <0> d           2.171  -2.146  -2.049  0.00  0.00     0.075 C 
ATOM      3  C5  <0> d           2.195  -3.616  -2.481  0.00  0.00     0.073 C 
ATOM      4  C6  <0> d           3.556  -3.945  -3.097  0.00  0.00     0.066 C 
ATOM      5  C7  <0> d           3.603  -5.433  -3.452  0.00  0.00     0.235 C 
ATOM      6  N1  <0> d           3.402  -6.235  -2.239  0.00  0.00    -0.075 N 
ATOM      7  C8  <0> d           2.066  -5.978  -1.688  0.00  0.00     0.235 C 
ATOM      8  C9  <0> d           1.959  -4.512  -1.264  0.00  0.00     0.066 C 
ATOM      9  O2  <0> d           1.165  -3.826  -3.445  0.00  0.00    -0.336 OA
ATOM     10  C10 <0> d          -0.080  -3.362  -3.155  0.00  0.00     0.115 A 
ATOM     11  C11 <0> d          -0.295  -2.425  -2.162  0.00  0.00     0.007 A 
ATOM     12  C12 <0> d          -1.580  -1.973  -1.907  0.00  0.00     0.015 A 
ATOM     13  C13 <0> d          -2.649  -2.457  -2.634  0.00  0.00     0.040 A 
ATOM     14  C14 <0> d          -2.442  -3.401  -3.629  0.00  0.00     0.105 A 
ATOM     15  C15 <0> d          -1.159  -3.853  -3.890  0.00  0.00     0.136 A 
ATOM     16  O3  <0> d          -0.930  -4.774  -4.868  0.00  0.00    -0.344 OA
ATOM     17  C16 <0> d          -2.063  -5.520  -5.326  0.00  0.00     0.202 C 
ATOM     18  C17 <0> d          -3.219  -4.540  -5.564  0.00  0.00     0.202 C 
ATOM     19  O4  <0> d          -3.505  -3.875  -4.334  0.00  0.00    -0.346 OA
ATOM     20  H13 <0> d           3.488  -7.215  -2.467  0.00  0.00     0.277 HD
ATOM     21  H24 <0> d           4.100  -5.989  -1.554  0.00  0.00     0.277 HD
ENDROOT
BRANCH   1  22
ATOM     22  O1  <0> d           0.671  -0.465  -1.174  0.00  0.00    -0.381 OA
BRANCH  22  23
ATOM     23  C2  <0> d           1.285   0.061   0.004  0.00  0.00     0.164 C 
ATOM     24  C1  <0> d           1.143   1.584   0.017  0.00  0.00     0.033 C 
ENDBRANCH  22  23
ENDBRANCH   1  22
TORSDOF 2
