REMARK  4 active torsions:
REMARK  status: ('A' for Active; 'I' for Inactive)
REMARK    1  A    between atoms: C3_3  and  C6_7 
REMARK       I    between atoms: C6_7  and  N1_9 
REMARK    2  A    between atoms: N1_9  and  C7_10 
REMARK    3  A    between atoms: N2_13  and  C12_16 
REMARK    4  A    between atoms: C12_16  and  C13_17 
REMARK       I    between atoms: C13_17  and  N3_19 
ROOT
ATOM      1  C7  <0> d          -5.225  -0.850  -1.371  0.00  0.00     0.087 C 
ATOM      2  C8  <0> d          -5.366  -0.988   0.148  0.00  0.00     0.053 C 
ATOM      3  C9  <0> d          -6.789  -0.606   0.560  0.00  0.00     0.237 C 
ATOM      4  N2  <0> d          -7.750  -1.496  -0.105  0.00  0.00    -0.063 N 
ATOM      5  C10 <0> d          -7.671  -1.316  -1.559  0.00  0.00     0.237 C 
ATOM      6  C11 <0> d          -6.281  -1.725  -2.053  0.00  0.00     0.053 C 
ATOM      7  H30 <0> d          -7.535  -2.454   0.127  0.00  0.00     0.280 HD
ENDROOT
BRANCH   4   8
ATOM      8  C12 <0> d          -9.108  -1.176   0.354  0.00  0.00     0.337 C 
BRANCH   8   9
ATOM      9  C13 <0> d         -10.082  -2.166  -0.232  0.00  0.00     0.250 C 
ATOM     10  O3  <0> d          -9.714  -2.946  -1.086  0.00  0.00    -0.271 OA
ATOM     11  N3  <0> d         -11.361  -2.186   0.193  0.00  0.00    -0.312 N 
ATOM     12  C22 <0> d         -11.885  -1.102   1.035  0.00  0.00     0.089 C 
ATOM     13  C14 <0> d         -12.211  -3.243  -0.157  0.00  0.00     0.044 A 
ATOM     14  C21 <0> d         -13.268  -0.714   0.485  0.00  0.00     0.030 C 
ATOM     15  C23 <0> d         -10.944   0.104   0.972  0.00  0.00     0.033 C 
ATOM     16  C20 <0> d         -14.206  -1.912   0.627  0.00  0.00     0.043 C 
ATOM     17  C19 <0> d         -13.581  -3.145   0.032  0.00  0.00    -0.031 A 
ATOM     18  C18 <0> d         -14.398  -4.204  -0.329  0.00  0.00     0.009 A 
ATOM     19  C17 <0> d         -13.853  -5.352  -0.870  0.00  0.00     0.001 A 
ATOM     20  C16 <0> d         -12.486  -5.452  -1.055  0.00  0.00     0.002 A 
ATOM     21  C15 <0> d         -11.665  -4.401  -0.700  0.00  0.00     0.030 A 
ENDBRANCH   8   9
ENDBRANCH   4   8
BRANCH   1  22
ATOM     22  N1  <0> d          -3.888  -1.287  -1.781  0.00  0.00    -0.352 N 
ATOM     23  C6  <0> d          -2.856  -0.420  -1.745  0.00  0.00     0.254 C 
ATOM     24  O2  <0> d          -3.035   0.723  -1.373  0.00  0.00    -0.268 OA
ATOM     25  H7  <0> d          -3.746  -2.199  -2.078  0.00  0.00     0.163 HD
BRANCH  23  26
ATOM     26  C3  <0> d          -1.511  -0.860  -2.158  0.00  0.00     0.063 A 
ATOM     27  C2  <0> d          -0.370  -0.112  -2.180  0.00  0.00     0.064 A 
ATOM     28  C1  <0> d          -0.258   1.337  -1.780  0.00  0.00     0.077 C 
ATOM     29  O1  <0> d           0.630  -0.881  -2.621  0.00  0.00    -0.326 OA
ATOM     30  C5  <0> d           0.197  -2.123  -2.888  0.00  0.00     0.143 A 
ATOM     31  C4  <0> d          -1.118  -2.195  -2.631  0.00  0.00     0.044 A 
ENDBRANCH  23  26
ENDBRANCH   1  22
TORSDOF 4
