REMARK  6 active torsions:
REMARK  status: ('A' for Active; 'I' for Inactive)
REMARK    1  A    between atoms: N1_2  and  C3_4 
REMARK    2  A    between atoms: C3_4  and  C4_5 
REMARK    3  A    between atoms: C3_4  and  C19_26 
REMARK    4  A    between atoms: C4_5  and  N2_6 
REMARK       I    between atoms: N2_6  and  C5_7 
REMARK    5  A    between atoms: C5_7  and  C6_9 
REMARK       I    between atoms: C6_9  and  N3_11 
REMARK    6  A    between atoms: N3_11  and  C7_12 
ROOT
ATOM      1  C6  <0> d          -1.967   3.724  -2.268  0.00  0.00     0.313 C 
ATOM      2  O2  <0> d          -1.286   4.253  -1.414  0.00  0.00    -0.262 OA
ATOM      3  N3  <0> d          -2.470   4.459  -3.279  0.00  0.00    -0.319 N 
ATOM      4  H11 <0> d          -3.076   4.053  -3.919  0.00  0.00     0.169 HD
ENDROOT
BRANCH   1   5
ATOM      5  C5  <0> d          -2.248   2.259  -2.198  0.00  0.00     0.309 C 
ATOM      6  N2  <0> d          -1.745   1.524  -1.186  0.00  0.00    -0.351 N 
ATOM      7  H10 <0> d          -1.200   1.947  -0.504  0.00  0.00     0.162 HD
ATOM      8  O1  <0> d          -2.929   1.730  -3.052  0.00  0.00    -0.262 OA
BRANCH   6   9
ATOM      9  C4  <0> d          -2.020   0.087  -1.118  0.00  0.00     0.161 C 
BRANCH   9  10
ATOM     10  C3  <0> d          -1.238  -0.527   0.045  0.00  0.00     0.244 C 
BRANCH  10  11
ATOM     11  N1  <0> d          -1.410  -1.986   0.035  0.00  0.00    -0.068 N 
ATOM     12  C1  <0> d          -0.807  -2.541  -1.184  0.00  0.00     0.270 C 
ATOM     13  C2  <0> d          -0.752  -2.565   1.214  0.00  0.00     0.270 C 
ATOM     14  H27 <0> d          -2.394  -2.209   0.056  0.00  0.00     0.279 HD
ENDBRANCH  10  11
BRANCH  10  15
ATOM     15  C19 <0> d          -1.754   0.030   1.347  0.00  0.00     0.015 A 
ATOM     16  S1  <0> d          -3.208  -0.435   2.272  0.00  0.00    -0.104 SA
ATOM     17  C22 <0> d          -3.024   0.714   3.626  0.00  0.00     0.050 A 
ATOM     18  C21 <0> d          -1.888   1.370   3.284  0.00  0.00     0.008 A 
ATOM     19  C20 <0> d          -1.237   1.020   2.116  0.00  0.00     0.017 A 
ENDBRANCH  10  15
ENDBRANCH   9  10
ENDBRANCH   6   9
ENDBRANCH   1   5
BRANCH   3  20
ATOM     20  C7  <0> d          -2.120   5.807  -3.406  0.00  0.00     0.036 A 
ATOM     21  C12 <0> d          -3.045   6.724  -3.887  0.00  0.00     0.039 A 
ATOM     22  C11 <0> d          -2.697   8.055  -4.010  0.00  0.00    -0.028 A 
ATOM     23  C10 <0> d          -1.414   8.475  -3.677  0.00  0.00     0.050 A 
ATOM     24  C13 <0> d          -3.723   9.047  -4.491  0.00  0.00     0.050 C 
ATOM     25  C9  <0> d          -0.491   7.561  -3.188  0.00  0.00    -0.028 A 
ATOM     26  N4  <0> d          -1.069   9.824  -3.828  0.00  0.00    -0.317 N 
ATOM     27  C8  <0> d          -0.845   6.230  -3.057  0.00  0.00     0.039 A 
ATOM     28  C18 <0> d           0.900   7.981  -2.793  0.00  0.00     0.042 C 
ATOM     29  C17 <0> d           1.273   9.301  -3.466  0.00  0.00     0.025 C 
ATOM     30  C16 <0> d           0.161  10.323  -3.198  0.00  0.00     0.132 C 
ATOM     31  C15 <0> d          -1.842  10.664  -4.538  0.00  0.00     0.224 C 
ATOM     32  C14 <0> d          -3.042  10.156  -5.290  0.00  0.00     0.108 C 
ATOM     33  O3  <0> d          -1.569  11.845  -4.571  0.00  0.00    -0.273 OA
ENDBRANCH   3  20
TORSDOF 6
