REMARK  5 active torsions:
REMARK  status: ('A' for Active; 'I' for Inactive)
REMARK    1  A    between atoms: O1_2  and  C2_3 
REMARK    2  A    between atoms: C5_6  and  C8_10 
REMARK    3  A    between atoms: C7_8  and  O2_9 
REMARK    4  A    between atoms: C15_17  and  O4_25 
REMARK    5  A    between atoms: C18_20  and  O3_23 
ROOT
ATOM      1  C8  <0> d           2.026   1.799   1.444  0.00  0.00     0.099 C 
ATOM      2  C9  <0> d           1.488   1.897  -0.002  0.00  0.00     0.024 C 
ATOM      3  C10 <0> d          -0.018   1.512   0.010  0.00  0.00     0.034 C 
ATOM      4  C11 <0> d           0.002  -0.004   0.002  0.00  0.00    -0.029 C 
ATOM      5  C12 <0> d           1.147  -0.446  -0.454  0.00  0.00    -0.021 C 
ATOM      6  C13 <0> d           2.057   0.709  -0.807  0.00  0.00     0.052 C 
ATOM      7  C14 <0> d           3.475   0.399  -0.429  0.00  0.00     0.007 A 
ATOM      8  C15 <0> d           4.165  -0.542  -1.192  0.00  0.00     0.077 A 
ATOM      9  C16 <0> d           5.475  -0.871  -0.892  0.00  0.00     0.040 A 
ATOM     10  C17 <0> d           6.113  -0.264   0.175  0.00  0.00     0.041 A 
ATOM     11  C18 <0> d           5.438   0.670   0.937  0.00  0.00     0.090 A 
ATOM     12  C19 <0> d           4.114   1.006   0.636  0.00  0.00     0.052 A 
ATOM     13  N1  <0> d           3.481   1.960   1.437  0.00  0.00    -0.281 NA
ATOM     14  H17 <0> d           3.851   1.946   2.376  0.00  0.00     0.128 HD
ENDROOT
BRANCH   1  15
ATOM     15  C5  <0> d           1.405   2.887   2.281  0.00  0.00    -0.037 A 
ATOM     16  C4  <0> d           1.901   4.176   2.217  0.00  0.00     0.012 A 
ATOM     17  C3  <0> d           1.334   5.177   2.983  0.00  0.00     0.040 A 
ATOM     18  C2  <0> d           0.265   4.890   3.817  0.00  0.00     0.101 A 
ATOM     19  C7  <0> d          -0.235   3.593   3.881  0.00  0.00     0.099 A 
ATOM     20  C6  <0> d           0.335   2.595   3.107  0.00  0.00     0.048 A 
BRANCH  18  21
ATOM     21  O1  <0> d          -0.294   5.874   4.572  0.00  0.00    -0.353 OA
ATOM     22  C1  <0> d           0.272   7.181   4.455  0.00  0.00     0.210 C 
ENDBRANCH  18  21
BRANCH  19  23
ATOM     23  O2  <0> d          -1.284   3.307   4.699  0.00  0.00    -0.358 OA
ATOM     24  H10 <0> d          -2.149   3.408   4.278  0.00  0.00     0.217 HD
ENDBRANCH  19  23
ENDBRANCH   1  15
BRANCH  11  25
ATOM     25  O3  <0> d           6.065   1.268   1.987  0.00  0.00    -0.354 OA
ATOM     26  C20 <0> d           7.416   0.880   2.241  0.00  0.00     0.210 C 
ENDBRANCH  11  25
BRANCH   8  27
ATOM     27  O4  <0> d           3.544  -1.143  -2.242  0.00  0.00    -0.355 OA
ATOM     28  C21 <0> d           4.304  -2.098  -2.985  0.00  0.00     0.210 C 
ENDBRANCH   8  27
TORSDOF 5
