REMARK  8 active torsions:
REMARK  status: ('A' for Active; 'I' for Inactive)
REMARK    1  A    between atoms: C5_5  and  C9_9 
REMARK    2  A    between atoms: C10_10  and  C12_15 
REMARK    3  A    between atoms: C12_15  and  N3_16 
REMARK    4  A    between atoms: N3_16  and  C13_17 
REMARK    5  A    between atoms: C13_17  and  C14_18 
REMARK    6  A    between atoms: N4_21  and  C19_24 
REMARK    7  A    between atoms: C19_24  and  C20_25 
REMARK    8  A    between atoms: C20_25  and  O1_26 
ROOT
ATOM      1  C12 <0> d           1.101  -0.196  -1.099  0.00  0.00     0.274 C 
ENDROOT
BRANCH   1   2
ATOM      2  C10 <0> d           1.200  -1.699  -1.078  0.00  0.00     0.015 A 
ATOM      3  C9  <0> d           0.192  -2.602  -1.469  0.00  0.00     0.096 A 
ATOM      4  N2  <0> d           0.657  -3.823  -1.311  0.00  0.00    -0.174 NA
ATOM      5  N1  <0> d           1.962  -3.729  -0.809  0.00  0.00    -0.288 N 
ATOM      6  C11 <0> d           2.268  -2.421  -0.676  0.00  0.00     0.120 A 
ATOM      7  H1  <0> d           2.700  -4.497  -0.535  0.00  0.00     0.188 HD
BRANCH   3   8
ATOM      8  C5  <0> d          -1.157  -2.241  -1.974  0.00  0.00    -0.004 A 
ATOM      9  C4  <0> d          -1.815  -1.120  -1.470  0.00  0.00     0.014 A 
ATOM     10  C3  <0> d          -3.068  -0.789  -1.942  0.00  0.00     0.008 A 
ATOM     11  C2  <0> d          -3.671  -1.566  -2.915  0.00  0.00    -0.056 A 
ATOM     12  C1  <0> d          -5.040  -1.198  -3.428  0.00  0.00     0.049 C 
ATOM     13  C7  <0> d          -3.023  -2.679  -3.418  0.00  0.00    -0.055 A 
ATOM     14  C6  <0> d          -1.767  -3.017  -2.956  0.00  0.00     0.021 A 
ATOM     15  C8  <0> d          -3.686  -3.521  -4.478  0.00  0.00     0.049 C 
ENDBRANCH   3   8
ENDBRANCH   1   2
BRANCH   1  16
ATOM     16  N3  <0> d           0.356   0.262   0.082  0.00  0.00    -0.071 N 
ATOM     17  H14 <0> d          -0.654  -0.172   0.069  0.00  0.00     0.277 HD
ATOM     18  H33 <0> d           0.882  -0.058   0.994  0.00  0.00     0.277 HD
BRANCH  16  19
ATOM     19  C13 <0> d           0.240   1.727   0.095  0.00  0.00     0.237 C 
BRANCH  19  20
ATOM     20  C14 <0> d          -0.539   2.165   1.337  0.00  0.00     0.014 C 
ATOM     21  C18 <0> d          -0.554   3.694   1.418  0.00  0.00     0.034 C 
ATOM     22  C17 <0> d          -1.386   4.127   2.628  0.00  0.00     0.235 C 
ATOM     23  N4  <0> d          -2.755   3.613   2.491  0.00  0.00    -0.069 N 
ATOM     24  C16 <0> d          -2.770   2.145   2.459  0.00  0.00     0.235 C 
ATOM     25  H34 <0> d          -3.155   3.974   1.532  0.00  0.00     0.280 HD
ATOM     26  C15 <0> d          -1.979   1.652   1.244  0.00  0.00     0.034 C 
BRANCH  23  27
ATOM     27  C19 <0> d          -3.619   4.125   3.564  0.00  0.00     0.261 C 
BRANCH  27  28
ATOM     28  C20 <0> d          -3.311   3.381   4.865  0.00  0.00     0.194 C 
BRANCH  28  29
ATOM     29  O1  <0> d          -1.987   3.702   5.296  0.00  0.00    -0.394 OA
ATOM     30  C21 <0> d          -1.598   3.056   6.509  0.00  0.00     0.201 C 
ENDBRANCH  28  29
ENDBRANCH  27  28
ENDBRANCH  23  27
ENDBRANCH  19  20
ENDBRANCH  16  19
ENDBRANCH   1  16
TORSDOF 8
