REMARK  2 active torsions:
REMARK  status: ('A' for Active; 'I' for Inactive)
REMARK    1  A    between atoms: O1_2  and  C2_3 
REMARK       I    between atoms: C2_3  and  N1_5 
REMARK    2  A    between atoms: C3_6  and  O5_17 
ROOT
ATOM      1  C2  <0> d          -1.189  -0.632   0.010  0.00  0.00     0.378 C 
ATOM      2  O2  <0> d          -2.217   0.016   0.023  0.00  0.00    -0.237 OA
ATOM      3  N1  <0> d          -1.241  -1.978   0.003  0.00  0.00    -0.183 N 
ATOM      4  C3  <0> d          -2.430  -2.832   0.004  0.00  0.00     0.284 A 
ATOM      5  C4  <0> d          -2.130  -4.294  -0.005  0.00  0.00     0.058 A 
ATOM      6  C5  <0> d          -0.815  -4.625  -0.012  0.00  0.00     0.121 A 
ATOM      7  C6  <0> d          -0.491  -5.986  -0.021  0.00  0.00     0.087 A 
ATOM      8  C7  <0> d          -1.477  -6.910  -0.022  0.00  0.00     0.098 A 
ATOM      9  S1  <0> d          -2.938  -5.887  -0.009  0.00  0.00    -0.075 SA
ATOM     10 Cl1  <0> d          -1.354  -8.641  -0.032  0.00  0.00    -0.074 Cl
ATOM     11 Cl2  <0> d           1.171  -6.486  -0.032  0.00  0.00    -0.080 Cl
ATOM     12  S2  <0> d           0.035  -3.054  -0.015  0.00  0.00     0.274 S 
ATOM     13  O3  <0> d           0.710  -2.934   1.230  0.00  0.00    -0.200 OA
ATOM     14  O4  <0> d           0.684  -2.921  -1.272  0.00  0.00    -0.200 OA
ENDROOT
BRANCH   1  15
ATOM     15  O1  <0> d           0.002  -0.004   0.002  0.00  0.00    -0.308 OA
ATOM     16  C1  <0> d          -0.017   1.425   0.010  0.00  0.00     0.215 C 
ENDBRANCH   1  15
BRANCH   4  17
ATOM     17  O5  <0> d          -3.202  -2.537   1.170  0.00  0.00    -0.371 OA
ATOM     18  H5  <0> d          -4.011  -3.060   1.249  0.00  0.00     0.212 HD
ENDBRANCH   4  17
TORSDOF 2
