REMARK  5 active torsions:
REMARK  status: ('A' for Active; 'I' for Inactive)
REMARK       I    between atoms: C2_2  and  N1_4 
REMARK    1  A    between atoms: N1_4  and  N2_5 
REMARK       I    between atoms: N2_5  and  C3_6 
REMARK    2  A    between atoms: C3_6  and  C4_8 
REMARK    3  A    between atoms: C4_8  and  S1_9 
REMARK    4  A    between atoms: S1_9  and  C5_10 
REMARK    5  A    between atoms: N4_14  and  C8_15 
ROOT
ATOM      1  C5  <0> d          -0.747   3.828   1.257  0.00  0.00     0.173 A 
ATOM      2  N3  <0> d          -0.176   4.424   0.235  0.00  0.00    -0.235 NA
ATOM      3  C6  <0> d          -0.275   5.755   0.385  0.00  0.00     0.137 A 
ATOM      4  C7  <0> d          -0.926   6.006   1.534  0.00  0.00     0.118 A 
ATOM      5  N4  <0> d          -1.236   4.786   2.095  0.00  0.00    -0.300 N 
ENDROOT
BRANCH   1   6
ATOM      6  S1  <0> d          -0.866   2.087   1.500  0.00  0.00    -0.082 SA
BRANCH   6   7
ATOM      7  C4  <0> d          -0.018   1.503   0.010  0.00  0.00     0.186 C 
BRANCH   7   8
ATOM      8  C3  <0> d           0.002  -0.004   0.002  0.00  0.00     0.245 C 
ATOM      9  N2  <0> d           0.585  -0.664  -1.018  0.00  0.00    -0.267 N 
ATOM     10  H5  <0> d           1.046  -0.104  -1.844  0.00  0.00     0.190 HD
ATOM     11  O2  <0> d          -0.506  -0.622   0.913  0.00  0.00    -0.271 OA
BRANCH   9  12
ATOM     12  N1  <0> d           0.604  -2.065  -1.026  0.00  0.00    -0.268 N 
ATOM     13  C2  <0> d           1.187  -2.726  -2.046  0.00  0.00     0.232 C 
ATOM     14  C1  <0> d           1.208  -4.233  -2.054  0.00  0.00     0.119 C 
ATOM     15  O1  <0> d           1.695  -2.107  -2.957  0.00  0.00    -0.272 OA
ATOM     16  H4  <0> d           0.143  -2.626  -0.199  0.00  0.00     0.190 HD
ENDBRANCH   9  12
ENDBRANCH   7   8
ENDBRANCH   6   7
ENDBRANCH   1   6
BRANCH   5  17
ATOM     17  C8  <0> d          -1.921   4.571   3.299  0.00  0.00     0.044 A 
ATOM     18  C13 <0> d          -2.998   3.696   3.338  0.00  0.00     0.072 A 
ATOM     19  C12 <0> d          -3.670   3.483   4.529  0.00  0.00     0.118 A 
ATOM     20  C11 <0> d          -3.273   4.148   5.677  0.00  0.00     0.042 A 
ATOM     21  F1  <0> d          -4.716   2.628   4.571  0.00  0.00    -0.206 F 
ATOM     22  C10 <0> d          -2.204   5.024   5.637  0.00  0.00     0.005 A 
ATOM     23  C9  <0> d          -1.527   5.236   4.452  0.00  0.00     0.030 A 
ENDBRANCH   5  17
TORSDOF 5
