REMARK  6 active torsions:
REMARK  status: ('A' for Active; 'I' for Inactive)
REMARK    1  A    between atoms: C2_2  and  N1_3 
REMARK       I    between atoms: N1_3  and  C3_4 
REMARK    2  A    between atoms: C3_4  and  C4_6 
REMARK    3  A    between atoms: C7_9  and  N2_13 
REMARK       I    between atoms: N2_13  and  C11_14 
REMARK       I    between atoms: C11_14  and  N3_16 
REMARK    4  A    between atoms: N3_16  and  C12_17 
REMARK    5  A    between atoms: C12_17  and  C13_18 
REMARK    6  A    between atoms: C13_18  and  N4_21 
ROOT
ATOM      1  N2  <0> d           3.575  -3.730   5.977  0.00  0.00    -0.308 N 
ATOM      2  C11 <0> d           4.171  -2.844   6.800  0.00  0.00     0.320 C 
ATOM      3  O2  <0> d           4.045  -1.651   6.601  0.00  0.00    -0.247 OA
ATOM      4  N3  <0> d           4.905  -3.280   7.842  0.00  0.00    -0.340 N 
ATOM      5  H13 <0> d           3.626  -4.679   6.169  0.00  0.00     0.170 HD
ATOM      6  H14 <0> d           5.005  -4.232   8.000  0.00  0.00     0.164 HD
ENDROOT
BRANCH   1   7
ATOM      7  C7  <0> d           2.886  -3.281   4.851  0.00  0.00     0.042 A 
ATOM      8  C6  <0> d           2.190  -2.077   4.897  0.00  0.00     0.031 A 
ATOM      9  C5  <0> d           1.508  -1.631   3.787  0.00  0.00     0.019 A 
ATOM     10  C4  <0> d           1.516  -2.390   2.613  0.00  0.00     0.032 A 
ATOM     11  C9  <0> d           2.211  -3.602   2.572  0.00  0.00     0.026 A 
ATOM     12  C8  <0> d           2.895  -4.039   3.684  0.00  0.00    -0.034 A 
ATOM     13  C10 <0> d           3.650  -5.342   3.639  0.00  0.00     0.050 C 
BRANCH  10  14
ATOM     14  C3  <0> d           0.785  -1.916   1.422  0.00  0.00     0.251 C 
ATOM     15  N1  <0> d           0.116  -0.747   1.462  0.00  0.00    -0.357 N 
ATOM     16  H6  <0> d           0.113  -0.218   2.275  0.00  0.00     0.162 HD
ATOM     17  O1  <0> d           0.788  -2.580   0.403  0.00  0.00    -0.268 OA
BRANCH  15  18
ATOM     18  C2  <0> d          -0.609  -0.277   0.280  0.00  0.00     0.118 C 
ATOM     19  C1  <0> d          -1.277   1.064   0.591  0.00  0.00     0.026 C 
ENDBRANCH  15  18
ENDBRANCH  10  14
ENDBRANCH   1   7
BRANCH   4  20
ATOM     20  C12 <0> d           5.553  -2.317   8.736  0.00  0.00     0.162 C 
BRANCH  20  21
ATOM     21  C13 <0> d           6.419  -3.066   9.751  0.00  0.00     0.136 C 
ATOM     22  C14 <0> d           7.502  -3.855   9.013  0.00  0.00     0.048 C 
ATOM     23  C15 <0> d           7.077  -2.061  10.700  0.00  0.00     0.048 C 
BRANCH  21  24
ATOM     24  N4  <0> d           5.579  -3.991  10.523  0.00  0.00    -0.061 N 
ATOM     25  C20 <0> d           6.390  -4.632  11.565  0.00  0.00     0.236 C 
ATOM     26  C19 <0> d           5.540  -5.656  12.320  0.00  0.00     0.028 C 
ATOM     27  C18 <0> d           4.347  -4.945  12.965  0.00  0.00     0.003 C 
ATOM     28  C17 <0> d           3.550  -4.218  11.878  0.00  0.00     0.028 C 
ATOM     29  C16 <0> d           4.473  -3.247  11.140  0.00  0.00     0.236 C 
ATOM     30  H33 <0> d           5.204  -4.697   9.908  0.00  0.00     0.280 HD
ENDBRANCH  21  24
ENDBRANCH  20  21
ENDBRANCH   4  20
TORSDOF 6
