REMARK  6 active torsions:
REMARK  status: ('A' for Active; 'I' for Inactive)
REMARK    1  A    between atoms: C4_4  and  N1_7 
REMARK    2  A    between atoms: N1_7  and  C7_8 
REMARK    3  A    between atoms: N1_7  and  C13_16 
REMARK    4  A    between atoms: C7_8  and  C8_9 
REMARK    5  A    between atoms: C8_9  and  C12_14 
REMARK    6  A    between atoms: C12_14  and  N2_15 
ROOT
ATOM      1  N1  <0> d           2.845  -0.416  -2.411  0.00  0.00    -0.062 N 
ATOM      2  H35 <0> d           2.004  -0.325  -2.961  0.00  0.00     0.280 HD
ENDROOT
BRANCH   1   3
ATOM      3  C4  <0> d           2.720   0.390  -1.189  0.00  0.00     0.188 C 
ATOM      4  C3  <0> d           2.723   1.875  -1.555  0.00  0.00     0.033 C 
ATOM      5  C2  <0> d           2.593   2.714  -0.282  0.00  0.00     0.002 C 
ATOM      6  C1  <0> d           1.282   2.367   0.426  0.00  0.00     0.000 C 
ATOM      7  C6  <0> d           1.279   0.881   0.792  0.00  0.00     0.002 C 
ATOM      8  C5  <0> d           1.409   0.042  -0.480  0.00  0.00     0.033 C 
ENDBRANCH   1   3
BRANCH   1   9
ATOM      9  C7  <0> d           3.995   0.056  -3.192  0.00  0.00     0.249 C 
BRANCH   9  10
ATOM     10  C8  <0> d           3.840  -0.389  -4.648  0.00  0.00     0.031 C 
ATOM     11  C11 <0> d           2.499   0.115  -5.227  0.00  0.00     0.180 C 
ATOM     12  O1  <0> d           2.797   0.469  -6.595  0.00  0.00    -0.390 OA
ATOM     13  C10 <0> d           4.088   1.115  -6.548  0.00  0.00     0.168 C 
ATOM     14  C9  <0> d           4.909   0.284  -5.537  0.00  0.00     0.041 C 
BRANCH  10  15
ATOM     15  C12 <0> d           3.931  -1.912  -4.755  0.00  0.00     0.243 C 
BRANCH  15  16
ATOM     16  N2  <0> d           3.924  -2.305  -6.170  0.00  0.00    -0.079 N 
ATOM     17  H22 <0> d           3.070  -1.988  -6.603  0.00  0.00     0.274 HD
ATOM     18  H23 <0> d           4.714  -1.887  -6.639  0.00  0.00     0.274 HD
ATOM     19  H36 <0> d           3.985  -3.310  -6.241  0.00  0.00     0.274 HD
ENDBRANCH  15  16
ENDBRANCH  10  15
ENDBRANCH   9  10
ENDBRANCH   1   9
BRANCH   1  20
ATOM     20  C13 <0> d           3.043  -1.826  -2.050  0.00  0.00     0.188 C 
ATOM     21  C18 <0> d           3.561  -1.916  -0.613  0.00  0.00     0.033 C 
ATOM     22  C17 <0> d           3.767  -3.385  -0.236  0.00  0.00     0.002 C 
ATOM     23  C16 <0> d           2.436  -4.131  -0.347  0.00  0.00     0.000 C 
ATOM     24  C15 <0> d           1.918  -4.041  -1.784  0.00  0.00     0.002 C 
ATOM     25  C14 <0> d           1.712  -2.572  -2.160  0.00  0.00     0.033 C 
ENDBRANCH   1  20
TORSDOF 6
