REMARK  3 active torsions:
REMARK  status: ('A' for Active; 'I' for Inactive)
REMARK    1  A    between atoms: C2_2  and  C4_4 
REMARK    2  A    between atoms: C6_7  and  C7_8 
REMARK    3  A    between atoms: N1_10  and  N2_11 
ROOT
ATOM      1  C4  <0> d          -0.018   1.461   0.014  0.00  0.00     0.163 A 
ATOM      2  C5  <0> d           1.427   1.906   0.013  0.00  0.00     0.190 A 
ATOM      3  O1  <0> d           1.843   3.046   0.034  0.00  0.00    -0.290 OA
ATOM      4  C6  <0> d           2.198   0.714  -0.018  0.00  0.00     0.103 A 
ATOM      5  C11 <0> d           1.276  -0.427  -0.035  0.00  0.00     0.258 A 
ATOM      6  O2  <0> d           1.619  -1.594  -0.062  0.00  0.00    -0.267 OA
ATOM      7  N3  <0> d           0.002  -0.004  -0.018  0.00  0.00    -0.345 N 
ATOM      8  H19 <0> d          -0.781  -0.578  -0.024  0.00  0.00     0.163 HD
ENDROOT
BRANCH   4   9
ATOM      9  C7  <0> d           3.580   0.642  -0.029  0.00  0.00     0.036 C 
ATOM     10  C8  <0> d           4.265  -0.697   0.074  0.00  0.00     0.070 C 
ATOM     11  N1  <0> d           4.313   1.767  -0.132  0.00  0.00    -0.323 N 
ATOM     12  H12 <0> d           3.876   2.633  -0.123  0.00  0.00     0.180 HD
BRANCH  11  13
ATOM     13  N2  <0> d           5.672   1.689  -0.249  0.00  0.00    -0.240 NA
ATOM     14  C9  <0> d           6.120   2.218  -1.544  0.00  0.00     0.135 C 
ATOM     15  C10 <0> d           6.336   2.384   0.862  0.00  0.00     0.135 C 
ENDBRANCH  11  13
ENDBRANCH   4   9
BRANCH   1  16
ATOM     16  C2  <0> d          -0.735   2.003  -1.224  0.00  0.00     0.008 C 
ATOM     17  C1  <0> d          -2.184   1.512  -1.231  0.00  0.00     0.012 C 
ATOM     18  C3  <0> d          -0.716   3.533  -1.196  0.00  0.00     0.012 C 
ENDBRANCH   1  16
TORSDOF 3
