REMARK  4 active torsions:
REMARK  status: ('A' for Active; 'I' for Inactive)
REMARK    1  A    between atoms: C2_2  and  N1_3 
REMARK    2  A    between atoms: C4_5  and  N3_8 
REMARK    3  A    between atoms: N3_8  and  C6_9 
REMARK    4  A    between atoms: N4_13  and  C10_16 
ROOT
ATOM      1  C6  <0> d          -5.489  -2.562  -0.673  0.00  0.00     0.183 A 
ATOM      2  C7  <0> d          -6.444  -3.022  -1.794  0.00  0.00     0.138 A 
ATOM      3  C8  <0> d          -6.965  -4.351  -1.292  0.00  0.00     0.229 A 
ATOM      4  O1  <0> d          -7.754  -5.062  -1.876  0.00  0.00    -0.273 OA
ATOM      5  N4  <0> d          -6.417  -4.617  -0.100  0.00  0.00    -0.282 N 
ATOM      6  C9  <0> d          -5.570  -3.676   0.347  0.00  0.00     0.250 A 
ATOM      7  O2  <0> d          -4.966  -3.712   1.397  0.00  0.00    -0.271 OA
ENDROOT
BRANCH   1   8
ATOM      8  N3  <0> d          -4.122  -2.429  -1.183  0.00  0.00    -0.374 N 
ATOM      9  H9  <0> d          -3.851  -2.916  -1.977  0.00  0.00     0.160 HD
BRANCH   8  10
ATOM     10  C4  <0> d          -3.202  -1.593  -0.521  0.00  0.00     0.065 A 
ATOM     11  C3  <0> d          -1.912  -1.379  -0.884  0.00  0.00     0.142 A 
ATOM     12  N1  <0> d          -1.372  -0.511   0.012  0.00  0.00    -0.279 N 
ATOM     13  N2  <0> d          -2.362  -0.193   0.951  0.00  0.00    -0.183 NA
ATOM     14  C5  <0> d          -3.457  -0.834   0.630  0.00  0.00     0.169 A 
BRANCH  12  15
ATOM     15  C2  <0> d           0.002  -0.004   0.002  0.00  0.00     0.146 C 
ATOM     16  C1  <0> d          -0.019   1.526   0.010  0.00  0.00     0.028 C 
ENDBRANCH  12  15
ENDBRANCH   8  10
ENDBRANCH   1   8
BRANCH   5  17
ATOM     17  C10 <0> d          -6.717  -5.835   0.657  0.00  0.00     0.096 C 
ATOM     18  C15 <0> d          -6.321  -7.060  -0.170  0.00  0.00     0.026 C 
ATOM     19  C14 <0> d          -6.635  -8.332   0.620  0.00  0.00     0.002 C 
ATOM     20  C13 <0> d          -8.133  -8.386   0.925  0.00  0.00     0.000 C 
ATOM     21  C12 <0> d          -8.530  -7.162   1.752  0.00  0.00     0.002 C 
ATOM     22  C11 <0> d          -8.216  -5.889   0.962  0.00  0.00     0.026 C 
ENDBRANCH   5  17
TORSDOF 4
