REMARK  3 active torsions:
REMARK  status: ('A' for Active; 'I' for Inactive)
REMARK    1  A    between atoms: C2_2  and  C3_3 
REMARK    2  A    between atoms: C2_2  and  N2_9 
REMARK       I    between atoms: N2_9  and  C8_10 
REMARK    3  A    between atoms: C8_10  and  C9_12 
ROOT
ATOM      1  C1  <0> d          -0.019   1.526   0.010  0.00  0.00     0.032 C 
ATOM      2  C2  <0> d           0.002  -0.004   0.002  0.00  0.00     0.084 C 
ENDROOT
BRANCH   2   3
ATOM      3  C3  <0> d           0.742  -0.511   1.242  0.00  0.00     0.011 C 
ATOM      4  C7  <0> d           0.026  -0.018   2.502  0.00  0.00     0.034 C 
ATOM      5  C6  <0> d           0.725  -0.593   3.737  0.00  0.00     0.232 C 
ATOM      6  N1  <0> d           0.680  -2.060   3.689  0.00  0.00    -0.075 N 
ATOM      7  C5  <0> d           1.426  -2.543   2.521  0.00  0.00     0.232 C 
ATOM      8  H11 <0> d          -0.279  -2.364   3.623  0.00  0.00     0.277 HD
ATOM      9  H23 <0> d           1.094  -2.435   4.529  0.00  0.00     0.277 HD
ATOM     10  C4  <0> d           0.755  -2.042   1.240  0.00  0.00     0.034 C 
ENDBRANCH   2   3
BRANCH   2  11
ATOM     11  N2  <0> d           0.688  -0.476  -1.203  0.00  0.00    -0.356 N 
ATOM     12  C8  <0> d           0.006  -0.608  -2.358  0.00  0.00     0.224 C 
ATOM     13  O1  <0> d          -1.175  -0.336  -2.400  0.00  0.00    -0.273 OA
ATOM     14  H16 <0> d           1.632  -0.695  -1.170  0.00  0.00     0.162 HD
BRANCH  12  15
ATOM     15  C9  <0> d           0.712  -1.094  -3.598  0.00  0.00     0.103 C 
ATOM     16  C12 <0> d           1.800  -0.092  -4.040  0.00  0.00     0.181 C 
ATOM     17  O2  <0> d           1.747  -0.004  -5.472  0.00  0.00    -0.390 OA
ATOM     18  C11 <0> d           0.748  -0.900  -5.983  0.00  0.00     0.168 C 
ATOM     19  C10 <0> d          -0.252  -1.100  -4.816  0.00  0.00     0.042 C 
ENDBRANCH  12  15
ENDBRANCH   2  11
TORSDOF 3
