REMARK  3 active torsions:
REMARK  status: ('A' for Active; 'I' for Inactive)
REMARK    1  A    between atoms: C8_8  and  N2_12 
REMARK    2  A    between atoms: N2_12  and  S1_13 
REMARK    3  A    between atoms: S1_13  and  N3_16 
ROOT
ATOM      1  C1  <0> d          -0.019   1.526   0.010  0.00  0.00     0.000 C 
ATOM      2  C2  <0> d           1.417   2.055  -0.000  0.00  0.00     0.002 C 
ATOM      3  C3  <0> d           2.133   1.561  -1.260  0.00  0.00     0.039 C 
ATOM      4  C4  <0> d           2.154   0.031  -1.268  0.00  0.00     0.127 C 
ATOM      5  C5  <0> d           0.718  -0.498  -1.257  0.00  0.00     0.039 C 
ATOM      6  C6  <0> d           0.002  -0.004   0.002  0.00  0.00     0.002 C 
ATOM      7  C7  <0> d           2.867  -0.459  -2.530  0.00  0.00     0.064 C 
ATOM      8  C8  <0> d           2.888  -1.990  -2.537  0.00  0.00     0.098 C 
ATOM      9  C9  <0> d           3.567  -2.487  -1.257  0.00  0.00     0.053 C 
ATOM     10  C10 <0> d           2.827  -1.922  -0.042  0.00  0.00     0.235 C 
ATOM     11  N1  <0> d           2.865  -0.456  -0.080  0.00  0.00    -0.066 N 
ATOM     12  H18 <0> d           3.825  -0.146  -0.114  0.00  0.00     0.278 HD
ATOM     13  H28 <0> d           2.424  -0.087   0.749  0.00  0.00     0.278 HD
ENDROOT
BRANCH   8  14
ATOM     14  N2  <0> d           3.633  -2.466  -3.705  0.00  0.00    -0.298 N 
ATOM     15  H19 <0> d           4.401  -1.967  -4.026  0.00  0.00     0.174 HD
BRANCH  14  16
ATOM     16  S1  <0> d           3.164  -3.853  -4.478  0.00  0.00     0.317 S 
ATOM     17  O1  <0> d           4.056  -4.030  -5.571  0.00  0.00    -0.183 OA
ATOM     18  O2  <0> d           2.989  -4.840  -3.471  0.00  0.00    -0.183 OA
BRANCH  16  19
ATOM     19  N3  <0> d           1.668  -3.569  -5.129  0.00  0.00    -0.290 N 
ATOM     20  C14 <0> d           1.524  -3.029  -6.490  0.00  0.00     0.163 C 
ATOM     21  C13 <0> d           0.578  -1.829  -6.442  0.00  0.00     0.188 C 
ATOM     22  O3  <0> d          -0.630  -2.207  -5.777  0.00  0.00    -0.388 OA
ATOM     23  C12 <0> d          -0.450  -2.599  -4.414  0.00  0.00     0.188 C 
ATOM     24  C11 <0> d           0.444  -3.844  -4.361  0.00  0.00     0.163 C 
ENDBRANCH  16  19
ENDBRANCH  14  16
ENDBRANCH   8  14
TORSDOF 3
