REMARK  8 active torsions:
REMARK  status: ('A' for Active; 'I' for Inactive)
REMARK    1  A    between atoms: C5_5  and  N2_14 
REMARK    2  A    between atoms: C7_7  and  C8_8 
REMARK       I    between atoms: C8_8  and  N1_10 
REMARK    3  A    between atoms: N1_10  and  C9_11 
REMARK       I    between atoms: N2_14  and  C12_15 
REMARK       I    between atoms: C12_15  and  N3_17 
REMARK    4  A    between atoms: N3_17  and  C13_18 
REMARK    5  A    between atoms: C13_18  and  C14_19 
REMARK    6  A    between atoms: C14_19  and  C15_20 
REMARK    7  A    between atoms: C14_19  and  N4_24 
REMARK    8  A    between atoms: C15_20  and  C16_21 
ROOT
ATOM      1  N2  <0> d          -0.795  -4.037  -0.593  0.00  0.00    -0.309 N 
ATOM      2  C12 <0> d          -0.404  -4.849  -1.595  0.00  0.00     0.320 C 
ATOM      3  O2  <0> d          -0.154  -4.385  -2.691  0.00  0.00    -0.247 OA
ATOM      4  N3  <0> d          -0.288  -6.175  -1.382  0.00  0.00    -0.341 N 
ATOM      5  H16 <0> d          -1.056  -4.414   0.263  0.00  0.00     0.170 HD
ATOM      6  H17 <0> d          -0.487  -6.545  -0.508  0.00  0.00     0.164 HD
ENDROOT
BRANCH   1   7
ATOM      7  C5  <0> d          -0.827  -2.651  -0.786  0.00  0.00     0.037 A 
ATOM      8  C4  <0> d          -0.495  -1.796   0.258  0.00  0.00     0.030 A 
ATOM      9  C3  <0> d          -0.523  -0.427   0.071  0.00  0.00     0.010 A 
ATOM     10  C2  <0> d          -0.882   0.100  -1.153  0.00  0.00    -0.046 A 
ATOM     11  C1  <0> d          -0.912   1.594  -1.350  0.00  0.00     0.049 C 
ATOM     12  C7  <0> d          -1.223  -0.750  -2.206  0.00  0.00     0.040 A 
ATOM     13  C6  <0> d          -1.189  -2.132  -2.019  0.00  0.00     0.047 A 
BRANCH  12  14
ATOM     14  C8  <0> d          -1.613  -0.188  -3.516  0.00  0.00     0.252 C 
ATOM     15  O1  <0> d          -1.601   1.015  -3.690  0.00  0.00    -0.268 OA
ATOM     16  N1  <0> d          -1.983  -1.009  -4.519  0.00  0.00    -0.353 N 
ATOM     17  H8  <0> d          -1.992  -1.969  -4.381  0.00  0.00     0.163 HD
BRANCH  16  18
ATOM     18  C9  <0> d          -2.369  -0.452  -5.818  0.00  0.00     0.076 C 
ATOM     19  C10 <0> d          -2.139  -1.498  -6.910  0.00  0.00     0.032 C 
ATOM     20  C11 <0> d          -3.849  -0.065  -5.786  0.00  0.00     0.032 C 
ENDBRANCH  16  18
ENDBRANCH  12  14
ENDBRANCH   1   7
BRANCH   4  21
ATOM     21  C13 <0> d           0.138  -7.057  -2.471  0.00  0.00     0.157 C 
BRANCH  21  22
ATOM     22  C14 <0> d           0.076  -8.512  -2.003  0.00  0.00     0.206 C 
BRANCH  22  23
ATOM     23  C15 <0> d           0.606  -9.427  -3.109  0.00  0.00     0.039 C 
BRANCH  23  24
ATOM     24  C16 <0> d          -0.298  -9.317  -4.338  0.00  0.00    -0.021 C 
ATOM     25  C17 <0> d           0.320 -10.101  -5.497  0.00  0.00     0.009 C 
ATOM     26  C18 <0> d          -1.677  -9.894  -4.010  0.00  0.00     0.009 C 
ENDBRANCH  23  24
ENDBRANCH  22  23
BRANCH  22  27
ATOM     27  N4  <0> d           0.900  -8.673  -0.797  0.00  0.00    -0.065 N 
ATOM     28  C22 <0> d           2.316  -8.375  -1.104  0.00  0.00     0.235 C 
ATOM     29  C21 <0> d           3.173  -9.336  -0.259  0.00  0.00     0.029 C 
ATOM     30  C20 <0> d           2.158 -10.210   0.513  0.00  0.00     0.029 C 
ATOM     31  C19 <0> d           0.874 -10.088  -0.344  0.00  0.00     0.235 C 
ATOM     32  H37 <0> d           0.568  -8.066  -0.064  0.00  0.00     0.280 HD
ENDBRANCH  22  27
ENDBRANCH  21  22
ENDBRANCH   4  21
TORSDOF 8
