REMARK  7 active torsions:
REMARK  status: ('A' for Active; 'I' for Inactive)
REMARK    1  A    between atoms: C2_2  and  O1_3 
REMARK    2  A    between atoms: O1_3  and  C3_4 
REMARK    3  A    between atoms: C3_4  and  C4_5 
REMARK    4  A    between atoms: C4_5  and  C5_6 
REMARK    5  A    between atoms: C5_6  and  N1_7 
REMARK    6  A    between atoms: C7_10  and  C18_24 
REMARK       I    between atoms: C18_24  and  N5_26 
REMARK    7  A    between atoms: N5_26  and  C19_27 
ROOT
ATOM      1  N1  <0> d           1.284   2.115   0.003  0.00  0.00    -0.316 N 
ATOM      2  C6  <0> d           2.436   1.358   0.006  0.00  0.00     0.118 A 
ATOM      3  N2  <0> d           3.607   1.942   0.017  0.00  0.00    -0.384 N 
ATOM      4  C7  <0> d           2.342  -0.111  -0.002  0.00  0.00     0.076 A 
ATOM      5  C8  <0> d           1.089  -0.706  -0.013  0.00  0.00     0.042 A 
ATOM      6  C9  <0> d          -0.058   0.102  -0.015  0.00  0.00     0.080 A 
ATOM      7  C10 <0> d           0.051   1.511  -0.007  0.00  0.00     0.149 A 
ATOM      8  N3  <0> d          -1.052   2.247  -0.005  0.00  0.00    -0.212 NA
ATOM      9  C11 <0> d          -2.265   1.692  -0.021  0.00  0.00     0.139 A 
ATOM     10  C12 <0> d          -3.397   2.526  -0.024  0.00  0.00     0.052 A 
ATOM     11  C13 <0> d          -4.642   1.971  -0.034  0.00  0.00     0.012 A 
ATOM     12  C14 <0> d          -4.777   0.576  -0.042  0.00  0.00    -0.046 A 
ATOM     13  C15 <0> d          -3.678  -0.211  -0.039  0.00  0.00     0.108 A 
ATOM     14  N4  <0> d          -2.429   0.335  -0.029  0.00  0.00    -0.272 N 
ATOM     15  C16 <0> d          -1.352  -0.482  -0.026  0.00  0.00     0.267 A 
ATOM     16  O2  <0> d          -1.488  -1.692  -0.033  0.00  0.00    -0.267 OA
ATOM     17  C17 <0> d          -6.149  -0.048  -0.053  0.00  0.00     0.049 C 
ATOM     18  H12 <0> d           4.525   1.335   0.019  0.00  0.00     0.157 HD
ATOM     19  H32 <0> d           3.674   3.040   0.022  0.00  0.00     0.157 HD
ENDROOT
BRANCH   4  20
ATOM     20  C18 <0> d           3.557  -0.933   0.000  0.00  0.00     0.255 C 
ATOM     21  O3  <0> d           4.650  -0.406  -0.096  0.00  0.00    -0.268 OA
ATOM     22  N5  <0> d           3.463  -2.273   0.109  0.00  0.00    -0.352 N 
ATOM     23  H20 <0> d           2.476  -2.750   0.196  0.00  0.00     0.163 HD
BRANCH  22  24
ATOM     24  C19 <0> d           4.676  -3.095   0.111  0.00  0.00     0.084 C 
ATOM     25  C24 <0> d           4.399  -4.412   0.839  0.00  0.00     0.025 C 
ATOM     26  C23 <0> d           5.666  -5.270   0.842  0.00  0.00     0.002 C 
ATOM     27  C22 <0> d           6.086  -5.563  -0.600  0.00  0.00     0.000 C 
ATOM     28  C21 <0> d           6.363  -4.246  -1.328  0.00  0.00     0.002 C 
ATOM     29  C20 <0> d           5.096  -3.388  -1.331  0.00  0.00     0.025 C 
ENDBRANCH  22  24
ENDBRANCH   4  20
BRANCH   1  30
ATOM     30  C5  <0> d           1.376   3.577   0.011  0.00  0.00     0.134 C 
BRANCH  30  31
ATOM     31  C4  <0> d           1.400   4.079   1.456  0.00  0.00     0.046 C 
BRANCH  31  32
ATOM     32  C3  <0> d           1.496   5.606   1.464  0.00  0.00     0.169 C 
BRANCH  32  33
ATOM     33  O1  <0> d           1.518   6.075   2.814  0.00  0.00    -0.391 OA
BRANCH  33  34
ATOM     34  C2  <0> d           1.607   7.496   2.935  0.00  0.00     0.163 C 
ATOM     35  C1  <0> d           1.623   7.882   4.415  0.00  0.00     0.033 C 
ENDBRANCH  33  34
ENDBRANCH  32  33
ENDBRANCH  31  32
ENDBRANCH  30  31
ENDBRANCH   1  30
TORSDOF 7
