REMARK  5 active torsions:
REMARK  status: ('A' for Active; 'I' for Inactive)
REMARK    1  A    between atoms: O1_2  and  C2_3 
REMARK    2  A    between atoms: C5_6  and  C16_20 
REMARK    3  A    between atoms: C7_8  and  C8_9 
REMARK    4  A    between atoms: C8_9  and  S1_10 
REMARK    5  A    between atoms: S1_10  and  C9_11 
ROOT
ATOM      1  C2  <0> d          -1.200  -0.637   0.010  0.00  0.00     0.075 A 
ATOM      2  C3  <0> d          -2.375   0.101   0.019  0.00  0.00     0.038 A 
ATOM      3  C4  <0> d          -3.596  -0.545   0.027  0.00  0.00     0.012 A 
ATOM      4  C5  <0> d          -3.648  -1.927   0.026  0.00  0.00    -0.021 A 
ATOM      5  C6  <0> d          -2.479  -2.665   0.017  0.00  0.00     0.020 A 
ATOM      6  C7  <0> d          -1.255  -2.023   0.003  0.00  0.00    -0.015 A 
ENDROOT
BRANCH   6   7
ATOM      7  C8  <0> d           0.018  -2.829  -0.013  0.00  0.00     0.123 C 
BRANCH   7   8
ATOM      8  S1  <0> d           0.545  -3.161   1.691  0.00  0.00    -0.090 SA
BRANCH   8   9
ATOM      9  C9  <0> d           2.026  -4.098   1.504  0.00  0.00     0.137 C 
ATOM     10  N2  <0> d           2.732  -4.544   2.539  0.00  0.00    -0.364 N 
ATOM     11  C15 <0> d           3.970  -5.130   2.011  0.00  0.00     0.106 C 
ATOM     12  H21 <0> d           2.475  -4.492   3.473  0.00  0.00     0.162 HD
ATOM     13  C10 <0> d           3.673  -5.340   0.536  0.00  0.00     0.106 C 
ATOM     14  C14 <0> d           4.441  -6.325   2.799  0.00  0.00     0.027 C 
ATOM     15  N1  <0> d           2.534  -4.412   0.319  0.00  0.00    -0.364 N 
ATOM     16  C11 <0> d           3.217  -6.733   0.147  0.00  0.00     0.027 C 
ATOM     17  H28 <0> d           2.216  -4.092  -0.540  0.00  0.00     0.162 HD
ATOM     18  C12 <0> d           3.976  -7.826   0.887  0.00  0.00     0.002 C 
ATOM     19  C13 <0> d           3.761  -7.628   2.392  0.00  0.00     0.002 C 
ENDBRANCH   8   9
ENDBRANCH   7   8
ENDBRANCH   6   7
BRANCH   1  20
ATOM     20  O1  <0> d           0.002  -0.004   0.002  0.00  0.00    -0.355 OA
ATOM     21  C1  <0> d          -0.017   1.425   0.010  0.00  0.00     0.210 C 
ENDBRANCH   1  20
BRANCH   4  22
ATOM     22  C16 <0> d          -4.981  -2.629   0.034  0.00  0.00     0.270 C 
ATOM     23  N5  <0> d          -5.912  -1.915   0.924  0.00  0.00    -0.061 N 
ATOM     24  C21 <0> d          -7.264  -2.472   0.795  0.00  0.00     0.239 C 
ATOM     25  H27 <0> d          -5.601  -2.009   1.879  0.00  0.00     0.278 HD
ATOM     26  H29 <0> d          -5.929  -0.937   0.674  0.00  0.00     0.278 HD
ATOM     27  C20 <0> d          -7.871  -2.058  -0.553  0.00  0.00     0.089 C 
ATOM     28  C18 <0> d          -6.860  -2.375  -1.628  0.00  0.00     0.062 A 
ATOM     29  C17 <0> d          -5.560  -2.635  -1.356  0.00  0.00     0.070 A 
ATOM     30  N3  <0> d          -7.032  -2.460  -2.946  0.00  0.00    -0.246 NA
ATOM     31  N4  <0> d          -4.947  -2.883  -2.543  0.00  0.00    -0.351 N 
ATOM     32  C19 <0> d          -5.890  -2.765  -3.508  0.00  0.00     0.207 A 
ATOM     33  H4  <0> d          -4.012  -3.104  -2.675  0.00  0.00     0.166 HD
ENDBRANCH   4  22
TORSDOF 5
