REMARK  5 active torsions:
REMARK  status: ('A' for Active; 'I' for Inactive)
REMARK       I    between atoms: C2_2  and  N1_4 
REMARK    1  A    between atoms: N1_4  and  C4_6 
REMARK    2  A    between atoms: C7_9  and  N2_12 
REMARK       I    between atoms: N2_12  and  C10_13 
REMARK    3  A    between atoms: C10_13  and  C11_15 
REMARK    4  A    between atoms: C11_15  and  C12_16 
REMARK    5  A    between atoms: C14_19  and  N4_21 
ROOT
ATOM      1  N2  <0> d          -1.501  -6.254  -0.009  0.00  0.00    -0.327 N 
ATOM      2  C10 <0> d          -2.698  -6.854  -0.157  0.00  0.00     0.227 C 
ATOM      3  O2  <0> d          -3.711  -6.187  -0.196  0.00  0.00    -0.273 OA
ATOM      4  H11 <0> d          -0.698  -6.790   0.088  0.00  0.00     0.169 HD
ENDROOT
BRANCH   2   5
ATOM      5  C11 <0> d          -2.780  -8.354  -0.276  0.00  0.00     0.163 C 
BRANCH   5   6
ATOM      6  C12 <0> d          -4.220  -8.769  -0.431  0.00  0.00     0.052 A 
ATOM      7  N3  <0> d          -4.948  -9.135   0.607  0.00  0.00    -0.228 NA
ATOM      8  C14 <0> d          -6.207  -9.491   0.463  0.00  0.00     0.175 A 
ATOM      9  S1  <0> d          -6.460  -9.343  -1.194  0.00  0.00    -0.062 SA
ATOM     10  C13 <0> d          -4.824  -8.787  -1.645  0.00  0.00     0.081 A 
BRANCH   8  11
ATOM     11  N4  <0> d          -7.107  -9.895   1.442  0.00  0.00    -0.296 N 
ATOM     12  C18 <0> d          -6.815  -9.984   2.751  0.00  0.00     0.225 C 
ATOM     13  C17 <0> d          -8.026 -10.461   3.523  0.00  0.00     0.105 C 
ATOM     14  O3  <0> d          -5.739  -9.718   3.242  0.00  0.00    -0.273 OA
ATOM     15  C16 <0> d          -8.956 -11.052   2.438  0.00  0.00     0.029 C 
ATOM     16  C15 <0> d          -8.497 -10.286   1.178  0.00  0.00     0.135 C 
ENDBRANCH   8  11
ENDBRANCH   5   6
ENDBRANCH   2   5
BRANCH   1  17
ATOM     17  C7  <0> d          -1.415  -4.856   0.006  0.00  0.00     0.034 A 
ATOM     18  C6  <0> d          -0.314  -4.221  -0.554  0.00  0.00     0.032 A 
ATOM     19  C5  <0> d          -0.230  -2.844  -0.540  0.00  0.00     0.032 A 
ATOM     20  C4  <0> d          -1.247  -2.092   0.035  0.00  0.00     0.036 A 
ATOM     21  C9  <0> d          -2.345  -2.726   0.600  0.00  0.00     0.032 A 
ATOM     22  C8  <0> d          -2.432  -4.104   0.581  0.00  0.00     0.032 A 
BRANCH  20  23
ATOM     23  N1  <0> d          -1.161  -0.694   0.049  0.00  0.00    -0.323 N 
ATOM     24  C2  <0> d          -1.194  -0.005  -1.109  0.00  0.00     0.220 C 
ATOM     25  C1  <0> d          -1.217   1.502  -1.088  0.00  0.00     0.117 C 
ATOM     26  O1  <0> d          -1.205  -0.597  -2.167  0.00  0.00    -0.274 OA
ATOM     27  C3  <0> d          -1.037   0.019   1.323  0.00  0.00     0.159 C 
ENDBRANCH  20  23
ENDBRANCH   1  17
TORSDOF 5
