REMARK  7 active torsions:
REMARK  status: ('A' for Active; 'I' for Inactive)
REMARK    1  A    between atoms: C7_7  and  N1_8 
REMARK       I    between atoms: N1_8  and  C8_9 
REMARK    2  A    between atoms: C8_9  and  C9_11 
REMARK    3  A    between atoms: C9_11  and  O2_13 
REMARK    4  A    between atoms: O2_13  and  C11_14 
REMARK    5  A    between atoms: C11_14  and  C12_16 
REMARK    6  A    between atoms: C14_18  and  O5_33 
REMARK       I    between atoms: N2_20  and  C16_21 
REMARK    7  A    between atoms: C16_21  and  C17_23 
ROOT
ATOM      1  C12 <0> d           0.404  -1.169   8.254  0.00  0.00     0.189 C 
ATOM      2  C13 <0> d          -1.081  -1.399   8.604  0.00  0.00     0.069 C 
ATOM      3  C14 <0> d          -1.086  -1.341  10.154  0.00  0.00     0.138 C 
ATOM      4  C15 <0> d          -0.011  -0.261  10.429  0.00  0.00     0.158 C 
ATOM      5  N2  <0> d           1.024  -0.487   9.400  0.00  0.00    -0.335 N 
ATOM      6  C16 <0> d           2.321  -0.131   9.493  0.00  0.00     0.229 C 
ATOM      7  O4  <0> d           3.064  -0.294   8.549  0.00  0.00    -0.272 OA
ENDROOT
BRANCH   1   8
ATOM      8  C11 <0> d           0.512  -0.305   7.024  0.00  0.00     0.282 C 
ATOM      9  O3  <0> d           1.058   0.771   7.088  0.00  0.00    -0.263 OA
BRANCH   8  10
ATOM     10  O2  <0> d           0.003  -0.731   5.858  0.00  0.00    -0.305 OA
BRANCH  10  11
ATOM     11  C9  <0> d           0.141   0.139   4.732  0.00  0.00     0.220 C 
ATOM     12  C10 <0> d          -1.071   1.070   4.655  0.00  0.00     0.050 C 
BRANCH  11  13
ATOM     13  C8  <0> d           0.226  -0.681   3.471  0.00  0.00     0.251 C 
ATOM     14  N1  <0> d           0.462  -0.077   2.289  0.00  0.00    -0.324 N 
ATOM     15  H11 <0> d           0.634   0.877   2.258  0.00  0.00     0.169 HD
ATOM     16  O1  <0> d           0.082  -1.884   3.519  0.00  0.00    -0.270 OA
BRANCH  14  17
ATOM     17  C7  <0> d           0.457  -0.826   1.107  0.00  0.00     0.040 A 
ATOM     18  C2  <0> d           0.010  -0.255  -0.076  0.00  0.00    -0.035 A 
ATOM     19  C1  <0> d          -0.471   1.173  -0.090  0.00  0.00     0.050 C 
ATOM     20  C3  <0> d           0.012  -0.995  -1.243  0.00  0.00     0.009 A 
ATOM     21  C4  <0> d           0.453  -2.305  -1.231  0.00  0.00     0.001 A 
ATOM     22  C5  <0> d           0.894  -2.879  -0.052  0.00  0.00     0.002 A 
ATOM     23  C6  <0> d           0.895  -2.144   1.117  0.00  0.00     0.030 A 
ENDBRANCH  14  17
ENDBRANCH  11  13
ENDBRANCH  10  11
ENDBRANCH   8  10
ENDBRANCH   1   8
BRANCH   6  24
ATOM     24  C17 <0> d           2.846   0.472  10.771  0.00  0.00     0.042 C 
ATOM     25  C22 <0> d           4.311   0.873  10.581  0.00  0.00     0.024 C 
ATOM     26  C21 <0> d           4.844   1.484  11.878  0.00  0.00    -0.013 C 
ATOM     27  C20 <0> d           4.739   0.457  13.007  0.00  0.00     0.009 C 
ATOM     28  C23 <0> d           4.019   2.722  12.236  0.00  0.00     0.009 C 
ATOM     29  C19 <0> d           3.274   0.056  13.197  0.00  0.00    -0.013 C 
ATOM     30  C18 <0> d           2.741  -0.555  11.900  0.00  0.00     0.024 C 
ATOM     31  C25 <0> d           2.449   1.294  13.555  0.00  0.00     0.009 C 
ATOM     32  C24 <0> d           2.554   2.321  12.425  0.00  0.00    -0.013 C 
ATOM     33  C26 <0> d           2.021   1.709  11.128  0.00  0.00     0.024 C 
ENDBRANCH   6  24
BRANCH   3  34
ATOM     34  O5  <0> d          -0.704  -2.599  10.715  0.00  0.00    -0.394 OA
ATOM     35  H34 <0> d          -0.693  -2.611  11.682  0.00  0.00     0.210 HD
ENDBRANCH   3  34
TORSDOF 7
