REMARK  1 active torsions:
REMARK  status: ('A' for Active; 'I' for Inactive)
REMARK    1  A    between atoms: C3_3  and  C6_7 
ROOT
ATOM      1  C6  <0> d           3.588   1.936  -1.203  0.00  0.00     0.081 A 
ATOM      2  N2  <0> d           4.497   1.706  -0.297  0.00  0.00    -0.249 NA
ATOM      3  C7  <0> d           5.750   2.166  -0.399  0.00  0.00     0.050 A 
ATOM      4  C8  <0> d           5.990   2.882  -1.520  0.00  0.00     0.023 A 
ATOM      5  S1  <0> d           4.416   2.852  -2.347  0.00  0.00    -0.076 SA
ATOM      6  C9  <0> d           7.244   3.542  -2.002  0.00  0.00     0.188 C 
ATOM      7  S2  <0> d           8.397   3.669  -0.599  0.00  0.00     0.149 S 
ATOM      8  O1  <0> d           9.720   3.782  -1.105  0.00  0.00    -0.228 OA
ATOM      9  O2  <0> d           7.911   4.652   0.304  0.00  0.00    -0.228 OA
ATOM     10  C10 <0> d           8.200   2.027   0.159  0.00  0.00     0.147 C 
ATOM     11  C11 <0> d           6.777   1.889   0.686  0.00  0.00     0.075 C 
ENDROOT
BRANCH   1  12
ATOM     12  C3  <0> d           2.149   1.487  -1.223  0.00  0.00     0.070 C 
ATOM     13  C2  <0> d           1.420   2.051  -0.001  0.00  0.00     0.015 C 
ATOM     14  C1  <0> d          -0.019   1.526   0.010  0.00  0.00     0.028 C 
ATOM     15  C5  <0> d           0.002  -0.004   0.002  0.00  0.00     0.232 C 
ATOM     16  N1  <0> d           0.689  -0.481  -1.204  0.00  0.00    -0.074 N 
ATOM     17  C4  <0> d           2.090  -0.042  -1.186  0.00  0.00     0.243 C 
ATOM     18  H8  <0> d           0.231  -0.107  -2.021  0.00  0.00     0.277 HD
ATOM     19  H17 <0> d           0.654  -1.489  -1.234  0.00  0.00     0.277 HD
ENDBRANCH   1  12
TORSDOF 1
