REMARK  4 active torsions:
REMARK  status: ('A' for Active; 'I' for Inactive)
REMARK    1  A    between atoms: C2_2  and  C3_3 
REMARK    2  A    between atoms: N1_5  and  C7_9 
REMARK    3  A    between atoms: C7_9  and  C12_15 
REMARK    4  A    between atoms: C12_15  and  N2_16 
ROOT
ATOM      1  C7  <0> d           1.284  -3.957  -2.635  0.00  0.00     0.187 C 
ATOM      2  C8  <0> d           1.858  -4.632  -1.386  0.00  0.00     0.070 C 
ATOM      3  C9  <0> d           1.818  -6.151  -1.572  0.00  0.00     0.170 C 
ATOM      4  O2  <0> d           2.552  -6.505  -2.746  0.00  0.00    -0.391 OA
ATOM      5  C10 <0> d           2.032  -5.941  -3.952  0.00  0.00     0.170 C 
ATOM      6  C11 <0> d           2.081  -4.414  -3.861  0.00  0.00     0.070 C 
ENDROOT
BRANCH   1   7
ATOM      7  N1  <0> d           1.388  -2.498  -2.498  0.00  0.00     0.104 N 
ATOM      8  C4  <0> d           0.633  -2.024  -1.328  0.00  0.00     0.305 C 
ATOM      9  C3  <0> d           0.718  -0.497  -1.257  0.00  0.00     0.149 C 
ATOM     10  O1  <0> d           2.092  -0.103  -1.210  0.00  0.00    -0.382 OA
ATOM     11  C6  <0> d           2.857  -0.548  -2.334  0.00  0.00     0.198 C 
ATOM     12  C5  <0> d           2.793  -2.075  -2.416  0.00  0.00     0.299 C 
BRANCH   9  13
ATOM     13  C2  <0> d           0.002  -0.004   0.002  0.00  0.00     0.029 C 
ATOM     14  C1  <0> d          -0.019   1.526   0.010  0.00  0.00     0.007 C 
ENDBRANCH   9  13
ENDBRANCH   1   7
BRANCH   1  15
ATOM     15  C12 <0> d          -0.185  -4.352  -2.804  0.00  0.00     0.271 C 
BRANCH  15  16
ATOM     16  N2  <0> d          -0.731  -3.707  -4.005  0.00  0.00    -0.077 N 
ATOM     17  H23 <0> d          -1.699  -3.968  -4.116  0.00  0.00     0.274 HD
ATOM     18  H24 <0> d          -0.661  -2.705  -3.911  0.00  0.00     0.274 HD
ATOM     19  H25 <0> d          -0.207  -4.006  -4.814  0.00  0.00     0.274 HD
ENDBRANCH  15  16
ENDBRANCH   1  15
TORSDOF 4
