REMARK  4 active torsions:
REMARK  status: ('A' for Active; 'I' for Inactive)
REMARK    1  A    between atoms: C8_12  and  C9_13 
REMARK       I    between atoms: C9_13  and  N3_15 
REMARK    2  A    between atoms: N3_15  and  C11_17 
REMARK    3  A    between atoms: C11_17  and  C12_18 
REMARK       I    between atoms: C12_18  and  N4_20 
REMARK    4  A    between atoms: N4_20  and  C13_21 
ROOT
ATOM      1  C9  <0> d           0.120  -0.595   1.135  0.00  0.00     0.261 C 
ATOM      2  O2  <0> d           0.465  -1.762   1.126  0.00  0.00    -0.267 OA
ATOM      3  N3  <0> d          -0.238   0.011  -0.014  0.00  0.00    -0.343 N 
ATOM      4  C10 <0> d          -0.646   1.418  -0.004  0.00  0.00     0.153 C 
ENDROOT
BRANCH   1   5
ATOM      5  C8  <0> d           0.095   0.152   2.397  0.00  0.00     0.082 A 
ATOM      6  C2  <0> d           0.288  -0.312   3.665  0.00  0.00    -0.021 A 
ATOM      7  C1  <0> d           0.572  -1.774   3.899  0.00  0.00     0.051 C 
ATOM      8  C3  <0> d           0.227   0.571   4.745  0.00  0.00     0.075 A 
ATOM      9  C6  <0> d           0.407   0.297   6.189  0.00  0.00     0.261 A 
ATOM     10  C4  <0> d          -0.052   1.919   4.423  0.00  0.00     0.116 A 
ATOM     11  N2  <0> d           0.294   1.325   7.053  0.00  0.00    -0.312 N 
ATOM     12  O1  <0> d           0.652  -0.828   6.586  0.00  0.00    -0.267 OA
ATOM     13  C5  <0> d           0.022   2.582   6.622  0.00  0.00     0.213 A 
ATOM     14  C7  <0> d           0.468   1.080   8.486  0.00  0.00     0.160 C 
ATOM     15  N1  <0> d          -0.142   2.857   5.357  0.00  0.00    -0.235 NA
ATOM     16  S1  <0> d          -0.205   1.892   2.655  0.00  0.00    -0.063 SA
ENDBRANCH   1   5
BRANCH   3  17
ATOM     17  C11 <0> d          -0.219  -0.737  -1.274  0.00  0.00     0.228 C 
BRANCH  17  18
ATOM     18  C12 <0> d           1.136  -0.601  -1.919  0.00  0.00     0.240 C 
ATOM     19  O3  <0> d           2.001   0.057  -1.379  0.00  0.00    -0.271 OA
ATOM     20  N4  <0> d           1.387  -1.209  -3.095  0.00  0.00    -0.326 N 
ATOM     21  H13 <0> d           0.718  -1.786  -3.495  0.00  0.00     0.169 HD
BRANCH  20  22
ATOM     22  C13 <0> d           2.614  -1.010  -3.738  0.00  0.00     0.037 A 
ATOM     23  C18 <0> d           3.776  -0.871  -2.992  0.00  0.00     0.071 A 
ATOM     24  C17 <0> d           4.987  -0.674  -3.631  0.00  0.00     0.118 A 
ATOM     25  C16 <0> d           5.039  -0.616  -5.014  0.00  0.00     0.042 A 
ATOM     26  F1  <0> d           6.119  -0.539  -2.906  0.00  0.00    -0.206 F 
ATOM     27  C15 <0> d           3.882  -0.754  -5.758  0.00  0.00     0.005 A 
ATOM     28  C14 <0> d           2.671  -0.956  -5.125  0.00  0.00     0.029 A 
ENDBRANCH  20  22
ENDBRANCH  17  18
ENDBRANCH   3  17
TORSDOF 4
