REMARK  6 active torsions:
REMARK  status: ('A' for Active; 'I' for Inactive)
REMARK    1  A    between atoms: N1_5  and  C5_7 
REMARK    2  A    between atoms: C10_12  and  C11_13 
REMARK       I    between atoms: C11_13  and  N3_15 
REMARK    3  A    between atoms: N3_15  and  C12_16 
REMARK    4  A    between atoms: C12_16  and  C13_17 
REMARK    5  A    between atoms: N4_20  and  C18_23 
REMARK    6  A    between atoms: C18_23  and  C19_24 
ROOT
ATOM      1  C11 <0> d           0.245  -2.199   3.337  0.00  0.00     0.254 C 
ATOM      2  O1  <0> d           0.011  -1.146   2.776  0.00  0.00    -0.268 OA
ATOM      3  N3  <0> d           0.394  -2.230   4.677  0.00  0.00    -0.356 N 
ATOM      4  H9  <0> d           0.580  -3.069   5.125  0.00  0.00     0.162 HD
ENDROOT
BRANCH   3   5
ATOM      5  C12 <0> d           0.273  -0.995   5.456  0.00  0.00     0.127 C 
BRANCH   5   6
ATOM      6  C13 <0> d           0.483  -1.305   6.939  0.00  0.00     0.006 C 
ATOM      7  C17 <0> d           0.481   0.000   7.740  0.00  0.00     0.034 C 
ATOM      8  C16 <0> d           0.612  -0.323   9.230  0.00  0.00     0.235 C 
ATOM      9  N4  <0> d          -0.517  -1.160   9.654  0.00  0.00    -0.067 N 
ATOM     10  C15 <0> d          -0.480  -2.443   8.942  0.00  0.00     0.235 C 
ATOM     11  H29 <0> d          -1.383  -0.686   9.447  0.00  0.00     0.280 HD
ATOM     12  C14 <0> d          -0.653  -2.202   7.440  0.00  0.00     0.034 C 
BRANCH   9  13
ATOM     13  C18 <0> d          -0.429  -1.402  11.100  0.00  0.00     0.273 C 
BRANCH  13  14
ATOM     14  C19 <0> d          -0.589  -0.099  11.839  0.00  0.00    -0.026 A 
ATOM     15  C22 <0> d          -1.818   0.330  12.218  0.00  0.00     0.058 A 
ATOM     16  S1  <0> d          -1.436   1.874  13.029  0.00  0.00    -0.113 SA
ATOM     17  C21 <0> d           0.334   1.848  12.800  0.00  0.00     0.050 A 
ATOM     18  C20 <0> d           0.513   0.680  12.135  0.00  0.00     0.016 A 
ENDBRANCH  13  14
ENDBRANCH   9  13
ENDBRANCH   5   6
ENDBRANCH   3   5
BRANCH   1  19
ATOM     19  C10 <0> d           0.367  -3.443   2.553  0.00  0.00     0.060 A 
ATOM     20  C5  <0> d           0.330  -3.399   1.152  0.00  0.00     0.074 A 
ATOM     21  C6  <0> d           0.451  -4.575   0.424  0.00  0.00     0.032 A 
ATOM     22  C7  <0> d           0.600  -5.781   1.079  0.00  0.00     0.002 A 
ATOM     23  C8  <0> d           0.632  -5.829   2.462  0.00  0.00     0.001 A 
ATOM     24  C9  <0> d           0.514  -4.671   3.201  0.00  0.00     0.019 A 
BRANCH  20  25
ATOM     25  N1  <0> d           0.178  -2.178   0.491  0.00  0.00    -0.237 N 
ATOM     26  C4  <0> d          -0.818  -1.853  -0.373  0.00  0.00     0.035 A 
ATOM     27  C3  <0> d          -0.602  -0.584  -0.789  0.00  0.00     0.055 A 
ATOM     28  C23 <0> d          -1.958  -2.745  -0.793  0.00  0.00     0.070 C 
ATOM     29  C2  <0> d           0.559  -0.116  -0.163  0.00  0.00     0.053 A 
ATOM     30  C1  <0> d           1.167   1.251  -0.341  0.00  0.00     0.072 C 
ATOM     31  N2  <0> d           1.029  -1.070   0.599  0.00  0.00    -0.172 NA
ENDBRANCH  20  25
ENDBRANCH   1  19
TORSDOF 6
