REMARK  3 active torsions:
REMARK  status: ('A' for Active; 'I' for Inactive)
REMARK    1  A    between atoms: N1_2  and  C3_4 
REMARK    2  A    between atoms: C6_7  and  C9_11 
REMARK    3  A    between atoms: C10_12  and  C12_15 
ROOT
ATOM      1  C3  <0> d          -4.128  -1.060  -1.980  0.00  0.00     0.027 A 
ATOM      2  C4  <0> d          -4.243   0.306  -2.200  0.00  0.00     0.026 A 
ATOM      3  C5  <0> d          -3.180   1.142  -1.919  0.00  0.00     0.012 A 
ATOM      4  C6  <0> d          -2.001   0.620  -1.418  0.00  0.00    -0.017 A 
ATOM      5  C7  <0> d          -1.881  -0.741  -1.203  0.00  0.00     0.031 A 
ATOM      6  C8  <0> d          -2.942  -1.582  -1.477  0.00  0.00     0.033 A 
ATOM      7 Br1  <0> d          -2.779  -3.442  -1.175  0.00  0.00    -0.049 Br
ENDROOT
BRANCH   4   8
ATOM      8  C9  <0> d          -0.844   1.535  -1.113  0.00  0.00     0.281 C 
ATOM      9  S1  <0> d           0.414   1.506  -2.467  0.00  0.00    -0.129 SA
ATOM     10  C11 <0> d           1.892   1.846  -1.418  0.00  0.00     0.120 C 
ATOM     11  C10 <0> d           1.349   1.548  -0.003  0.00  0.00     0.296 C 
ATOM     12  N2  <0> d          -0.018   0.991   0.022  0.00  0.00    -0.043 N 
ATOM     13  H14 <0> d           0.034  -0.031  -0.061  0.00  0.00     0.280 HD
ATOM     14  H15 <0> d          -0.466   1.240   0.912  0.00  0.00     0.280 HD
BRANCH  11  15
ATOM     15  C12 <0> d           2.268   0.557   0.663  0.00  0.00     0.205 C 
ATOM     16  O1  <0> d           1.924  -0.595   0.790  0.00  0.00    -0.646 OA
ATOM     17  O2  <0> d           3.468   0.953   1.114  0.00  0.00    -0.646 OA
ENDBRANCH  11  15
ENDBRANCH   4   8
BRANCH   1  18
ATOM     18  N1  <0> d          -5.201  -1.909  -2.264  0.00  0.00    -0.291 NA
ATOM     19  C1  <0> d          -6.383  -1.546  -1.471  0.00  0.00     0.116 C 
ATOM     20  C2  <0> d          -5.510  -1.905  -3.700  0.00  0.00     0.116 C 
ENDBRANCH   1  18
TORSDOF 3
