REMARK  6 active torsions:
REMARK  status: ('A' for Active; 'I' for Inactive)
REMARK    1  A    between atoms: N1_2  and  C3_4 
REMARK    2  A    between atoms: C3_4  and  C8_9 
REMARK    3  A    between atoms: C8_9  and  N2_10 
REMARK       I    between atoms: N2_10  and  C9_11 
REMARK       I    between atoms: C9_11  and  N3_13 
REMARK    4  A    between atoms: N3_13  and  N4_14 
REMARK       I    between atoms: N4_14  and  C10_15 
REMARK    5  A    between atoms: C10_15  and  C11_17 
REMARK    6  A    between atoms: C11_17  and  C12_18 
ROOT
ATOM      1  N2  <0> d          -2.411   1.335   0.974  0.00  0.00    -0.339 N 
ATOM      2  C9  <0> d          -3.220   1.980   1.837  0.00  0.00     0.334 C 
ATOM      3  O1  <0> d          -3.763   1.367   2.736  0.00  0.00    -0.246 OA
ATOM      4  N3  <0> d          -3.429   3.305   1.704  0.00  0.00    -0.249 N 
ATOM      5  H17 <0> d          -1.978   1.825   0.257  0.00  0.00     0.164 HD
ATOM      6  H18 <0> d          -4.012   3.769   2.325  0.00  0.00     0.192 HD
ENDROOT
BRANCH   1   7
ATOM      7  C8  <0> d          -2.184  -0.105   1.120  0.00  0.00     0.163 C 
BRANCH   7   8
ATOM      8  C3  <0> d          -1.326  -0.606  -0.044  0.00  0.00     0.142 C 
ATOM      9  C7  <0> d          -1.061  -2.114   0.107  0.00  0.00     0.041 C 
ATOM     10  C6  <0> d          -1.666  -2.795  -1.138  0.00  0.00     0.003 C 
ATOM     11  C5  <0> d          -1.699  -1.674  -2.206  0.00  0.00     0.003 C 
ATOM     12  C4  <0> d          -2.083  -0.423  -1.376  0.00  0.00     0.041 C 
BRANCH   8  13
ATOM     13  N1  <0> d          -0.054   0.127  -0.084  0.00  0.00    -0.068 N 
ATOM     14  C1  <0> d           0.690  -0.116   1.160  0.00  0.00     0.270 C 
ATOM     15  C2  <0> d           0.742  -0.335  -1.228  0.00  0.00     0.270 C 
ATOM     16  H33 <0> d          -0.238   1.115  -0.178  0.00  0.00     0.280 HD
ENDBRANCH   8  13
ENDBRANCH   7   8
ENDBRANCH   1   7
BRANCH   4  17
ATOM     17  N4  <0> d          -2.804   4.012   0.668  0.00  0.00    -0.266 N 
ATOM     18  C10 <0> d          -3.013   5.337   0.534  0.00  0.00     0.236 C 
ATOM     19  O2  <0> d          -3.742   5.917   1.311  0.00  0.00    -0.272 OA
ATOM     20  H19 <0> d          -2.222   3.547   0.047  0.00  0.00     0.190 HD
BRANCH  18  21
ATOM     21  C11 <0> d          -2.341   6.097  -0.580  0.00  0.00     0.109 C 
BRANCH  21  22
ATOM     22  C12 <0> d          -2.743   7.571  -0.506  0.00  0.00    -0.006 C 
ATOM     23  C17 <0> d          -2.162   8.319  -1.708  0.00  0.00     0.005 C 
ATOM     24  C16 <0> d          -2.564   9.793  -1.634  0.00  0.00     0.000 C 
ATOM     25  C15 <0> d          -2.021  10.406  -0.342  0.00  0.00     0.000 C 
ATOM     26  C14 <0> d          -2.602   9.658   0.860  0.00  0.00     0.000 C 
ATOM     27  C13 <0> d          -2.200   8.184   0.786  0.00  0.00     0.005 C 
ENDBRANCH  21  22
ENDBRANCH  18  21
ENDBRANCH   4  17
TORSDOF 6
