REMARK  4 active torsions:
REMARK  status: ('A' for Active; 'I' for Inactive)
REMARK    1  A    between atoms: C3_4  and  S1_7 
REMARK    2  A    between atoms: S1_7  and  C4_8 
REMARK    3  A    between atoms: C4_8  and  C5_9 
REMARK       I    between atoms: C5_9  and  N4_11 
REMARK    4  A    between atoms: N4_11  and  C6_12 
ROOT
ATOM      1  C5  <0> d          -1.724   5.089   0.036  0.00  0.00     0.231 C 
ATOM      2  O1  <0> d          -2.897   4.779   0.032  0.00  0.00    -0.272 OA
ATOM      3  N4  <0> d          -1.371   6.390   0.044  0.00  0.00    -0.327 N 
ATOM      4  H6  <0> d          -0.311   6.672   0.124  0.00  0.00     0.169 HD
ENDROOT
BRANCH   1   5
ATOM      5  C4  <0> d          -0.662   4.020   0.034  0.00  0.00     0.185 C 
BRANCH   5   6
ATOM      6  S1  <0> d          -1.447   2.389   0.024  0.00  0.00    -0.081 SA
BRANCH   6   7
ATOM      7  C3  <0> d          -0.016   1.361   0.023  0.00  0.00     0.184 A 
ATOM      8  N1  <0> d           0.003  -0.004   0.016  0.00  0.00    -0.207 NA
ATOM      9  C2  <0> d           1.324  -0.356   0.012  0.00  0.00     0.145 A 
ATOM     10  C1  <0> d           1.874  -1.759  -0.005  0.00  0.00     0.095 C 
ATOM     11  N3  <0> d           2.019   0.746   0.025  0.00  0.00    -0.158 NA
ATOM     12  N2  <0> d           1.234   1.763   0.028  0.00  0.00    -0.254 N 
ATOM     13  H11 <0> d           1.652   2.780   0.034  0.00  0.00     0.191 HD
ENDBRANCH   6   7
ENDBRANCH   5   6
ENDBRANCH   1   5
BRANCH   3  14
ATOM     14  C6  <0> d          -2.354   7.382  -0.052  0.00  0.00     0.034 A 
ATOM     15  C11 <0> d          -3.594   7.193   0.545  0.00  0.00     0.031 A 
ATOM     16  C10 <0> d          -4.561   8.174   0.449  0.00  0.00     0.021 A 
ATOM     17  C9  <0> d          -4.297   9.344  -0.240  0.00  0.00     0.011 A 
ATOM     18  C8  <0> d          -3.062   9.535  -0.835  0.00  0.00     0.021 A 
ATOM     19 Br1  <0> d          -5.625  10.684  -0.369  0.00  0.00    -0.051 Br
ATOM     20  C7  <0> d          -2.089   8.560  -0.738  0.00  0.00     0.031 A 
ENDBRANCH   3  14
TORSDOF 4
