REMARK  5 active torsions:
REMARK  status: ('A' for Active; 'I' for Inactive)
REMARK    1  A    between atoms: C6_7  and  C9_10 
REMARK    2  A    between atoms: C9_10  and  C10_11 
REMARK       I    between atoms: C10_11  and  N2_13 
REMARK    3  A    between atoms: N2_13  and  N3_14 
REMARK    4  A    between atoms: N3_14  and  S1_15 
REMARK    5  A    between atoms: S1_15  and  C11_18 
ROOT
ATOM      1  C10 <0> d           0.460  -3.646  -1.440  0.00  0.00     0.240 C 
ATOM      2  O1  <0> d           1.006  -3.075  -2.360  0.00  0.00    -0.272 OA
ATOM      3  N2  <0> d          -0.353  -4.693  -1.684  0.00  0.00    -0.260 N 
ATOM      4  H10 <0> d          -0.790  -5.150  -0.948  0.00  0.00     0.190 HD
ENDROOT
BRANCH   1   5
ATOM      5  C9  <0> d           0.691  -3.186  -0.024  0.00  0.00     0.141 C 
BRANCH   5   6
ATOM      6  C6  <0> d           1.631  -2.008  -0.025  0.00  0.00    -0.041 A 
ATOM      7  C5  <0> d           3.143  -2.053  -0.041  0.00  0.00     0.155 A 
ATOM      8  N1  <0> d           3.587  -0.654  -0.037  0.00  0.00    -0.385 N 
ATOM      9  C4  <0> d           2.529   0.120  -0.022  0.00  0.00     0.038 A 
ATOM     10  H15 <0> d           4.509  -0.353  -0.045  0.00  0.00     0.160 HD
ATOM     11  C3  <0> d           2.391   1.535  -0.013  0.00  0.00     0.030 A 
ATOM     12  C7  <0> d           1.295  -0.698  -0.014  0.00  0.00    -0.005 A 
ATOM     13  C2  <0> d           1.166   2.101   0.002  0.00  0.00     0.002 A 
ATOM     14  C1  <0> d          -0.016   1.348   0.009  0.00  0.00     0.001 A 
ATOM     15  C8  <0> d           0.002  -0.004   0.002  0.00  0.00     0.014 A 
ENDBRANCH   5   6
ENDBRANCH   1   5
BRANCH   3  16
ATOM     16  N3  <0> d          -0.567  -5.122  -3.001  0.00  0.00    -0.220 N 
ATOM     17  H11 <0> d          -0.884  -4.494  -3.669  0.00  0.00     0.200 HD
BRANCH  16  18
ATOM     18  S1  <0> d          -0.279  -6.699  -3.416  0.00  0.00     0.282 S 
ATOM     19  O2  <0> d          -0.721  -6.853  -4.757  0.00  0.00    -0.198 OA
ATOM     20  O3  <0> d           1.053  -6.987  -3.015  0.00  0.00    -0.198 OA
BRANCH  18  21
ATOM     21  C11 <0> d          -1.333  -7.700  -2.420  0.00  0.00     0.115 C 
ATOM     22  S2  <0> d          -1.201  -7.984  -0.664  0.00  0.00    -0.096 SA
ATOM     23  C14 <0> d          -2.356  -9.411  -0.528  0.00  0.00     0.152 C 
ATOM     24  C13 <0> d          -3.171  -9.187  -1.829  0.00  0.00     0.060 C 
ATOM     25 Cl1  <0> d          -1.469 -10.980  -0.565  0.00  0.00    -0.113 Cl
ATOM     26  C12 <0> d          -2.377  -8.398  -2.821  0.00  0.00     0.008 C 
ENDBRANCH  18  21
ENDBRANCH  16  18
ENDBRANCH   3  16
TORSDOF 5
