REMARK  6 active torsions:
REMARK  status: ('A' for Active; 'I' for Inactive)
REMARK    1  A    between atoms: C2_2  and  C3_3 
REMARK    2  A    between atoms: C7_8  and  N3_12 
REMARK    3  A    between atoms: N3_12  and  C9_13 
REMARK    4  A    between atoms: C9_13  and  C10_14 
REMARK    5  A    between atoms: C13_17  and  C16_20 
REMARK    6  A    between atoms: C16_20  and  N4_21 
ROOT
ATOM      1  N3  <0> d           2.693   0.128   0.996  0.00  0.00    -0.370 N 
ATOM      2  H7  <0> d           1.747   0.195   1.197  0.00  0.00     0.161 HD
ENDROOT
BRANCH   1   3
ATOM      3  C7  <0> d           3.106  -0.335  -0.240  0.00  0.00     0.138 A 
ATOM      4  C6  <0> d           2.156  -0.592  -1.267  0.00  0.00     0.053 A 
ATOM      5  C3  <0> d           0.711  -0.446  -1.253  0.00  0.00    -0.029 A 
ATOM      6  C5  <0> d           2.694  -1.065  -2.484  0.00  0.00     0.114 A 
ATOM      7  C4  <0> d           0.012  -0.748  -2.357  0.00  0.00    -0.012 A 
ATOM      8  S1  <0> d           1.265  -1.268  -3.514  0.00  0.00    -0.074 SA
ATOM      9  C17 <0> d          -1.478  -0.669  -2.568  0.00  0.00     0.057 C 
ATOM     10  N2  <0> d           3.990  -1.248  -2.638  0.00  0.00    -0.234 NA
ATOM     11  C8  <0> d           4.824  -0.983  -1.651  0.00  0.00     0.236 A 
ATOM     12  N1  <0> d           4.390  -0.543  -0.483  0.00  0.00    -0.224 NA
BRANCH   5  13
ATOM     13  C2  <0> d           0.006   0.045  -0.015  0.00  0.00     0.036 C 
ATOM     14  C1  <0> d          -0.212  -1.126   0.946  0.00  0.00     0.010 C 
ENDBRANCH   5  13
ENDBRANCH   1   3
BRANCH   1  15
ATOM     15  C9  <0> d           3.685   0.515   2.002  0.00  0.00     0.160 C 
BRANCH  15  16
ATOM     16  C10 <0> d           2.980   0.979   3.251  0.00  0.00    -0.041 A 
ATOM     17  C15 <0> d           2.666   0.072   4.245  0.00  0.00     0.009 A 
ATOM     18  C14 <0> d           2.023   0.498   5.392  0.00  0.00     0.009 A 
ATOM     19  C13 <0> d           1.685   1.831   5.540  0.00  0.00    -0.033 A 
ATOM     20  C12 <0> d           1.995   2.737   4.544  0.00  0.00     0.009 A 
ATOM     21  C11 <0> d           2.642   2.311   3.399  0.00  0.00     0.009 A 
BRANCH  19  22
ATOM     22  C16 <0> d           0.981   2.295   6.789  0.00  0.00     0.268 C 
BRANCH  22  23
ATOM     23  N4  <0> d          -0.472   2.203   6.594  0.00  0.00    -0.075 N 
ATOM     24  H16 <0> d          -0.745   2.787   5.818  0.00  0.00     0.274 HD
ATOM     25  H17 <0> d          -0.726   1.246   6.401  0.00  0.00     0.274 HD
ATOM     26  H21 <0> d          -0.944   2.514   7.430  0.00  0.00     0.274 HD
ENDBRANCH  22  23
ENDBRANCH  19  22
ENDBRANCH  15  16
ENDBRANCH   1  15
TORSDOF 6
