REMARK  6 active torsions:
REMARK  status: ('A' for Active; 'I' for Inactive)
REMARK    1  A    between atoms: C2_2  and  O1_4 
REMARK    2  A    between atoms: O1_4  and  C4_5 
REMARK    3  A    between atoms: C7_8  and  C10_12 
REMARK    4  A    between atoms: C10_12  and  N1_13 
REMARK    5  A    between atoms: N1_13  and  C11_14 
REMARK    6  A    between atoms: C11_14  and  C12_15 
ROOT
ATOM      1  C10 <0> d          -3.787  -1.357  -4.989  0.00  0.00     0.270 C 
ENDROOT
BRANCH   1   2
ATOM      2  C7  <0> d          -3.132  -1.127  -3.652  0.00  0.00    -0.029 A 
ATOM      3  C6  <0> d          -3.242   0.103  -3.032  0.00  0.00     0.035 A 
ATOM      4  C5  <0> d          -2.642   0.317  -1.804  0.00  0.00     0.069 A 
ATOM      5  C4  <0> d          -1.929  -0.706  -1.195  0.00  0.00     0.112 A 
ATOM      6 Cl2  <0> d          -2.781   1.863  -1.027  0.00  0.00    -0.081 Cl
ATOM      7  C9  <0> d          -1.815  -1.939  -1.822  0.00  0.00     0.069 A 
ATOM      8  C8  <0> d          -2.422  -2.148  -3.047  0.00  0.00     0.035 A 
ATOM      9 Cl1  <0> d          -0.918  -3.218  -1.067  0.00  0.00    -0.081 Cl
BRANCH   5  10
ATOM     10  O1  <0> d          -1.339  -0.499   0.012  0.00  0.00    -0.343 OA
BRANCH  10  11
ATOM     11  C2  <0> d           0.002  -0.004   0.002  0.00  0.00     0.121 C 
ATOM     12  C1  <0> d          -0.019   1.526   0.010  0.00  0.00     0.040 C 
ATOM     13  C3  <0> d           0.742  -0.511   1.242  0.00  0.00     0.040 C 
ENDBRANCH  10  11
ENDBRANCH   5  10
ENDBRANCH   1   2
BRANCH   1  14
ATOM     14  N1  <0> d          -2.846  -1.008  -6.062  0.00  0.00    -0.071 N 
ATOM     15  H12 <0> d          -2.586  -0.036  -5.977  0.00  0.00     0.277 HD
ATOM     16  H26 <0> d          -2.022  -1.585  -5.988  0.00  0.00     0.277 HD
BRANCH  14  17
ATOM     17  C11 <0> d          -3.485  -1.232  -7.366  0.00  0.00     0.237 C 
BRANCH  17  18
ATOM     18  C12 <0> d          -2.505  -0.867  -8.483  0.00  0.00     0.014 C 
ATOM     19  C16 <0> d          -3.122  -1.217  -9.840  0.00  0.00     0.034 C 
ATOM     20  C15 <0> d          -2.171  -0.777 -10.955  0.00  0.00     0.232 C 
ATOM     21  N2  <0> d          -1.953   0.672 -10.874  0.00  0.00    -0.075 N 
ATOM     22  C14 <0> d          -1.296   1.006  -9.605  0.00  0.00     0.232 C 
ATOM     23  H20 <0> d          -2.841   1.148 -10.928  0.00  0.00     0.277 HD
ATOM     24  H25 <0> d          -1.369   0.966 -11.643  0.00  0.00     0.277 HD
ATOM     25  C13 <0> d          -2.213   0.635  -8.438  0.00  0.00     0.034 C 
ENDBRANCH  17  18
ENDBRANCH  14  17
ENDBRANCH   1  14
TORSDOF 6
