REMARK  4 active torsions:
REMARK  status: ('A' for Active; 'I' for Inactive)
REMARK    1  A    between atoms: C6_6  and  C7_7 
REMARK    2  A    between atoms: C8_10  and  N3_13 
REMARK    3  A    between atoms: N3_13  and  C10_14 
REMARK    4  A    between atoms: C10_14  and  C11_15 
ROOT
ATOM      1  C7  <0> d          -1.260  -0.759   0.010  0.00  0.00     0.074 C 
ATOM      2  N1  <0> d          -1.215  -2.047   0.008  0.00  0.00    -0.176 NA
ATOM      3  N2  <0> d          -2.166  -2.885  -0.013  0.00  0.00    -0.257 N 
ATOM      4  C8  <0> d          -3.399  -2.622  -0.392  0.00  0.00     0.157 C 
ATOM      5  S1  <0> d          -3.775  -0.977  -0.929  0.00  0.00    -0.087 SA
ATOM      6  C9  <0> d          -2.566   0.002   0.026  0.00  0.00     0.144 C 
ATOM      7  H14 <0> d          -1.970  -3.791   0.274  0.00  0.00     0.191 HD
ENDROOT
BRANCH   1   8
ATOM      8  C6  <0> d           0.002  -0.004   0.002  0.00  0.00    -0.008 A 
ATOM      9  C1  <0> d          -0.017   1.395   0.010  0.00  0.00     0.016 A 
ATOM     10  C2  <0> d           1.168   2.098   0.002  0.00  0.00     0.031 A 
ATOM     11  C3  <0> d           2.381   1.420  -0.013  0.00  0.00     0.041 A 
ATOM     12  N4  <0> d           3.582   2.136  -0.020  0.00  0.00    -0.327 N 
ATOM     13  C4  <0> d           2.405   0.029  -0.020  0.00  0.00    -0.030 A 
ATOM     14  C14 <0> d           4.728   1.544  -0.403  0.00  0.00     0.222 C 
ATOM     15  H13 <0> d           3.589   3.067   0.252  0.00  0.00     0.169 HD
ATOM     16  C13 <0> d           4.741   0.106  -0.846  0.00  0.00     0.108 C 
ATOM     17  O1  <0> d           5.762   2.176  -0.390  0.00  0.00    -0.273 OA
ATOM     18  C12 <0> d           3.724  -0.699  -0.035  0.00  0.00     0.050 C 
ATOM     19  C5  <0> d           1.226  -0.682  -0.013  0.00  0.00     0.023 A 
ENDBRANCH   1   8
BRANCH   4  20
ATOM     20  N3  <0> d          -4.367  -3.597  -0.373  0.00  0.00    -0.361 N 
ATOM     21  H6  <0> d          -4.146  -4.494  -0.076  0.00  0.00     0.161 HD
BRANCH  20  22
ATOM     22  C10 <0> d          -5.732  -3.282  -0.800  0.00  0.00     0.239 C 
BRANCH  22  23
ATOM     23  C11 <0> d          -6.604  -4.533  -0.682  0.00  0.00     0.403 C 
ATOM     24  F1  <0> d          -6.620  -4.968   0.648  0.00  0.00    -0.169 F 
ATOM     25  F2  <0> d          -7.909  -4.233  -1.090  0.00  0.00    -0.169 F 
ATOM     26  F3  <0> d          -6.082  -5.544  -1.497  0.00  0.00    -0.169 F 
ENDBRANCH  22  23
ENDBRANCH  20  22
ENDBRANCH   4  20
TORSDOF 4
