REMARK  9 active torsions:
REMARK  status: ('A' for Active; 'I' for Inactive)
REMARK    1  A    between atoms: O1_2  and  C2_3 
REMARK    2  A    between atoms: C2_3  and  C3_4 
REMARK    3  A    between atoms: C3_4  and  O2_5 
REMARK    4  A    between atoms: O2_5  and  C4_6 
REMARK    5  A    between atoms: C4_6  and  C5_8 
REMARK    6  A    between atoms: C6_9  and  N1_28 
REMARK    7  A    between atoms: C10_15  and  C19_26 
REMARK    8  A    between atoms: C12_18  and  C13_19 
REMARK    9  A    between atoms: C19_26  and  O7_27 
ROOT
ATOM      1  C5  <0> d           3.271   1.431  -1.254  0.00  0.00     0.083 C 
ATOM      2  C6  <0> d           4.284   2.334  -1.181  0.00  0.00     0.155 C 
ATOM      3  O4  <0> d           4.640   2.885  -0.009  0.00  0.00    -0.287 OA
ATOM      4  C7  <0> d           4.294   2.281   1.155  0.00  0.00     0.158 A 
ATOM      5  C8  <0> d           5.011   2.605   2.343  0.00  0.00     0.210 A 
ATOM      6  O5  <0> d           5.925   3.415   2.328  0.00  0.00    -0.285 OA
ATOM      7  C9  <0> d           4.627   1.956   3.543  0.00  0.00     0.092 A 
ATOM      8  C10 <0> d           3.612   1.072   3.503  0.00  0.00     0.080 A 
ATOM      9  O6  <0> d           2.961   0.791   2.377  0.00  0.00    -0.313 OA
ATOM     10  C11 <0> d           3.292   1.381   1.218  0.00  0.00     0.104 A 
ATOM     11  C12 <0> d           2.514   1.020  -0.023  0.00  0.00     0.122 C 
ENDROOT
BRANCH   1  12
ATOM     12  C4  <0> d           2.927   0.877  -2.495  0.00  0.00     0.294 C 
ATOM     13  O3  <0> d           3.303  -0.245  -2.786  0.00  0.00    -0.259 OA
BRANCH  12  14
ATOM     14  O2  <0> d           2.179   1.586  -3.368  0.00  0.00    -0.316 OA
BRANCH  14  15
ATOM     15  C3  <0> d           1.867   0.959  -4.613  0.00  0.00     0.205 C 
BRANCH  15  16
ATOM     16  C2  <0> d           1.019   1.907  -5.463  0.00  0.00     0.193 C 
BRANCH  16  17
ATOM     17  O1  <0> d           1.792   3.060  -5.804  0.00  0.00    -0.394 OA
ATOM     18  C1  <0> d           1.089   4.015  -6.602  0.00  0.00     0.201 C 
ENDBRANCH  16  17
ENDBRANCH  15  16
ENDBRANCH  14  15
ENDBRANCH  12  14
ENDBRANCH   1  12
BRANCH  11  19
ATOM     19  C13 <0> d           1.181   1.723   0.001  0.00  0.00    -0.043 A 
ATOM     20  C18 <0> d           1.129   3.104   0.021  0.00  0.00     0.010 A 
ATOM     21  C17 <0> d          -0.093   3.749   0.043  0.00  0.00     0.024 A 
ATOM     22  C16 <0> d          -1.264   3.013   0.045  0.00  0.00     0.034 A 
ATOM     23  C15 <0> d          -1.212   1.630   0.020  0.00  0.00     0.024 A 
ATOM     24 Cl1  <0> d          -2.800   3.823   0.072  0.00  0.00    -0.084 Cl
ATOM     25  C14 <0> d           0.011   0.986   0.004  0.00  0.00     0.010 A 
ENDBRANCH  11  19
BRANCH   2  26
ATOM     26  N1  <0> d           4.954   2.688  -2.321  0.00  0.00    -0.379 N 
ATOM     27  H17 <0> d           4.655   2.355  -3.182  0.00  0.00     0.158 HD
ATOM     28  H18 <0> d           5.726   3.273  -2.269  0.00  0.00     0.158 HD
ENDBRANCH   2  26
BRANCH   8  29
ATOM     29  C19 <0> d           3.200   0.378   4.775  0.00  0.00     0.229 C 
BRANCH  29  30
ATOM     30  O7  <0> d           2.195   1.150   5.435  0.00  0.00    -0.394 OA
ATOM     31  H16 <0> d           1.881   0.762   6.263  0.00  0.00     0.209 HD
ENDBRANCH  29  30
ENDBRANCH   8  29
TORSDOF 9
