REMARK  9 active torsions:
REMARK  status: ('A' for Active; 'I' for Inactive)
REMARK    1  A    between atoms: C2_2  and  N1_4 
REMARK    2  A    between atoms: N1_4  and  C4_5 
REMARK    3  A    between atoms: N1_4  and  S1_24 
REMARK    4  A    between atoms: C4_5  and  C5_6 
REMARK    5  A    between atoms: C5_6  and  C6_7 
REMARK    6  A    between atoms: C6_7  and  N2_8 
REMARK       I    between atoms: N2_8  and  C7_9 
REMARK       I    between atoms: C7_9  and  N3_11 
REMARK    7  A    between atoms: N3_11  and  C8_12 
REMARK    8  A    between atoms: C8_12  and  C9_13 
REMARK    9  A    between atoms: C12_16  and  N4_19 
ROOT
ATOM      1  N2  <0> d          -4.685   2.750   1.631  0.00  0.00    -0.343 N 
ATOM      2  C7  <0> d          -5.597   3.266   2.479  0.00  0.00     0.316 C 
ATOM      3  O1  <0> d          -5.802   2.731   3.551  0.00  0.00    -0.247 OA
ATOM      4  N3  <0> d          -6.282   4.376   2.138  0.00  0.00    -0.339 N 
ATOM      5  H14 <0> d          -4.522   3.178   0.776  0.00  0.00     0.164 HD
ATOM      6  H15 <0> d          -6.119   4.803   1.282  0.00  0.00     0.164 HD
ENDROOT
BRANCH   1   7
ATOM      7  C6  <0> d          -3.941   1.544   2.002  0.00  0.00     0.126 C 
BRANCH   7   8
ATOM      8  C5  <0> d          -2.978   1.172   0.873  0.00  0.00     0.040 C 
BRANCH   8   9
ATOM      9  C4  <0> d          -2.200  -0.087   1.260  0.00  0.00     0.137 C 
BRANCH   9  10
ATOM     10  N1  <0> d          -1.373  -0.517   0.130  0.00  0.00    -0.307 N 
BRANCH  10  11
ATOM     11  C2  <0> d          -0.035   0.051  -0.056  0.00  0.00     0.087 C 
ATOM     12  C1  <0> d          -0.131   1.577  -0.106  0.00  0.00     0.032 C 
ATOM     13  C3  <0> d           0.863  -0.366   1.111  0.00  0.00     0.032 C 
ENDBRANCH  10  11
BRANCH  10  14
ATOM     14  S1  <0> d          -1.949  -1.644  -0.938  0.00  0.00     0.225 S 
ATOM     15  O2  <0> d          -3.363  -1.518  -0.870  0.00  0.00    -0.206 OA
ATOM     16  O3  <0> d          -1.256  -1.383  -2.150  0.00  0.00    -0.206 OA
ATOM     17  C18 <0> d          -1.431  -3.242  -0.253  0.00  0.00     0.186 C 
ENDBRANCH  10  14
ENDBRANCH   9  10
ENDBRANCH   8   9
ENDBRANCH   7   8
ENDBRANCH   1   7
BRANCH   4  18
ATOM     18  C8  <0> d          -7.274   4.937   3.059  0.00  0.00     0.162 C 
BRANCH  18  19
ATOM     19  C9  <0> d          -7.892   6.166   2.444  0.00  0.00    -0.040 A 
ATOM     20  C14 <0> d          -9.026   6.049   1.661  0.00  0.00     0.011 A 
ATOM     21  C13 <0> d          -9.598   7.175   1.100  0.00  0.00     0.030 A 
ATOM     22  C12 <0> d          -9.027   8.422   1.315  0.00  0.00     0.039 A 
ATOM     23  C11 <0> d          -7.886   8.535   2.097  0.00  0.00     0.030 A 
ATOM     24  C10 <0> d          -7.322   7.407   2.660  0.00  0.00     0.011 A 
BRANCH  22  25
ATOM     25  N4  <0> d          -9.603   9.566   0.743  0.00  0.00    -0.315 N 
ATOM     26  C17 <0> d          -9.157  10.842   0.868  0.00  0.00     0.214 A 
ATOM     27  N5  <0> d          -9.951  11.628   0.191  0.00  0.00    -0.254 NA
ATOM     28  C16 <0> d         -10.923  10.897  -0.374  0.00  0.00     0.135 A 
ATOM     29  C15 <0> d         -10.726   9.607  -0.043  0.00  0.00     0.117 A 
ENDBRANCH  22  25
ENDBRANCH  18  19
ENDBRANCH   4  18
TORSDOF 9
