REMARK  5 active torsions:
REMARK  status: ('A' for Active; 'I' for Inactive)
REMARK    1  A    between atoms: C4_4  and  O6_26 
REMARK    2  A    between atoms: C5_5  and  C7_9 
REMARK    3  A    between atoms: C7_9  and  C8_10 
REMARK    4  A    between atoms: C7_9  and  C14_17 
REMARK    5  A    between atoms: C15_18  and  O5_25 
ROOT
ATOM      1  C7  <0> d           3.748  -0.637  -0.038  0.00  0.00     0.102 C 
ENDROOT
BRANCH   1   2
ATOM      2  C5  <0> d           2.496   0.162   0.219  0.00  0.00     0.064 A 
ATOM      3  C4  <0> d           1.250  -0.429   0.110  0.00  0.00     0.081 A 
ATOM      4  C3  <0> d           0.102   0.356   0.359  0.00  0.00     0.069 A 
ATOM      5  C2  <0> d           0.240   1.653   0.695  0.00  0.00     0.056 A 
ATOM      6  C1  <0> d          -0.990   2.485   0.953  0.00  0.00     0.077 C 
ATOM      7  O2  <0> d           1.451   2.218   0.799  0.00  0.00    -0.280 OA
ATOM      8  C6  <0> d           2.574   1.514   0.572  0.00  0.00     0.298 A 
ATOM      9  O1  <0> d           3.662   2.055   0.674  0.00  0.00    -0.259 OA
BRANCH   3  10
ATOM     10  O6  <0> d           1.133  -1.735  -0.228  0.00  0.00    -0.360 OA
ATOM     11  H15 <0> d           1.067  -1.890  -1.180  0.00  0.00     0.217 HD
ENDBRANCH   3  10
ENDBRANCH   1   2
BRANCH   1  12
ATOM     12  C8  <0> d           4.436  -0.108  -1.270  0.00  0.00    -0.043 A 
ATOM     13  C13 <0> d           4.274  -0.752  -2.482  0.00  0.00     0.027 A 
ATOM     14  C12 <0> d           4.907  -0.267  -3.613  0.00  0.00     0.011 A 
ATOM     15  C11 <0> d           5.701   0.862  -3.530  0.00  0.00     0.019 A 
ATOM     16 Br1  <0> d           4.684  -1.147  -5.271  0.00  0.00    -0.051 Br
ATOM     17  C10 <0> d           5.862   1.506  -2.317  0.00  0.00     0.002 A 
ATOM     18  C9  <0> d           5.226   1.024  -1.188  0.00  0.00     0.008 A 
ENDBRANCH   1  12
BRANCH   1  19
ATOM     19  C14 <0> d           4.673  -0.515   1.146  0.00  0.00     0.064 A 
ATOM     20  C18 <0> d           6.057  -0.653   0.985  0.00  0.00     0.298 A 
ATOM     21  O3  <0> d           6.874  -0.543   2.047  0.00  0.00    -0.280 OA
ATOM     22  O4  <0> d           6.522  -0.874  -0.121  0.00  0.00    -0.259 OA
ATOM     23  C17 <0> d           6.393  -0.301   3.275  0.00  0.00     0.056 A 
ATOM     24  C16 <0> d           5.072  -0.160   3.491  0.00  0.00     0.069 A 
ATOM     25  C19 <0> d           7.349  -0.187   4.434  0.00  0.00     0.077 C 
ATOM     26  C15 <0> d           4.170  -0.260   2.409  0.00  0.00     0.081 A 
BRANCH  26  27
ATOM     27  O5  <0> d           2.838  -0.114   2.604  0.00  0.00    -0.360 OA
ATOM     28  H14 <0> d           2.378  -0.940   2.808  0.00  0.00     0.217 HD
ENDBRANCH  26  27
ENDBRANCH   1  19
TORSDOF 5
