REMARK  4 active torsions:
REMARK  status: ('A' for Active; 'I' for Inactive)
REMARK    1  A    between atoms: C4_5  and  C7_8 
REMARK    2  A    between atoms: C7_8  and  N2_9 
REMARK    3  A    between atoms: N2_9  and  C9_11 
REMARK    4  A    between atoms: C14_16  and  N3_17 
ROOT
ATOM      1  C9  <0> d           2.279  -6.117   0.959  0.00  0.00     0.257 C 
ATOM      2  C10 <0> d           0.902  -6.784   0.971  0.00  0.00     0.106 C 
ATOM      3  C11 <0> d           1.072  -8.303   0.901  0.00  0.00     0.166 C 
ATOM      4  C12 <0> d           1.815  -8.683  -0.381  0.00  0.00     0.070 C 
ATOM      5  C13 <0> d           3.190  -8.012  -0.391  0.00  0.00     0.040 C 
ATOM      6  C14 <0> d           3.018  -6.494  -0.327  0.00  0.00     0.217 C 
ATOM      7  O1  <0> d           1.825  -8.752   2.040  0.00  0.00    -0.353 OA
ATOM      8  C15 <0> d           0.827  -9.159   3.006  0.00  0.00     0.197 C 
ATOM      9  C16 <0> d          -0.265  -9.770   2.092  0.00  0.00     0.197 C 
ATOM     10  O2  <0> d          -0.214  -8.933   0.918  0.00  0.00    -0.353 OA
ENDROOT
BRANCH   1  11
ATOM     11  N2  <0> d           2.117  -4.658   1.022  0.00  0.00     0.091 N 
ATOM     12  C8  <0> d           1.712  -4.230   2.367  0.00  0.00     0.310 C 
BRANCH  11  13
ATOM     13  C7  <0> d           1.160  -4.191   0.010  0.00  0.00     0.277 C 
BRANCH  13  14
ATOM     14  C4  <0> d           1.370  -2.697  -0.240  0.00  0.00     0.017 C 
ATOM     15  C3  <0> d           2.751  -2.471  -0.861  0.00  0.00     0.034 C 
ATOM     16  C2  <0> d           2.923  -0.984  -1.181  0.00  0.00     0.234 C 
ATOM     17  N1  <0> d           1.885  -0.561  -2.128  0.00  0.00    -0.075 N 
ATOM     18  C1  <0> d           2.100   0.846  -2.492  0.00  0.00     0.269 C 
ATOM     19  C6  <0> d           0.560  -0.707  -1.512  0.00  0.00     0.234 C 
ATOM     20  H32 <0> d           1.934  -1.133  -2.957  0.00  0.00     0.279 HD
ATOM     21  C5  <0> d           0.297  -2.183  -1.204  0.00  0.00     0.034 C 
ENDBRANCH  13  14
ENDBRANCH  11  13
ENDBRANCH   1  11
BRANCH   6  22
ATOM     22  N3  <0> d           4.338  -5.850  -0.340  0.00  0.00    -0.073 N 
ATOM     23  H26 <0> d           4.899  -6.219   0.413  0.00  0.00     0.274 HD
ATOM     24  H27 <0> d           4.794  -6.035  -1.221  0.00  0.00     0.274 HD
ATOM     25  H33 <0> d           4.228  -4.854  -0.221  0.00  0.00     0.274 HD
ENDBRANCH   6  22
TORSDOF 4
