REMARK  7 active torsions:
REMARK  status: ('A' for Active; 'I' for Inactive)
REMARK    1  A    between atoms: C2_2  and  N1_3 
REMARK    2  A    between atoms: N1_3  and  C3_4 
REMARK    3  A    between atoms: N1_3  and  C9_11 
REMARK    4  A    between atoms: C3_4  and  C4_5 
REMARK    5  A    between atoms: C9_11  and  C10_12 
REMARK    6  A    between atoms: C9_11  and  C11_14 
REMARK    7  A    between atoms: C10_12  and  N3_13 
ROOT
ATOM      1  C9  <0> d          -0.073   0.040  -2.886  0.00  0.00     0.305 C 
ENDROOT
BRANCH   1   2
ATOM      2  N1  <0> d           0.223   0.080  -1.448  0.00  0.00     0.104 N 
BRANCH   2   3
ATOM      3  C2  <0> d          -0.948   0.530  -0.682  0.00  0.00     0.269 C 
ATOM      4  C1  <0> d          -1.160   2.028  -0.909  0.00  0.00     0.037 C 
ENDBRANCH   2   3
BRANCH   2   5
ATOM      5  C3  <0> d           0.693  -1.227  -0.970  0.00  0.00     0.312 C 
BRANCH   5   6
ATOM      6  C4  <0> d           1.423  -1.052   0.336  0.00  0.00    -0.027 A 
ATOM      7  C8  <0> d           0.745  -1.121   1.543  0.00  0.00     0.028 A 
ATOM      8  C7  <0> d           1.449  -0.961   2.722  0.00  0.00     0.116 A 
ATOM      9  N2  <0> d           2.748  -0.734   2.706  0.00  0.00    -0.273 NA
ATOM     10  C6  <0> d           3.425  -0.656   1.577  0.00  0.00     0.116 A 
ATOM     11  C5  <0> d           2.789  -0.812   0.359  0.00  0.00     0.028 A 
ENDBRANCH   5   6
ENDBRANCH   2   5
ENDBRANCH   1   2
BRANCH   1  12
ATOM     12  C10 <0> d          -0.742  -1.292  -3.232  0.00  0.00     0.272 C 
BRANCH  12  13
ATOM     13  N3  <0> d          -1.947  -1.464  -2.411  0.00  0.00    -0.077 N 
ATOM     14  H15 <0> d          -1.680  -1.637  -1.453  0.00  0.00     0.274 HD
ATOM     15  H16 <0> d          -2.507  -0.625  -2.457  0.00  0.00     0.274 HD
ATOM     16  H18 <0> d          -2.482  -2.245  -2.757  0.00  0.00     0.274 HD
ENDBRANCH  12  13
ENDBRANCH   1  12
BRANCH   1  17
ATOM     17  C11 <0> d           1.209   0.176  -3.667  0.00  0.00     0.090 A 
ATOM     18  O1  <0> d           2.357  -0.472  -3.410  0.00  0.00    -0.304 OA
ATOM     19  C14 <0> d           3.287  -0.109  -4.309  0.00  0.00     0.139 A 
ATOM     20  C13 <0> d           2.738   0.790  -5.149  0.00  0.00     0.054 A 
ATOM     21 Br1  <0> d           5.067  -0.745  -4.378  0.00  0.00    -0.021 Br
ATOM     22  C12 <0> d           1.399   0.972  -4.734  0.00  0.00     0.057 A 
ATOM     23 Br2  <0> d           3.594   1.642  -6.604  0.00  0.00    -0.048 Br
ENDBRANCH   1  17
TORSDOF 7
