REMARK  6 active torsions:
REMARK  status: ('A' for Active; 'I' for Inactive)
REMARK    1  A    between atoms: C2_2  and  N1_4 
REMARK    2  A    between atoms: C10_12  and  C11_13 
REMARK    3  A    between atoms: C11_13  and  C12_14 
REMARK    4  A    between atoms: C11_13  and  N3_17 
REMARK    5  A    between atoms: C12_14  and  C13_15 
REMARK    6  A    between atoms: C13_15  and  O1_16 
ROOT
ATOM      1  N1  <0> d          -1.372  -0.511   0.012  0.00  0.00    -0.327 N 
ATOM      2  C4  <0> d          -2.325  -0.273   0.983  0.00  0.00     0.065 A 
ATOM      3  C5  <0> d          -2.336   0.448   2.169  0.00  0.00     0.033 A 
ATOM      4  C6  <0> d          -3.480   0.490   2.937  0.00  0.00     0.021 A 
ATOM      5  C7  <0> d          -4.624  -0.184   2.531  0.00  0.00     0.013 A 
ATOM      6  C8  <0> d          -4.632  -0.905   1.358  0.00  0.00     0.053 A 
ATOM      7  C9  <0> d          -3.480  -0.957   0.569  0.00  0.00     0.087 A 
ATOM      8  N2  <0> d          -3.179  -1.565  -0.608  0.00  0.00    -0.231 NA
ATOM      9  C10 <0> d          -1.948  -1.299  -0.935  0.00  0.00     0.138 A 
ATOM     10 Br1  <0> d          -6.183  -0.114   3.600  0.00  0.00    -0.051 Br
ENDROOT
BRANCH   9  11
ATOM     11  C11 <0> d          -1.260  -1.795  -2.180  0.00  0.00     0.254 C 
BRANCH  11  12
ATOM     12  C12 <0> d          -1.762  -1.005  -3.390  0.00  0.00     0.067 C 
BRANCH  12  13
ATOM     13  C13 <0> d          -0.975  -1.421  -4.634  0.00  0.00     0.166 C 
BRANCH  13  14
ATOM     14  O1  <0> d          -1.444  -0.684  -5.764  0.00  0.00    -0.401 OA
ATOM     15  H16 <0> d          -0.989  -0.897  -6.590  0.00  0.00     0.209 HD
ENDBRANCH  13  14
ENDBRANCH  12  13
ENDBRANCH  11  12
BRANCH  11  16
ATOM     16  N3  <0> d          -1.556  -3.221  -2.369  0.00  0.00    -0.068 N 
ATOM     17  H17 <0> d          -1.095  -3.554  -3.203  0.00  0.00     0.275 HD
ATOM     18  H18 <0> d          -1.225  -3.742  -1.571  0.00  0.00     0.275 HD
ATOM     19  H19 <0> d          -2.553  -3.348  -2.463  0.00  0.00     0.275 HD
ENDBRANCH  11  16
ENDBRANCH   9  11
BRANCH   1  20
ATOM     20  C2  <0> d           0.002  -0.004   0.002  0.00  0.00     0.083 C 
ATOM     21  C1  <0> d          -0.019   1.526   0.010  0.00  0.00     0.032 C 
ATOM     22  C3  <0> d           0.742  -0.511   1.242  0.00  0.00     0.032 C 
ENDBRANCH   1  20
TORSDOF 6
