REMARK  6 active torsions:
REMARK  status: ('A' for Active; 'I' for Inactive)
REMARK    1  A    between atoms: C2_2  and  C4_4 
REMARK    2  A    between atoms: C2_2  and  N3_19 
REMARK    3  A    between atoms: C4_4  and  N1_5 
REMARK       I    between atoms: N1_5  and  C5_6 
REMARK    4  A    between atoms: C5_6  and  C6_8 
REMARK    5  A    between atoms: C8_10  and  S1_15 
REMARK    6  A    between atoms: S1_15  and  N2_18 
ROOT
ATOM      1  C6  <0> d          -2.912  -3.720  -0.737  0.00  0.00     0.050 A 
ATOM      2  C7  <0> d          -1.790  -4.550  -0.685  0.00  0.00     0.043 A 
ATOM      3  C8  <0> d          -1.928  -5.904  -0.903  0.00  0.00     0.080 A 
ATOM      4  C9  <0> d          -3.174  -6.442  -1.173  0.00  0.00     0.027 A 
ATOM      5  C10 <0> d          -4.290  -5.627  -1.227  0.00  0.00     0.021 A 
ATOM      6  C11 <0> d          -4.167  -4.269  -1.005  0.00  0.00     0.026 A 
ATOM      7 Br1  <0> d          -5.695  -3.156  -1.071  0.00  0.00    -0.050 Br
ENDROOT
BRANCH   1   8
ATOM      8  C5  <0> d          -2.772  -2.267  -0.505  0.00  0.00     0.253 C 
ATOM      9  N1  <0> d          -1.558  -1.740  -0.246  0.00  0.00    -0.354 N 
ATOM     10  H9  <0> d          -0.777  -2.314  -0.213  0.00  0.00     0.162 HD
ATOM     11  O1  <0> d          -3.751  -1.547  -0.546  0.00  0.00    -0.268 OA
BRANCH   9  12
ATOM     12  C4  <0> d          -1.419  -0.300  -0.016  0.00  0.00     0.161 C 
BRANCH  12  13
ATOM     13  C2  <0> d           0.060   0.047   0.166  0.00  0.00     0.135 C 
ATOM     14  C1  <0> d           0.811  -0.220  -1.139  0.00  0.00     0.048 C 
ATOM     15  C3  <0> d           0.195   1.525   0.539  0.00  0.00     0.048 C 
BRANCH  13  16
ATOM     16  N3  <0> d           0.629  -0.782   1.237  0.00  0.00    -0.069 N 
ATOM     17  C12 <0> d           2.043  -0.433   1.427  0.00  0.00     0.270 C 
ATOM     18  C13 <0> d          -0.106  -0.541   2.486  0.00  0.00     0.270 C 
ATOM     19  H21 <0> d           0.553  -1.756   0.985  0.00  0.00     0.280 HD
ENDBRANCH  13  16
ENDBRANCH  12  13
ENDBRANCH   9  12
ENDBRANCH   1   8
BRANCH   3  20
ATOM     20  S1  <0> d          -0.514  -6.953  -0.837  0.00  0.00     0.256 S 
ATOM     21  O2  <0> d          -0.823  -8.102  -1.614  0.00  0.00    -0.201 OA
ATOM     22  O3  <0> d           0.614  -6.132  -1.107  0.00  0.00    -0.201 OA
BRANCH  20  23
ATOM     23  N2  <0> d          -0.359  -7.469   0.729  0.00  0.00    -0.324 N 
ATOM     24  H13 <0> d          -0.996  -7.178   1.401  0.00  0.00     0.169 HD
ATOM     25  H14 <0> d           0.367  -8.063   0.975  0.00  0.00     0.169 HD
ENDBRANCH  20  23
ENDBRANCH   3  20
TORSDOF 6
