REMARK  7 active torsions:
REMARK  status: ('A' for Active; 'I' for Inactive)
REMARK    1  A    between atoms: C2_2  and  C3_3 
REMARK    2  A    between atoms: C2_2  and  C9_9 
REMARK    3  A    between atoms: C3_3  and  C4_4 
REMARK    4  A    between atoms: C4_4  and  C5_5 
REMARK    5  A    between atoms: C5_5  and  C6_6 
REMARK    6  A    between atoms: C20_21  and  O3_29 
REMARK    7  A    between atoms: C24_25  and  O2_27 
ROOT
ATOM      1  C9  <0> d           0.606  -0.500  -1.313  0.00  0.00    -0.002 C 
ATOM      2  C10 <0> d           0.469  -2.031  -1.414  0.00  0.00     0.006 C 
ATOM      3  C11 <0> d          -0.357  -2.317  -2.689  0.00  0.00     0.006 C 
ATOM      4  C12 <0> d          -0.146  -1.054  -3.544  0.00  0.00    -0.001 C 
ATOM      5  C13 <0> d          -0.178   0.089  -2.516  0.00  0.00    -0.036 C 
ATOM      6  C14 <0> d          -1.610   0.333  -2.030  0.00  0.00     0.010 C 
ATOM      7  C15 <0> d          -2.539   0.587  -3.213  0.00  0.00     0.007 C 
ATOM      8  C16 <0> d          -2.573  -0.668  -4.093  0.00  0.00     0.002 C 
ATOM      9  C17 <0> d          -1.183  -0.910  -4.632  0.00  0.00     0.002 C 
ATOM     10  C18 <0> d          -1.208  -2.180  -5.493  0.00  0.00     0.087 C 
ATOM     11  C19 <0> d          -2.297  -2.046  -6.533  0.00  0.00     0.162 C 
ATOM     12  O1  <0> d          -2.067  -2.236  -7.703  0.00  0.00    -0.295 OA
ATOM     13  C20 <0> d          -3.687  -1.669  -6.062  0.00  0.00     0.128 C 
ATOM     14  C21 <0> d          -3.564  -0.440  -5.236  0.00  0.00    -0.002 C 
ATOM     15  C22 <0> d          -4.937  -0.078  -4.675  0.00  0.00     0.015 C 
ATOM     16  C23 <0> d          -5.474  -1.236  -3.832  0.00  0.00     0.032 C 
ATOM     17  C24 <0> d          -5.591  -2.486  -4.707  0.00  0.00     0.121 C 
ATOM     18  C25 <0> d          -4.247  -2.815  -5.217  0.00  0.00     0.078 C 
ATOM     19  C26 <0> d          -3.074   0.721  -6.104  0.00  0.00     0.019 C 
ATOM     20  C27 <0> d           0.474   1.363  -3.056  0.00  0.00     0.016 C 
ENDROOT
BRANCH   1  21
ATOM     21  C2  <0> d           0.002  -0.004   0.002  0.00  0.00    -0.014 C 
ATOM     22  C1  <0> d           0.205   1.508   0.118  0.00  0.00     0.010 C 
BRANCH  21  23
ATOM     23  C3  <0> d           0.692  -0.703   1.175  0.00  0.00     0.005 C 
BRANCH  23  24
ATOM     24  C4  <0> d           0.005  -0.301   2.483  0.00  0.00     0.001 C 
BRANCH  24  25
ATOM     25  C5  <0> d           0.695  -1.000   3.656  0.00  0.00     0.004 C 
BRANCH  25  26
ATOM     26  C6  <0> d           0.009  -0.599   4.963  0.00  0.00    -0.023 C 
ATOM     27  C7  <0> d          -1.428  -1.124   4.967  0.00  0.00     0.009 C 
ATOM     28  C8  <0> d           0.774  -1.197   6.146  0.00  0.00     0.009 C 
ENDBRANCH  25  26
ENDBRANCH  24  25
ENDBRANCH  23  24
ENDBRANCH  21  23
ENDBRANCH   1  21
BRANCH  13  29
ATOM     29  O3  <0> d          -4.535  -1.430  -7.186  0.00  0.00    -0.381 OA
ATOM     30  H43 <0> d          -4.636  -2.193  -7.773  0.00  0.00     0.211 HD
ENDBRANCH  13  29
BRANCH  17  31
ATOM     31  O2  <0> d          -6.103  -3.568  -3.926  0.00  0.00    -0.395 OA
ATOM     32  H39 <0> d          -6.977  -3.402  -3.549  0.00  0.00     0.210 HD
ENDBRANCH  17  31
TORSDOF 7
