REMARK  4 active torsions:
REMARK  status: ('A' for Active; 'I' for Inactive)
REMARK    1  A    between atoms: C3_3  and  C7_9 
REMARK    2  A    between atoms: C4_4  and  O1_8 
REMARK       I    between atoms: C7_9  and  N1_11 
REMARK    3  A    between atoms: N1_11  and  C8_12 
REMARK    4  A    between atoms: C11_15  and  N3_18 
ROOT
ATOM      1  C7  <0> d           2.530   4.045  -0.584  0.00  0.00     0.259 C 
ATOM      2  O2  <0> d           2.582   5.140  -1.110  0.00  0.00    -0.267 OA
ATOM      3  N1  <0> d           3.633   3.518  -0.015  0.00  0.00    -0.322 N 
ATOM      4  H5  <0> d           3.576   2.676   0.464  0.00  0.00     0.169 HD
ENDROOT
BRANCH   3   5
ATOM      5  C8  <0> d           4.859   4.186  -0.114  0.00  0.00     0.052 A 
ATOM      6  C12 <0> d           6.042   3.471  -0.225  0.00  0.00     0.148 A 
ATOM      7  N2  <0> d           7.200   4.094  -0.323  0.00  0.00    -0.241 NA
ATOM      8  C11 <0> d           7.283   5.414  -0.310  0.00  0.00     0.134 A 
ATOM      9  C10 <0> d           6.141   6.197  -0.196  0.00  0.00     0.053 A 
ATOM     10  C9  <0> d           4.907   5.579  -0.096  0.00  0.00     0.035 A 
BRANCH   8  11
ATOM     11  N3  <0> d           8.536   6.029  -0.412  0.00  0.00    -0.300 N 
ATOM     12  C15 <0> d           8.792   7.361  -0.319  0.00  0.00     0.215 A 
ATOM     13  N4  <0> d          10.076   7.547  -0.462  0.00  0.00    -0.254 NA
ATOM     14  C14 <0> d          10.678   6.365  -0.658  0.00  0.00     0.135 A 
ATOM     15  C13 <0> d           9.736   5.403  -0.630  0.00  0.00     0.118 A 
ENDBRANCH   8  11
ENDBRANCH   3   5
BRANCH   1  16
ATOM     16  C3  <0> d           1.262   3.293  -0.570  0.00  0.00     0.065 A 
ATOM     17  C2  <0> d           1.199   2.034   0.033  0.00  0.00     0.021 A 
ATOM     18  C1  <0> d           0.011   1.336   0.044  0.00  0.00     0.020 A 
ATOM     19  C6  <0> d          -1.123   1.877  -0.541  0.00  0.00     0.013 A 
ATOM     20  C5  <0> d          -1.074   3.122  -1.141  0.00  0.00     0.056 A 
ATOM     21 Br1  <0> d          -2.747   0.908  -0.519  0.00  0.00    -0.051 Br
ATOM     22  C4  <0> d           0.113   3.837  -1.161  0.00  0.00     0.082 A 
BRANCH  22  23
ATOM     23  O1  <0> d           0.163   5.059  -1.748  0.00  0.00    -0.360 OA
ATOM     24  H4  <0> d           0.393   5.034  -2.687  0.00  0.00     0.217 HD
ENDBRANCH  22  23
ENDBRANCH   1  16
TORSDOF 4
