REMARK  4 active torsions:
REMARK  status: ('A' for Active; 'I' for Inactive)
REMARK    1  A    between atoms: C2_2  and  C3_3 
REMARK    2  A    between atoms: C5_5  and  C19_26 
REMARK    3  A    between atoms: C8_9  and  C9_11 
REMARK       I    between atoms: N3_15  and  C13_16 
REMARK    4  A    between atoms: C13_16  and  C14_18 
ROOT
ATOM      1  C3  <0> d           1.450  -4.055  -6.960  0.00  0.00     0.085 C 
ATOM      2  C4  <0> d           1.146  -2.570  -6.732  0.00  0.00     0.061 C 
ATOM      3  C5  <0> d           0.310  -2.399  -5.458  0.00  0.00     0.221 C 
ATOM      4  N1  <0> d           0.952  -3.137  -4.367  0.00  0.00    -0.240 N 
ATOM      5  C6  <0> d           1.858  -4.131  -4.557  0.00  0.00     0.123 A 
ATOM      6  C7  <0> d           2.245  -4.580  -3.343  0.00  0.00     0.080 A 
ATOM      7  C8  <0> d           1.547  -3.843  -2.377  0.00  0.00     0.081 A 
ATOM      8  N2  <0> d           0.776  -2.979  -2.993  0.00  0.00    -0.173 NA
ATOM      9  N5  <0> d           2.261  -4.547  -5.828  0.00  0.00    -0.370 N 
ATOM     10  H26 <0> d           3.125  -5.202  -6.015  0.00  0.00     0.161 HD
ENDROOT
BRANCH   7  11
ATOM     11  C9  <0> d           1.667  -4.011  -0.884  0.00  0.00     0.141 C 
ATOM     12  N3  <0> d           1.302  -2.757  -0.209  0.00  0.00    -0.341 N 
ATOM     13  C12 <0> d           0.132  -3.007   0.653  0.00  0.00     0.127 C 
ATOM     14  C13 <0> d           1.935  -1.576  -0.351  0.00  0.00     0.226 C 
ATOM     15  C11 <0> d           0.174  -4.524   0.952  0.00  0.00     0.022 C 
ATOM     16  C10 <0> d           0.683  -5.096  -0.398  0.00  0.00     0.033 C 
ATOM     17  O1  <0> d           2.894  -1.487  -1.087  0.00  0.00    -0.273 OA
BRANCH  14  18
ATOM     18  C14 <0> d           1.450  -0.366   0.406  0.00  0.00     0.105 C 
ATOM     19  C17 <0> d           2.223   0.901  -0.024  0.00  0.00     0.139 C 
ATOM     20  N4  <0> d           1.237   1.988   0.001  0.00  0.00    -0.356 N 
ATOM     21  C16 <0> d          -0.018   1.509   0.010  0.00  0.00     0.220 C 
ATOM     22  C18 <0> d           1.578   3.413   0.014  0.00  0.00     0.152 C 
ATOM     23  C15 <0> d           0.002  -0.004   0.002  0.00  0.00     0.118 C 
ATOM     24  O2  <0> d          -1.022   2.190   0.019  0.00  0.00    -0.273 OA
ENDBRANCH  14  18
ENDBRANCH   7  11
BRANCH   3  25
ATOM     25  C19 <0> d           0.229  -0.915  -5.095  0.00  0.00     0.409 C 
ATOM     26  F1  <0> d           1.518  -0.414  -4.889  0.00  0.00    -0.169 F 
ATOM     27  F2  <0> d          -0.384  -0.212  -6.138  0.00  0.00    -0.169 F 
ATOM     28  F3  <0> d          -0.523  -0.762  -3.925  0.00  0.00    -0.169 F 
ENDBRANCH   3  25
BRANCH   1  29
ATOM     29  C2  <0> d           2.227  -4.226  -8.267  0.00  0.00     0.021 C 
ATOM     30  C1  <0> d           2.419  -5.717  -8.554  0.00  0.00     0.007 C 
ENDBRANCH   1  29
TORSDOF 4
