REMARK  6 active torsions:
REMARK  status: ('A' for Active; 'I' for Inactive)
REMARK    1  A    between atoms: C2_2  and  O1_3 
REMARK    2  A    between atoms: O1_3  and  C3_4 
REMARK    3  A    between atoms: C6_7  and  C9_10 
REMARK       I    between atoms: C9_10  and  N1_12 
REMARK    4  A    between atoms: C11_14  and  C18_22 
REMARK       I    between atoms: C18_22  and  N3_24 
REMARK    5  A    between atoms: N3_24  and  C19_25 
REMARK    6  A    between atoms: C19_25  and  C20_26 
ROOT
ATOM      1  C9  <0> d           1.108  -6.009  -1.843  0.00  0.00     0.253 C 
ATOM      2  O2  <0> d           0.737  -6.758  -0.961  0.00  0.00    -0.267 OA
ATOM      3  N1  <0> d           1.641  -6.512  -2.975  0.00  0.00    -0.346 N 
ATOM      4  C10 <0> d           2.261  -5.767  -4.096  0.00  0.00     0.141 C 
ATOM      5  C11 <0> d           3.471  -6.630  -4.516  0.00  0.00     0.106 C 
ATOM      6  C12 <0> d           3.122  -8.052  -4.044  0.00  0.00    -0.007 C 
ATOM      7  C13 <0> d           1.745  -7.935  -3.376  0.00  0.00     0.136 C 
ATOM      8  C14 <0> d           4.153  -8.541  -3.032  0.00  0.00     0.039 C 
ATOM      9  C15 <0> d           3.817  -9.977  -2.621  0.00  0.00     0.233 C 
ATOM     10  N2  <0> d           3.819 -10.841  -3.808  0.00  0.00    -0.075 N 
ATOM     11  C16 <0> d           2.762 -10.420  -4.735  0.00  0.00     0.233 C 
ATOM     12  C17 <0> d           3.053  -9.002  -5.236  0.00  0.00     0.039 C 
ATOM     13  H19 <0> d           4.714 -10.775  -4.269  0.00  0.00     0.277 HD
ATOM     14  H34 <0> d           3.657 -11.796  -3.527  0.00  0.00     0.277 HD
ENDROOT
BRANCH   5  15
ATOM     15  C18 <0> d           3.644  -6.599  -6.013  0.00  0.00     0.224 C 
ATOM     16  O3  <0> d           2.692  -6.367  -6.728  0.00  0.00    -0.273 OA
ATOM     17  N3  <0> d           4.855  -6.830  -6.557  0.00  0.00    -0.355 N 
ATOM     18  H24 <0> d           5.616  -7.015  -5.985  0.00  0.00     0.162 HD
BRANCH  17  19
ATOM     19  C19 <0> d           5.023  -6.799  -8.012  0.00  0.00     0.181 C 
BRANCH  19  20
ATOM     20  C20 <0> d           6.461  -7.086  -8.358  0.00  0.00     0.044 A 
ATOM     21  N5  <0> d           7.003  -8.299  -8.492  0.00  0.00    -0.343 N 
ATOM     22  C26 <0> d           8.285  -8.171  -8.802  0.00  0.00     0.112 A 
ATOM     23  H35 <0> d           6.532  -9.140  -8.382  0.00  0.00     0.167 HD
ATOM     24  N4  <0> d           8.576  -6.833  -8.860  0.00  0.00    -0.311 N 
ATOM     25  C25 <0> d           9.300  -9.116  -9.052  0.00  0.00     0.049 A 
ATOM     26  C21 <0> d           7.419  -6.159  -8.578  0.00  0.00     0.125 A 
ATOM     27  C22 <0> d           9.840  -6.412  -9.157  0.00  0.00     0.014 A 
ATOM     28  C23 <0> d          10.822  -7.305  -9.399  0.00  0.00     0.025 A 
ATOM     29  C27 <0> d          10.141  -4.937  -9.217  0.00  0.00     0.068 C 
ATOM     30  C24 <0> d          10.556  -8.684  -9.347  0.00  0.00     0.006 A 
ENDBRANCH  19  20
ENDBRANCH  17  19
ENDBRANCH   5  15
BRANCH   1  31
ATOM     31  C6  <0> d           0.975  -4.549  -1.676  0.00  0.00     0.032 A 
ATOM     32  C5  <0> d           0.899  -3.719  -2.797  0.00  0.00     0.020 A 
ATOM     33  C4  <0> d           0.775  -2.357  -2.637  0.00  0.00     0.038 A 
ATOM     34  C3  <0> d           0.725  -1.807  -1.361  0.00  0.00     0.068 A 
ATOM     35  C8  <0> d           0.806  -2.629  -0.243  0.00  0.00     0.038 A 
ATOM     36  C7  <0> d           0.925  -3.992  -0.395  0.00  0.00     0.020 A 
BRANCH  34  37
ATOM     37  O1  <0> d           0.603  -0.465  -1.207  0.00  0.00    -0.352 OA
BRANCH  37  38
ATOM     38  C2  <0> d           0.524   0.321  -2.398  0.00  0.00     0.171 C 
ATOM     39  C1  <0> d           0.391   1.799  -2.026  0.00  0.00     0.034 C 
ENDBRANCH  37  38
ENDBRANCH  34  37
ENDBRANCH   1  31
TORSDOF 6
