REMARK  5 active torsions:
REMARK  status: ('A' for Active; 'I' for Inactive)
REMARK       I    between atoms: C2_2  and  N1_4 
REMARK    1  A    between atoms: N2_7  and  C7_10 
REMARK    2  A    between atoms: C8_11  and  C17_22 
REMARK    3  A    between atoms: C13_16  and  S1_20 
REMARK    4  A    between atoms: C17_22  and  N4_23 
REMARK    5  A    between atoms: N4_23  and  C18_24 
ROOT
ATOM      1  C7  <0> d          -4.375   3.942  -2.638  0.00  0.00     0.114 A 
ATOM      2  C8  <0> d          -4.684   5.256  -2.261  0.00  0.00     0.009 A 
ATOM      3  C9  <0> d          -5.492   6.017  -3.053  0.00  0.00     0.026 A 
ATOM      4  C10 <0> d          -6.003   5.445  -4.234  0.00  0.00    -0.007 A 
ATOM      5  C11 <0> d          -6.844   6.176  -5.090  0.00  0.00     0.015 A 
ATOM      6  C12 <0> d          -7.323   5.599  -6.224  0.00  0.00     0.019 A 
ATOM      7  C13 <0> d          -6.989   4.279  -6.553  0.00  0.00     0.002 A 
ATOM      8  C14 <0> d          -6.166   3.536  -5.733  0.00  0.00     0.051 A 
ATOM      9  C15 <0> d          -5.658   4.109  -4.557  0.00  0.00     0.070 A 
ATOM     10  N3  <0> d          -4.856   3.411  -3.744  0.00  0.00    -0.235 NA
ENDROOT
BRANCH   2  11
ATOM     11  C17 <0> d          -4.120   5.828  -0.987  0.00  0.00     0.275 C 
BRANCH  11  12
ATOM     12  N4  <0> d          -2.788   6.389  -1.249  0.00  0.00    -0.063 N 
ATOM     13  H22 <0> d          -2.749   6.776  -2.278  0.00  0.00     0.278 HD
ATOM     14  H33 <0> d          -2.589   7.208  -0.542  0.00  0.00     0.278 HD
BRANCH  12  15
ATOM     15  C18 <0> d          -1.745   5.367  -1.091  0.00  0.00     0.219 C 
ATOM     16  C23 <0> d          -1.088   5.532   0.254  0.00  0.00    -0.021 A 
ATOM     17  C22 <0> d           0.273   5.426   0.432  0.00  0.00    -0.050 A 
ATOM     18  C24 <0> d          -1.905   5.798   1.345  0.00  0.00     0.010 A 
ATOM     19  C21 <0> d           1.221   5.154  -0.707  0.00  0.00     0.039 C 
ATOM     20  C27 <0> d           0.815   5.581   1.701  0.00  0.00     0.007 A 
ATOM     21  C20 <0> d           0.466   4.591  -1.910  0.00  0.00     0.007 C 
ATOM     22  C19 <0> d          -0.719   5.516  -2.212  0.00  0.00     0.038 C 
ATOM     23  C26 <0> d           0.002   5.844   2.784  0.00  0.00     0.001 A 
ATOM     24  C25 <0> d          -1.365   5.955   2.605  0.00  0.00     0.001 A 
ENDBRANCH  12  15
ENDBRANCH  11  12
ENDBRANCH   2  11
BRANCH   1  25
ATOM     25  N2  <0> d          -3.548   3.181  -1.825  0.00  0.00    -0.264 NA
ATOM     26  C4  <0> d          -2.796   2.196  -2.614  0.00  0.00     0.117 C 
ATOM     27  C3  <0> d          -1.763   1.505  -1.710  0.00  0.00     0.140 C 
ATOM     28  N1  <0> d          -2.467   0.957  -0.540  0.00  0.00    -0.350 N 
ATOM     29  C2  <0> d          -2.302  -0.329  -0.174  0.00  0.00     0.215 C 
ATOM     30  C6  <0> d          -3.350   1.852   0.223  0.00  0.00     0.140 C 
ATOM     31  C1  <0> d          -1.397  -1.231  -0.973  0.00  0.00     0.117 C 
ATOM     32  O1  <0> d          -2.887  -0.763   0.796  0.00  0.00    -0.274 OA
ATOM     33  C5  <0> d          -4.316   2.531  -0.754  0.00  0.00     0.117 C 
ENDBRANCH   1  25
BRANCH   7  34
ATOM     34  S1  <0> d          -7.627   3.562  -8.030  0.00  0.00    -0.134 SA
ATOM     35  C16 <0> d          -8.631   4.883  -8.762  0.00  0.00     0.095 C 
ENDBRANCH   7  34
TORSDOF 5
