REMARK  3 active torsions:
REMARK  status: ('A' for Active; 'I' for Inactive)
REMARK    1  A    between atoms: C8_9  and  C10_13 
REMARK    2  A    between atoms: C9_10  and  N2_12 
REMARK    3  A    between atoms: C10_13  and  O2_15 
ROOT
ATOM      1  C1  <0> d          -3.949   1.070   2.904  0.00  0.00     0.271 C 
ATOM      2  N1  <0> d          -3.720   2.445   3.367  0.00  0.00    -0.062 N 
ATOM      3  C2  <0> d          -2.290   2.662   3.701  0.00  0.00     0.193 C 
ATOM      4  C3  <0> d          -2.088   4.188   3.664  0.00  0.00     0.036 C 
ATOM      5  C4  <0> d          -3.270   4.716   2.790  0.00  0.00     0.041 C 
ATOM      6  C5  <0> d          -3.968   3.430   2.267  0.00  0.00     0.228 C 
ATOM      7  C6  <0> d          -3.115   2.948   1.124  0.00  0.00     0.023 A 
ATOM      8  C7  <0> d          -1.943   2.288   1.264  0.00  0.00    -0.022 A 
ATOM      9  C8  <0> d          -1.291   1.926   0.019  0.00  0.00     0.080 A 
ATOM     10  C9  <0> d          -1.925   2.291  -1.166  0.00  0.00     0.085 A 
ATOM     11  S1  <0> d          -3.364   3.089  -0.616  0.00  0.00    -0.074 SA
ATOM     12  C12 <0> d          -1.410   1.974   2.656  0.00  0.00     0.074 C 
ATOM     13  H17 <0> d          -4.390   2.567   4.231  0.00  0.00     0.280 HD
ENDROOT
BRANCH   9  14
ATOM     14  C10 <0> d          -0.014   1.212   0.009  0.00  0.00     0.296 C 
ATOM     15  O1  <0> d           0.002  -0.004   0.002  0.00  0.00    -0.259 OA
BRANCH  14  16
ATOM     16  O2  <0> d           1.145   1.903   0.001  0.00  0.00    -0.322 OA
ATOM     17  C11 <0> d           2.353   1.141  -0.014  0.00  0.00     0.213 C 
ENDBRANCH  14  16
ENDBRANCH   9  14
BRANCH  10  18
ATOM     18  N2  <0> d          -1.510   2.069  -2.465  0.00  0.00    -0.393 N 
ATOM     19  H10 <0> d          -2.126   2.421  -3.306  0.00  0.00     0.156 HD
ATOM     20  H11 <0> d          -0.565   1.541  -2.658  0.00  0.00     0.156 HD
ENDBRANCH  10  18
TORSDOF 3
