REMARK  4 active torsions:
REMARK  status: ('A' for Active; 'I' for Inactive)
REMARK    1  A    between atoms: C3_5  and  S1_8 
REMARK    2  A    between atoms: S1_8  and  C4_9 
REMARK    3  A    between atoms: C4_9  and  C5_10 
REMARK    4  A    between atoms: C5_10  and  N5_13 
ROOT
ATOM      1  C5  <0> d          -6.475   2.773  -1.982  0.00  0.00     0.335 C 
ATOM      2  C6  <0> d          -7.319   2.669  -0.780  0.00  0.00     0.096 C 
ATOM      3  N4  <0> d          -7.971   2.589   0.146  0.00  0.00    -0.195 NA
ENDROOT
BRANCH   1   4
ATOM      4  C4  <0> d          -5.030   2.422  -1.621  0.00  0.00     0.133 C 
BRANCH   4   5
ATOM      5  S1  <0> d          -3.964   2.692  -3.064  0.00  0.00    -0.087 SA
BRANCH   5   6
ATOM      6  C3  <0> d          -2.356   2.250  -2.495  0.00  0.00     0.184 A 
ATOM      7  N1  <0> d          -2.051   1.825  -1.287  0.00  0.00    -0.207 NA
ATOM      8  C2  <0> d          -0.742   1.585  -1.213  0.00  0.00     0.145 A 
ATOM      9  C1  <0> d          -0.013   1.086   0.008  0.00  0.00     0.095 C 
ATOM     10  N3  <0> d          -0.191   1.857  -2.365  0.00  0.00    -0.158 NA
ATOM     11  N2  <0> d          -1.218   2.286  -3.221  0.00  0.00    -0.254 N 
ATOM     12  H1  <0> d          -1.127   2.558  -4.147  0.00  0.00     0.191 HD
ENDBRANCH   5   6
ENDBRANCH   4   5
ENDBRANCH   1   4
BRANCH   1  13
ATOM     13  N5  <0> d          -6.964   1.841  -3.006  0.00  0.00     0.098 N 
ATOM     14  C7  <0> d          -8.048   2.445  -3.793  0.00  0.00     0.308 C 
ATOM     15  H8  <0> d          -6.212   1.533  -3.604  0.00  0.00     0.317 HD
ENDBRANCH   1  13
TORSDOF 4
