REMARK  6 active torsions:
REMARK  status: ('A' for Active; 'I' for Inactive)
REMARK    1  A    between atoms: C7_7  and  C11_14 
REMARK    2  A    between atoms: C11_14  and  C12_15 
REMARK    3  A    between atoms: C12_15  and  N2_16 
REMARK       I    between atoms: N2_16  and  C13_17 
REMARK    4  A    between atoms: C13_17  and  C14_19 
REMARK    5  A    between atoms: C17_22  and  S1_25 
REMARK    6  A    between atoms: S1_25  and  N3_28 
ROOT
ATOM      1  N2  <0> d          -0.011   0.966   0.007  0.00  0.00    -0.357 N 
ATOM      2  C13 <0> d          -1.187   1.624   0.017  0.00  0.00     0.251 C 
ATOM      3  O2  <0> d          -1.204   2.839   0.023  0.00  0.00    -0.268 OA
ATOM      4  H13 <0> d           0.002  -0.004   0.002  0.00  0.00     0.162 HD
ENDROOT
BRANCH   1   5
ATOM      5  C12 <0> d           1.248   1.716  -0.001  0.00  0.00     0.128 C 
BRANCH   5   6
ATOM      6  C11 <0> d           2.424   0.737  -0.017  0.00  0.00     0.064 C 
BRANCH   6   7
ATOM      7  C7  <0> d           3.719   1.508  -0.025  0.00  0.00     0.012 A 
ATOM      8  C6  <0> d           4.362   1.760   1.141  0.00  0.00     0.026 A 
ATOM      9  C5  <0> d           5.618   2.511   1.099  0.00  0.00    -0.009 A 
ATOM     10  C4  <0> d           6.328   2.801   2.269  0.00  0.00     0.014 A 
ATOM     11  C9  <0> d           6.112   2.946  -0.146  0.00  0.00     0.045 A 
ATOM     12  C3  <0> d           7.497   3.504   2.196  0.00  0.00     0.007 A 
ATOM     13  C2  <0> d           7.987   3.934   0.970  0.00  0.00    -0.060 A 
ATOM     14  C1  <0> d           9.278   4.709   0.913  0.00  0.00     0.048 C 
ATOM     15  C10 <0> d           7.304   3.660  -0.196  0.00  0.00     0.037 A 
ATOM     16  N1  <0> d           5.409   2.657  -1.296  0.00  0.00    -0.322 N 
ATOM     17  C8  <0> d           4.259   1.961  -1.248  0.00  0.00     0.252 A 
ATOM     18  H1  <0> d           5.759   2.970  -2.179  0.00  0.00     0.169 HD
ATOM     19  O1  <0> d           3.667   1.720  -2.285  0.00  0.00    -0.268 OA
ENDBRANCH   6   7
ENDBRANCH   5   6
ENDBRANCH   1   5
BRANCH   2  20
ATOM     20  C14 <0> d          -2.458   0.867   0.018  0.00  0.00     0.032 A 
ATOM     21  C19 <0> d          -3.677   1.546   0.028  0.00  0.00     0.018 A 
ATOM     22  C18 <0> d          -4.859   0.834   0.029  0.00  0.00     0.026 A 
ATOM     23  C17 <0> d          -4.837  -0.550   0.021  0.00  0.00     0.079 A 
ATOM     24  C16 <0> d          -3.631  -1.228   0.012  0.00  0.00     0.026 A 
ATOM     25  C15 <0> d          -2.442  -0.528   0.005  0.00  0.00     0.018 A 
BRANCH  23  26
ATOM     26  S1  <0> d          -6.351  -1.452   0.024  0.00  0.00     0.260 S 
ATOM     27  O3  <0> d          -6.059  -2.732   0.567  0.00  0.00    -0.200 OA
ATOM     28  O4  <0> d          -7.334  -0.592   0.585  0.00  0.00    -0.200 OA
BRANCH  26  29
ATOM     29  N3  <0> d          -6.779  -1.693  -1.557  0.00  0.00    -0.315 N 
ATOM     30  C20 <0> d          -6.320  -2.890  -2.265  0.00  0.00     0.162 C 
ATOM     31  C21 <0> d          -7.618  -0.710  -2.247  0.00  0.00     0.162 C 
ENDBRANCH  26  29
ENDBRANCH  23  26
ENDBRANCH   2  20
TORSDOF 6
