REMARK  4 active torsions:
REMARK  status: ('A' for Active; 'I' for Inactive)
REMARK    1  A    between atoms: C4_4  and  C7_8 
REMARK       I    between atoms: C7_8  and  N1_10 
REMARK    2  A    between atoms: N1_10  and  C9_12 
REMARK    3  A    between atoms: C9_12  and  C11_14 
REMARK    4  A    between atoms: C15_18  and  N2_20 
ROOT
ATOM      1  C7  <0> d          -1.425  -3.879  -0.370  0.00  0.00     0.256 C 
ATOM      2  O2  <0> d          -1.316  -5.060  -0.638  0.00  0.00    -0.267 OA
ATOM      3  N1  <0> d          -2.597  -3.398   0.089  0.00  0.00    -0.344 N 
ATOM      4  C8  <0> d          -2.764  -1.959   0.307  0.00  0.00     0.154 C 
ENDROOT
BRANCH   3   5
ATOM      5  C9  <0> d          -3.705  -4.315   0.372  0.00  0.00     0.116 C 
ATOM      6  C10 <0> d          -4.199  -4.092   1.803  0.00  0.00     0.037 C 
BRANCH   5   7
ATOM      7  C11 <0> d          -4.831  -4.054  -0.595  0.00  0.00    -0.034 A 
ATOM      8  C16 <0> d          -5.402  -2.799  -0.667  0.00  0.00     0.038 A 
ATOM      9  C15 <0> d          -6.436  -2.558  -1.563  0.00  0.00     0.026 A 
ATOM     10  C14 <0> d          -6.900  -3.585  -2.375  0.00  0.00     0.029 A 
ATOM     11  C13 <0> d          -6.329  -4.840  -2.294  0.00  0.00     0.003 A 
ATOM     12  C12 <0> d          -5.296  -5.074  -1.405  0.00  0.00     0.009 A 
BRANCH   9  13
ATOM     13  N2  <0> d          -7.012  -1.288  -1.642  0.00  0.00    -0.399 N 
ATOM     14  H19 <0> d          -7.737  -1.122  -2.265  0.00  0.00     0.156 HD
ATOM     15  H20 <0> d          -6.687  -0.572  -1.074  0.00  0.00     0.156 HD
ENDBRANCH   9  13
ENDBRANCH   5   7
ENDBRANCH   3   5
BRANCH   1  16
ATOM     16  C4  <0> d          -0.276  -2.974  -0.548  0.00  0.00     0.063 A 
ATOM     17  C3  <0> d          -0.303  -1.592  -1.051  0.00  0.00     0.051 A 
ATOM     18  C2  <0> d           0.971  -1.170  -1.038  0.00  0.00     0.050 A 
ATOM     19  C1  <0> d           1.444   0.194  -1.471  0.00  0.00     0.076 C 
ATOM     20  O1  <0> d           1.757  -2.159  -0.584  0.00  0.00    -0.319 OA
ATOM     21  C5  <0> d           1.034  -3.242  -0.281  0.00  0.00     0.065 A 
ATOM     22  C6  <0> d           1.576  -4.540   0.259  0.00  0.00     0.077 C 
ENDBRANCH   1  16
TORSDOF 4
