REMARK  3 active torsions:
REMARK  status: ('A' for Active; 'I' for Inactive)
REMARK    1  A    between atoms: O1_2  and  C2_3 
REMARK    2  A    between atoms: C5_6  and  C8_9 
REMARK    3  A    between atoms: C12_13  and  C20_24 
ROOT
ATOM      1  C8  <0> d           1.298  -0.487   0.661  0.00  0.00     0.031 C 
ATOM      2  C9  <0> d           2.478   0.133  -0.089  0.00  0.00     0.068 C 
ATOM      3  C10 <0> d           2.374   1.640  -0.043  0.00  0.00     0.039 C 
ATOM      4  C11 <0> d           1.172   2.250   0.003  0.00  0.00     0.039 C 
ATOM      5  C12 <0> d           1.033   3.755   0.055  0.00  0.00     0.182 C 
ATOM      6  N1  <0> d           2.300   4.392  -0.291  0.00  0.00    -0.167 N 
ATOM      7  C13 <0> d           2.571   5.690  -0.617  0.00  0.00     0.080 A 
ATOM      8  C14 <0> d           1.772   6.821  -0.738  0.00  0.00     0.032 A 
ATOM      9  C15 <0> d           2.401   8.003  -1.095  0.00  0.00     0.002 A 
ATOM     10  C16 <0> d           3.764   8.069  -1.323  0.00  0.00     0.002 A 
ATOM     11  C17 <0> d           4.581   6.959  -1.210  0.00  0.00     0.032 A 
ATOM     12  C18 <0> d           3.968   5.753  -0.851  0.00  0.00     0.076 A 
ATOM     13  N2  <0> d           4.464   4.515  -0.660  0.00  0.00    -0.189 N 
ATOM     14  C19 <0> d           3.494   3.706  -0.333  0.00  0.00     0.686 A 
ATOM     15  N3  <0> d           3.550   2.351  -0.055  0.00  0.00    -0.194 N 
ATOM     16  C28 <0> d          -0.018   1.499   0.010  0.00  0.00     0.160 C 
ATOM     17  O2  <0> d          -1.087   2.078   0.018  0.00  0.00    -0.293 OA
ATOM     18  C29 <0> d           0.002  -0.004   0.002  0.00  0.00     0.093 C 
ATOM     19  H17 <0> d           4.503   1.842   0.152  0.00  0.00     0.184 HD
ATOM     20  H25 <0> d           5.540   4.328  -0.787  0.00  0.00     0.184 HD
ENDROOT
BRANCH   5  21
ATOM     21  C20 <0> d           0.632   4.171   1.447  0.00  0.00    -0.002 A 
ATOM     22  C23 <0> d          -0.585   4.894   1.823  0.00  0.00     0.001 A 
ATOM     23  C22 <0> d          -0.525   5.057   3.220  0.00  0.00     0.043 A 
ATOM     24  C24 <0> d          -1.676   5.395   1.111  0.00  0.00     0.014 A 
ATOM     25  N4  <0> d           0.647   4.472   3.646  0.00  0.00    -0.365 N 
ATOM     26  C27 <0> d          -1.559   5.717   3.874  0.00  0.00     0.030 A 
ATOM     27  C21 <0> d           1.320   3.945   2.577  0.00  0.00     0.099 A 
ATOM     28  H3  <0> d           1.069   4.386   4.658  0.00  0.00     0.165 HD
ATOM     29  C26 <0> d          -2.627   6.203   3.151  0.00  0.00     0.002 A 
ATOM     30  C25 <0> d          -2.682   6.040   1.774  0.00  0.00     0.001 A 
ENDBRANCH   5  21
BRANCH   1  31
ATOM     31  C5  <0> d           1.379  -1.990   0.582  0.00  0.00    -0.053 A 
ATOM     32  C4  <0> d           1.452  -2.739   1.742  0.00  0.00     0.010 A 
ATOM     33  C3  <0> d           1.526  -4.117   1.672  0.00  0.00     0.037 A 
ATOM     34  C2  <0> d           1.528  -4.749   0.437  0.00  0.00     0.068 A 
ATOM     35  C7  <0> d           1.455  -3.994  -0.726  0.00  0.00     0.037 A 
ATOM     36  C6  <0> d           1.375  -2.617  -0.650  0.00  0.00     0.010 A 
BRANCH  34  37
ATOM     37  O1  <0> d           1.601  -6.104   0.365  0.00  0.00    -0.356 OA
ATOM     38  C1  <0> d           1.598  -6.686  -0.940  0.00  0.00     0.210 C 
ENDBRANCH  34  37
ENDBRANCH   1  31
TORSDOF 3
