REMARK  2 active torsions:
REMARK  status: ('A' for Active; 'I' for Inactive)
REMARK    1  A    between atoms: C8_8  and  C10_12 
REMARK       I    between atoms: C10_12  and  N1_14 
REMARK    2  A    between atoms: N1_14  and  N2_15 
ROOT
ATOM      1  C1  <0> d          -7.786  -1.528   3.406  0.00  0.00     0.001 A 
ATOM      2  C2  <0> d          -8.525  -1.508   2.232  0.00  0.00     0.001 A 
ATOM      3  C3  <0> d          -8.015  -0.932   1.087  0.00  0.00     0.018 A 
ATOM      4  C4  <0> d          -6.745  -0.365   1.112  0.00  0.00     0.050 A 
ATOM      5  C5  <0> d          -5.990  -0.385   2.308  0.00  0.00    -0.017 A 
ATOM      6  C6  <0> d          -6.525  -0.972   3.454  0.00  0.00     0.012 A 
ATOM      7  C7  <0> d          -4.657   0.223   2.295  0.00  0.00     0.055 A 
ATOM      8  C8  <0> d          -4.195   0.778   1.149  0.00  0.00     0.149 A 
ATOM      9  O1  <0> d          -4.918   0.800   0.012  0.00  0.00    -0.269 OA
ATOM     10  C9  <0> d          -6.147   0.264  -0.076  0.00  0.00     0.299 A 
ATOM     11  O2  <0> d          -6.761   0.302  -1.125  0.00  0.00    -0.259 OA
ENDROOT
BRANCH   8  12
ATOM     12  C10 <0> d          -2.853   1.386   1.148  0.00  0.00     0.294 C 
ATOM     13  O3  <0> d          -2.183   1.383   2.163  0.00  0.00    -0.264 OA
ATOM     14  N1  <0> d          -2.368   1.945   0.021  0.00  0.00    -0.253 N 
ATOM     15  H6  <0> d          -2.902   1.947  -0.788  0.00  0.00     0.191 HD
BRANCH  14  16
ATOM     16  N2  <0> d          -1.092   2.523   0.020  0.00  0.00    -0.203 N 
ATOM     17  C13 <0> d          -0.021   1.708   0.011  0.00  0.00     0.163 A 
ATOM     18  S1  <0> d           1.370   2.829   0.004  0.00  0.00    -0.089 SA
ATOM     19  S2  <0> d           0.002  -0.004   0.002  0.00  0.00    -0.051 SA
ATOM     20  C12 <0> d           0.416   4.399   0.022  0.00  0.00     0.186 A 
ATOM     21  C11 <0> d          -1.000   3.842   0.032  0.00  0.00     0.254 A 
ATOM     22  O4  <0> d          -1.978   4.560   0.045  0.00  0.00    -0.270 OA
ENDBRANCH  14  16
ENDBRANCH   8  12
TORSDOF 2
