REMARK  4 active torsions:
REMARK  status: ('A' for Active; 'I' for Inactive)
REMARK    1  A    between atoms: N1_2  and  C2_3 
REMARK    2  A    between atoms: N1_2  and  S1_9 
REMARK    3  A    between atoms: C5_7  and  O1_8 
REMARK    4  A    between atoms: S1_9  and  C6_12 
ROOT
ATOM      1  S1  <0> d          -0.000  -0.824  -1.437  0.00  0.00     0.265 S 
ATOM      2  O2  <0> d          -0.531  -2.115  -1.167  0.00  0.00    -0.200 OA
ATOM      3  O3  <0> d          -0.572   0.049  -2.401  0.00  0.00    -0.200 OA
ENDROOT
BRANCH   1   4
ATOM      4  N1  <0> d           0.002  -0.004   0.002  0.00  0.00    -0.302 N 
ATOM      5  C1  <0> d          -0.018   1.461   0.010  0.00  0.00     0.163 C 
BRANCH   4   6
ATOM      6  C2  <0> d           0.024  -0.743   1.267  0.00  0.00     0.151 C 
ATOM      7  C5  <0> d           1.261  -0.346   2.098  0.00  0.00     0.168 C 
ATOM      8  C4  <0> d           0.689   0.254   3.403  0.00  0.00     0.266 C 
ATOM      9  N2  <0> d          -0.666  -0.344   3.527  0.00  0.00    -0.071 N 
ATOM     10  C3  <0> d          -1.190  -0.353   2.137  0.00  0.00     0.261 C 
ATOM     11  H8  <0> d          -1.250   0.226   4.121  0.00  0.00     0.277 HD
ATOM     12  H14 <0> d          -0.605  -1.284   3.888  0.00  0.00     0.277 HD
BRANCH   7  13
ATOM     13  O1  <0> d           2.056  -1.498   2.387  0.00  0.00    -0.392 OA
ATOM     14  H11 <0> d           2.849  -1.308   2.908  0.00  0.00     0.210 HD
ENDBRANCH   7  13
ENDBRANCH   4   6
ENDBRANCH   1   4
BRANCH   1  15
ATOM     15  C6  <0> d           1.682  -1.059  -1.905  0.00  0.00     0.135 A 
ATOM     16  C11 <0> d           2.361  -2.192  -1.496  0.00  0.00     0.040 A 
ATOM     17  C10 <0> d           3.680  -2.380  -1.868  0.00  0.00     0.063 A 
ATOM     18 Br1  <0> d           1.485  -3.488  -0.433  0.00  0.00    -0.049 Br
ATOM     19  C9  <0> d           4.324  -1.429  -2.641  0.00  0.00     0.120 A 
ATOM     20  C8  <0> d           3.646  -0.292  -3.046  0.00  0.00     0.086 A 
ATOM     21  F1  <0> d           5.614  -1.610  -3.000  0.00  0.00    -0.206 F 
ATOM     22  C7  <0> d           2.325  -0.107  -2.678  0.00  0.00     0.143 A 
ATOM     23  F2  <0> d           1.662   1.002  -3.074  0.00  0.00    -0.204 F 
ENDBRANCH   1  15
TORSDOF 4
