REMARK  6 active torsions:
REMARK  status: ('A' for Active; 'I' for Inactive)
REMARK    1  A    between atoms: C13_15  and  C14_17 
REMARK    2  A    between atoms: C14_17  and  C15_18 
REMARK    3  A    between atoms: C15_18  and  C16_19 
REMARK       I    between atoms: C16_19  and  N3_21 
REMARK    4  A    between atoms: N4_24  and  C19_27 
REMARK    5  A    between atoms: C19_27  and  C20_28 
REMARK    6  A    between atoms: C20_28  and  C21_29 
ROOT
ATOM      1  C1  <0> d          -0.018   1.503   0.010  0.00  0.00     0.049 C 
ATOM      2  C2  <0> d           0.002  -0.004   0.002  0.00  0.00    -0.054 A 
ATOM      3  C3  <0> d           0.006  -0.686  -1.202  0.00  0.00     0.008 A 
ATOM      4  C4  <0> d           0.025  -2.069  -1.209  0.00  0.00     0.013 A 
ATOM      5  C5  <0> d           0.041  -2.765  -0.021  0.00  0.00     0.018 A 
ATOM      6  C6  <0> d           0.037  -2.090   1.196  0.00  0.00     0.050 A 
ATOM      7  C7  <0> d           0.023  -0.697   1.195  0.00  0.00    -0.029 A 
ATOM      8  C8  <0> d           0.024   0.056   2.500  0.00  0.00     0.051 C 
ATOM      9  N1  <0> d           0.054  -3.001   2.254  0.00  0.00    -0.324 N 
ATOM     10  C9  <0> d           0.070  -4.278   1.825  0.00  0.00     0.267 A 
ATOM     11  O1  <0> d           0.088  -5.274   2.516  0.00  0.00    -0.270 OA
ATOM     12  C10 <0> d           0.063  -4.228   0.321  0.00  0.00     0.279 A 
ATOM     13  C11 <0> d           1.295  -4.926  -0.268  0.00  0.00     0.147 A 
ATOM     14  C12 <0> d           0.776  -5.602  -1.568  0.00  0.00     0.128 A 
ATOM     15  C13 <0> d          -0.716  -5.216  -1.648  0.00  0.00     0.237 C 
ATOM     16  N2  <0> d          -1.107  -4.932  -0.235  0.00  0.00     0.113 N 
ATOM     17  C17 <0> d           0.912  -7.078  -1.272  0.00  0.00     0.233 A 
ATOM     18  O3  <0> d           0.605  -7.975  -2.027  0.00  0.00    -0.272 OA
ATOM     19  N4  <0> d           1.423  -7.240  -0.046  0.00  0.00    -0.287 N 
ATOM     20  C18 <0> d           1.689  -6.089   0.614  0.00  0.00     0.234 A 
ATOM     21  O4  <0> d           2.161  -5.996   1.726  0.00  0.00    -0.272 OA
ATOM     22  H12 <0> d           0.054  -2.744   3.189  0.00  0.00     0.169 HD
ATOM     23  H13 <0> d          -1.294  -5.782   0.276  0.00  0.00     0.318 HD
ENDROOT
BRANCH  15  24
ATOM     24  C14 <0> d          -1.539  -6.387  -2.189  0.00  0.00     0.045 C 
BRANCH  24  25
ATOM     25  C15 <0> d          -2.992  -5.944  -2.377  0.00  0.00     0.105 C 
BRANCH  25  26
ATOM     26  C16 <0> d          -3.803  -7.097  -2.910  0.00  0.00     0.215 C 
ATOM     27  O2  <0> d          -3.272  -8.167  -3.119  0.00  0.00    -0.274 OA
ATOM     28  N3  <0> d          -5.119  -6.939  -3.155  0.00  0.00    -0.370 N 
ATOM     29  H18 <0> d          -5.544  -6.083  -2.988  0.00  0.00     0.159 HD
ATOM     30  H19 <0> d          -5.641  -7.681  -3.498  0.00  0.00     0.159 HD
ENDBRANCH  25  26
ENDBRANCH  24  25
ENDBRANCH  15  24
BRANCH  19  31
ATOM     31  C19 <0> d           1.681  -8.559   0.536  0.00  0.00     0.139 C 
BRANCH  31  32
ATOM     32  C20 <0> d           3.103  -9.002   0.186  0.00  0.00     0.059 C 
BRANCH  32  33
ATOM     33  C21 <0> d           3.369 -10.359   0.785  0.00  0.00    -0.057 A 
ATOM     34  C26 <0> d           3.083 -11.502   0.061  0.00  0.00     0.007 A 
ATOM     35  C25 <0> d           3.331 -12.746   0.609  0.00  0.00     0.001 A 
ATOM     36  C24 <0> d           3.856 -12.848   1.884  0.00  0.00     0.000 A 
ATOM     37  C23 <0> d           4.137 -11.706   2.609  0.00  0.00     0.001 A 
ATOM     38  C22 <0> d           3.893 -10.461   2.060  0.00  0.00     0.007 A 
ENDBRANCH  32  33
ENDBRANCH  31  32
ENDBRANCH  19  31
TORSDOF 6
