REMARK  4 active torsions:
REMARK  status: ('A' for Active; 'I' for Inactive)
REMARK    1  A    between atoms: C2_2  and  C3_3 
REMARK    2  A    between atoms: C2_2  and  N3_16 
REMARK       I    between atoms: C3_3  and  N1_5 
REMARK    3  A    between atoms: N1_5  and  C4_6 
REMARK    4  A    between atoms: C7_9  and  N2_13 
ROOT
ATOM      1  C4  <0> d           2.679  -0.681  -2.557  0.00  0.00     0.052 A 
ATOM      2  C5  <0> d           2.007  -0.926  -3.748  0.00  0.00     0.033 A 
ATOM      3  C6  <0> d           2.688  -1.454  -4.827  0.00  0.00     0.038 A 
ATOM      4  C7  <0> d           4.037  -1.739  -4.723  0.00  0.00     0.104 A 
ATOM      5  C8  <0> d           4.709  -1.497  -3.540  0.00  0.00     0.057 A 
ATOM      6  C9  <0> d           4.035  -0.963  -2.458  0.00  0.00     0.040 A 
ATOM      7 Br1  <0> d           4.957  -0.624  -0.842  0.00  0.00    -0.049 Br
ENDROOT
BRANCH   1   8
ATOM      8  N1  <0> d           1.991  -0.146  -1.462  0.00  0.00    -0.324 N 
ATOM      9  C3  <0> d           0.706  -0.485  -1.241  0.00  0.00     0.252 C 
ATOM     10  O1  <0> d           0.120  -1.190  -2.036  0.00  0.00    -0.271 OA
ATOM     11  H5  <0> d           2.440   0.469  -0.861  0.00  0.00     0.169 HD
BRANCH   9  12
ATOM     12  C2  <0> d          -0.004   0.010  -0.007  0.00  0.00     0.272 C 
ATOM     13  C1  <0> d          -0.021   1.540  -0.008  0.00  0.00     0.050 C 
BRANCH  12  14
ATOM     14  N3  <0> d          -1.383  -0.495   0.000  0.00  0.00    -0.067 N 
ATOM     15  C10 <0> d          -2.038  -0.113   1.259  0.00  0.00     0.267 C 
ATOM     16  H9  <0> d          -1.891  -0.099  -0.776  0.00  0.00     0.277 HD
ATOM     17  H13 <0> d          -1.374  -1.501  -0.082  0.00  0.00     0.277 HD
ENDBRANCH  12  14
ENDBRANCH   9  12
ENDBRANCH   1   8
BRANCH   4  18
ATOM     18  N2  <0> d           4.763  -2.306  -5.882  0.00  0.00    -0.116 N 
ATOM     19  O2  <0> d           4.177  -2.519  -6.917  0.00  0.00    -0.532 OA
ATOM     20  O3  <0> d           5.943  -2.556  -5.793  0.00  0.00    -0.532 OA
ENDBRANCH   4  18
TORSDOF 4
