REMARK  7 active torsions:
REMARK  status: ('A' for Active; 'I' for Inactive)
REMARK    1  A    between atoms: C2_2  and  N1_9 
REMARK       I    between atoms: N1_9  and  C6_10 
REMARK    2  A    between atoms: C6_10  and  C7_12 
REMARK    3  A    between atoms: C7_12  and  N3_30 
REMARK    4  A    between atoms: C8_13  and  C9_14 
REMARK    5  A    between atoms: C8_13  and  N3_30 
REMARK       I    between atoms: C9_14  and  N2_16 
REMARK    6  A    between atoms: N2_16  and  C10_17 
REMARK    7  A    between atoms: C15_25  and  N3_30 
ROOT
ATOM      1  N3  <0> d          -0.645   1.854   1.222  0.00  0.00    -0.050 N 
ATOM      2  H30 <0> d          -0.134   1.496   2.037  0.00  0.00     0.281 HD
ENDROOT
BRANCH   1   3
ATOM      3  C7  <0> d           0.091   1.486  -0.006  0.00  0.00     0.338 C 
BRANCH   3   4
ATOM      4  C6  <0> d           0.372   0.006   0.021  0.00  0.00     0.244 C 
ATOM      5  N1  <0> d           1.053  -0.570  -0.990  0.00  0.00    -0.350 N 
ATOM      6  H10 <0> d           1.362  -0.031  -1.735  0.00  0.00     0.163 HD
ATOM      7  O3  <0> d          -0.013  -0.668   0.953  0.00  0.00    -0.272 OA
BRANCH   5   8
ATOM      8  C2  <0> d           1.327  -2.009  -0.963  0.00  0.00     0.043 C 
ATOM      9  C1  <0> d           2.139  -2.326   0.294  0.00  0.00     0.039 C 
ATOM     10  C5  <0> d          -0.018  -2.765  -0.887  0.00  0.00     0.170 C 
ATOM     11  S1  <0> d          -0.274  -3.234  -2.649  0.00  0.00     0.146 S 
ATOM     12  C4  <0> d           1.506  -3.417  -3.106  0.00  0.00     0.143 C 
ATOM     13  O1  <0> d          -0.829  -2.131  -3.353  0.00  0.00    -0.228 OA
ATOM     14  O2  <0> d          -0.909  -4.503  -2.713  0.00  0.00    -0.228 OA
ATOM     15  C3  <0> d           2.163  -2.366  -2.183  0.00  0.00     0.046 C 
ENDBRANCH   5   8
ENDBRANCH   3   4
ENDBRANCH   1   3
BRANCH   1  16
ATOM     16  C8  <0> d          -0.747   3.324   1.328  0.00  0.00     0.338 C 
BRANCH  16  17
ATOM     17  C9  <0> d           0.573   3.867   1.810  0.00  0.00     0.244 C 
ATOM     18  O4  <0> d           1.520   3.122   1.948  0.00  0.00    -0.272 OA
ATOM     19  N2  <0> d           0.702   5.179   2.088  0.00  0.00    -0.350 N 
ATOM     20  H15 <0> d          -0.056   5.775   1.978  0.00  0.00     0.163 HD
BRANCH  19  21
ATOM     21  C10 <0> d           1.985   5.707   2.557  0.00  0.00     0.043 C 
ATOM     22  C13 <0> d           1.840   7.223   2.793  0.00  0.00     0.170 C 
ATOM     23  S2  <0> d           3.001   7.953   1.565  0.00  0.00     0.146 S 
ATOM     24  C12 <0> d           3.193   6.477   0.473  0.00  0.00     0.143 C 
ATOM     25  O5  <0> d           2.335   8.982   0.846  0.00  0.00    -0.228 OA
ATOM     26  O6  <0> d           4.241   8.230   2.201  0.00  0.00    -0.228 OA
ATOM     27  C11 <0> d           3.064   5.350   1.535  0.00  0.00     0.046 C 
ATOM     28  C14 <0> d           2.333   5.035   3.887  0.00  0.00     0.039 C 
ENDBRANCH  19  21
ENDBRANCH  16  17
ENDBRANCH   1  16
BRANCH   1  29
ATOM     29  C15 <0> d          -1.996   1.254   1.201  0.00  0.00     0.189 A 
ATOM     30  C17 <0> d          -2.897   1.530   2.406  0.00  0.00     0.035 A 
ATOM     31  C16 <0> d          -3.199   2.188   1.058  0.00  0.00     0.035 A 
ENDBRANCH   1  29
TORSDOF 7
