REMARK  7 active torsions:
REMARK  status: ('A' for Active; 'I' for Inactive)
REMARK    1  A    between atoms: C2_2  and  C3_3 
REMARK    2  A    between atoms: C3_3  and  N1_4 
REMARK    3  A    between atoms: C5_8  and  S1_9 
REMARK    4  A    between atoms: S1_9  and  C6_10 
REMARK    5  A    between atoms: C6_10  and  C7_11 
REMARK       I    between atoms: C7_11  and  N4_13 
REMARK    6  A    between atoms: N4_13  and  C8_14 
REMARK    7  A    between atoms: C13_19  and  C14_20 
ROOT
ATOM      1  C7  <0> d          -1.456  -3.418  -5.232  0.00  0.00     0.231 C 
ATOM      2  O1  <0> d          -1.492  -2.256  -5.576  0.00  0.00    -0.272 OA
ATOM      3  N4  <0> d          -1.458  -4.396  -6.160  0.00  0.00    -0.326 N 
ATOM      4  H10 <0> d          -1.364  -5.323  -5.888  0.00  0.00     0.169 HD
ENDROOT
BRANCH   1   5
ATOM      5  C6  <0> d          -1.410  -3.770  -3.768  0.00  0.00     0.185 C 
BRANCH   5   6
ATOM      6  S1  <0> d          -1.419  -2.248  -2.780  0.00  0.00    -0.081 SA
BRANCH   6   7
ATOM      7  C5  <0> d          -1.363  -2.820  -1.115  0.00  0.00     0.192 A 
ATOM      8  N1  <0> d          -1.353  -2.024   0.008  0.00  0.00    -0.276 N 
ATOM      9  C4  <0> d          -1.313  -2.822   1.094  0.00  0.00     0.344 A 
ATOM     10  O4  <0> d          -1.298  -2.456   2.256  0.00  0.00    -0.245 OA
ATOM     11  N2  <0> d          -1.293  -4.099   0.660  0.00  0.00    -0.226 N 
ATOM     12  N3  <0> d          -1.322  -4.067  -0.741  0.00  0.00    -0.145 NA
ATOM     13  H15 <0> d          -1.264  -4.894   1.216  0.00  0.00     0.194 HD
BRANCH   8  14
ATOM     14  C3  <0> d          -1.385  -0.559   0.021  0.00  0.00     0.135 C 
BRANCH  14  15
ATOM     15  C2  <0> d           0.046  -0.017  -0.004  0.00  0.00     0.016 C 
ATOM     16  C1  <0> d           0.012   1.512   0.009  0.00  0.00     0.006 C 
ENDBRANCH  14  15
ENDBRANCH   8  14
ENDBRANCH   6   7
ENDBRANCH   5   6
ENDBRANCH   1   5
BRANCH   3  17
ATOM     17  C8  <0> d          -1.594  -4.076  -7.508  0.00  0.00     0.051 A 
ATOM     18  C13 <0> d          -2.300  -4.932  -8.368  0.00  0.00     0.067 A 
ATOM     19  C12 <0> d          -2.433  -4.596  -9.720  0.00  0.00     0.021 A 
ATOM     20  C11 <0> d          -1.864  -3.436 -10.198  0.00  0.00     0.001 A 
ATOM     21  C10 <0> d          -1.163  -2.597  -9.346  0.00  0.00     0.002 A 
ATOM     22  C9  <0> d          -1.027  -2.912  -8.009  0.00  0.00     0.030 A 
BRANCH  18  23
ATOM     23  C14 <0> d          -2.900  -6.172  -7.851  0.00  0.00     0.211 C 
ATOM     24  O2  <0> d          -3.429  -6.963  -8.621  0.00  0.00    -0.644 OA
ATOM     25  O3  <0> d          -2.870  -6.413  -6.652  0.00  0.00    -0.644 OA
ENDBRANCH  18  23
ENDBRANCH   3  17
TORSDOF 7
