REMARK  4 active torsions:
REMARK  status: ('A' for Active; 'I' for Inactive)
REMARK    1  A    between atoms: C2_2  and  C4_4 
REMARK       I    between atoms: C4_4  and  N1_6 
REMARK    2  A    between atoms: C6_8  and  C13_16 
REMARK       I    between atoms: C13_16  and  N3_18 
REMARK    3  A    between atoms: N3_18  and  C14_19 
REMARK    4  A    between atoms: C14_19  and  C15_20 
ROOT
ATOM      1  C4  <0> d          -1.375  -0.526  -0.007  0.00  0.00     0.223 C 
ATOM      2  O1  <0> d          -2.301   0.253  -0.088  0.00  0.00    -0.273 OA
ATOM      3  N1  <0> d          -1.615  -1.848   0.096  0.00  0.00    -0.350 N 
ATOM      4  C5  <0> d          -0.631  -2.935   0.317  0.00  0.00     0.140 C 
ATOM      5  C6  <0> d          -1.336  -3.907   1.290  0.00  0.00     0.106 C 
ATOM      6  C7  <0> d          -2.838  -3.647   1.085  0.00  0.00    -0.007 C 
ATOM      7  C8  <0> d          -2.921  -2.544   0.020  0.00  0.00     0.136 C 
ATOM      8  C9  <0> d          -3.473  -3.167   2.385  0.00  0.00     0.039 C 
ATOM      9  C10 <0> d          -4.977  -2.970   2.171  0.00  0.00     0.233 C 
ATOM     10  N2  <0> d          -5.582  -4.238   1.747  0.00  0.00    -0.075 N 
ATOM     11  C11 <0> d          -5.032  -4.646   0.449  0.00  0.00     0.233 C 
ATOM     12  C12 <0> d          -3.530  -4.914   0.590  0.00  0.00     0.039 C 
ATOM     13  H18 <0> d          -5.384  -4.950   2.434  0.00  0.00     0.277 HD
ATOM     14  H36 <0> d          -6.581  -4.122   1.665  0.00  0.00     0.277 HD
ENDROOT
BRANCH   5  15
ATOM     15  C13 <0> d          -0.938  -3.606   2.712  0.00  0.00     0.224 C 
ATOM     16  O2  <0> d          -0.573  -2.491   3.016  0.00  0.00    -0.273 OA
ATOM     17  N3  <0> d          -0.988  -4.577   3.645  0.00  0.00    -0.360 N 
ATOM     18  H23 <0> d          -1.280  -5.470   3.401  0.00  0.00     0.162 HD
BRANCH  17  19
ATOM     19  C14 <0> d          -0.602  -4.285   5.028  0.00  0.00     0.129 C 
BRANCH  19  20
ATOM     20  C15 <0> d          -0.749  -5.549   5.877  0.00  0.00     0.031 C 
ATOM     21  C18 <0> d          -0.263  -5.288   7.314  0.00  0.00     0.240 C 
ATOM     22  N4  <0> d          -1.429  -5.481   8.207  0.00  0.00    -0.074 N 
ATOM     23  C17 <0> d          -2.340  -6.407   7.487  0.00  0.00     0.234 C 
ATOM     24  C19 <0> d          -0.999  -6.078   9.478  0.00  0.00     0.269 C 
ATOM     25  H35 <0> d          -1.890  -4.599   8.373  0.00  0.00     0.279 HD
ATOM     26  C16 <0> d          -2.241  -5.931   6.016  0.00  0.00     0.035 C 
ENDBRANCH  19  20
ENDBRANCH  17  19
ENDBRANCH   5  15
BRANCH   1  27
ATOM     27  C2  <0> d           0.043  -0.016  -0.022  0.00  0.00     0.070 C 
ATOM     28  C1  <0> d           0.511   0.148  -1.469  0.00  0.00     0.019 C 
ATOM     29  C3  <0> d           0.105   1.337   0.690  0.00  0.00     0.019 C 
ENDBRANCH   1  27
TORSDOF 4
