REMARK  5 active torsions:
REMARK  status: ('A' for Active; 'I' for Inactive)
REMARK       I    between atoms: C2_2  and  N1_4 
REMARK    1  A    between atoms: N1_4  and  C3_5 
REMARK    2  A    between atoms: C3_5  and  C4_6 
REMARK    3  A    between atoms: C3_5  and  C15_20 
REMARK    4  A    between atoms: C4_6  and  C5_7 
REMARK       I    between atoms: C5_7  and  N2_9 
REMARK    5  A    between atoms: N2_9  and  C6_10 
ROOT
ATOM      1  C5  <0> d          -1.166  -1.902   2.450  0.00  0.00     0.220 C 
ATOM      2  O2  <0> d          -2.159  -1.213   2.347  0.00  0.00    -0.274 OA
ATOM      3  N2  <0> d          -0.739  -2.291   3.667  0.00  0.00    -0.356 N 
ATOM      4  H8  <0> d           0.055  -2.841   3.749  0.00  0.00     0.162 HD
ENDROOT
BRANCH   1   5
ATOM      5  C4  <0> d          -0.410  -2.322   1.216  0.00  0.00     0.133 C 
BRANCH   5   6
ATOM      6  C3  <0> d          -1.100  -1.751  -0.025  0.00  0.00     0.133 C 
BRANCH   6   7
ATOM      7  N1  <0> d          -1.018  -0.289   0.001  0.00  0.00    -0.352 N 
ATOM      8  C2  <0> d           0.185   0.319   0.013  0.00  0.00     0.214 C 
ATOM      9  C1  <0> d           0.269   1.823   0.039  0.00  0.00     0.117 C 
ATOM     10  O1  <0> d           1.200  -0.345   0.002  0.00  0.00    -0.274 OA
ATOM     11  H5  <0> d          -1.830   0.243   0.009  0.00  0.00     0.163 HD
ENDBRANCH   6   7
BRANCH   6  12
ATOM     12  C15 <0> d          -0.417  -2.271  -1.264  0.00  0.00     0.005 A 
ATOM     13  S1  <0> d           1.095  -1.714  -2.031  0.00  0.00    -0.104 SA
ATOM     14  C18 <0> d           1.126  -2.869  -3.393  0.00  0.00     0.050 A 
ATOM     15  C17 <0> d          -0.004  -3.585  -3.179  0.00  0.00     0.008 A 
ATOM     16  C16 <0> d          -0.795  -3.279  -2.087  0.00  0.00     0.017 A 
ENDBRANCH   6  12
ENDBRANCH   5   6
ENDBRANCH   1   5
BRANCH   3  17
ATOM     17  C6  <0> d          -1.476  -1.881   4.869  0.00  0.00     0.089 C 
ATOM     18  C10 <0> d          -1.215  -2.889   5.988  0.00  0.00     0.063 C 
ATOM     19  C9  <0> d          -1.914  -2.462   7.275  0.00  0.00     0.121 C 
ATOM     20  N3  <0> d          -1.649  -1.080   7.640  0.00  0.00    -0.059 N 
ATOM     21  C11 <0> d          -3.415  -2.743   7.171  0.00  0.00     0.046 C 
ATOM     22  C12 <0> d          -1.365  -3.356   8.413  0.00  0.00     0.046 C 
ATOM     23  C8  <0> d          -1.718  -0.078   6.587  0.00  0.00     0.121 C 
ATOM     24  H12 <0> d          -0.721  -1.032   8.068  0.00  0.00     0.279 HD
ATOM     25  H30 <0> d          -2.301  -0.812   8.382  0.00  0.00     0.279 HD
ATOM     26  C7  <0> d          -0.968  -0.513   5.328  0.00  0.00     0.063 C 
ATOM     27  C13 <0> d          -3.159   0.297   6.241  0.00  0.00     0.046 C 
ATOM     28  C14 <0> d          -1.026   1.201   7.113  0.00  0.00     0.046 C 
ENDBRANCH   3  17
TORSDOF 5
