REMARK  6 active torsions:
REMARK  status: ('A' for Active; 'I' for Inactive)
REMARK    1  A    between atoms: N1_8  and  C9_13 
REMARK    2  A    between atoms: C8_11  and  N2_12 
REMARK    3  A    between atoms: C9_13  and  C10_14 
REMARK    4  A    between atoms: C10_14  and  O2_15 
REMARK    5  A    between atoms: O2_15  and  C11_16 
REMARK    6  A    between atoms: C11_16  and  C12_17 
ROOT
ATOM      1  C1  <0> d          -0.017   1.379   0.010  0.00  0.00     0.020 A 
ATOM      2  C2  <0> d           1.175   2.084   0.002  0.00  0.00     0.013 A 
ATOM      3  C3  <0> d           2.373   1.407  -0.013  0.00  0.00     0.011 A 
ATOM      4  C4  <0> d           2.405   0.018  -0.021  0.00  0.00     0.047 A 
ATOM      5  C5  <0> d           1.203  -0.685  -0.013  0.00  0.00     0.049 A 
ATOM      6  C6  <0> d           0.002  -0.004   0.002  0.00  0.00     0.013 A 
ATOM      7 Br1  <0> d          -1.625  -0.967   0.013  0.00  0.00    -0.051 Br
ATOM      8  N1  <0> d           3.726  -0.434  -0.036  0.00  0.00    -0.313 N 
ATOM      9  C7  <0> d           4.609   0.578  -0.039  0.00  0.00     0.262 A 
ATOM     10  O1  <0> d           5.818   0.479  -0.051  0.00  0.00    -0.270 OA
ATOM     11  C8  <0> d           3.813   1.866  -0.024  0.00  0.00     0.344 A 
ENDROOT
BRANCH   8  12
ATOM     12  C9  <0> d           4.105  -1.849  -0.046  0.00  0.00     0.158 C 
BRANCH  12  13
ATOM     13  C10 <0> d           4.223  -2.335  -1.492  0.00  0.00     0.188 C 
BRANCH  13  14
ATOM     14  O2  <0> d           5.298  -1.651  -2.139  0.00  0.00    -0.381 OA
BRANCH  14  15
ATOM     15  C11 <0> d           5.495  -2.033  -3.501  0.00  0.00     0.285 C 
BRANCH  15  16
ATOM     16  C12 <0> d           6.665  -1.241  -4.089  0.00  0.00     0.408 C 
ATOM     17  F1  <0> d           7.826  -1.512  -3.357  0.00  0.00    -0.169 F 
ATOM     18  F2  <0> d           6.857  -1.615  -5.423  0.00  0.00    -0.169 F 
ATOM     19  F3  <0> d           6.381   0.127  -4.025  0.00  0.00    -0.169 F 
ENDBRANCH  15  16
ENDBRANCH  14  15
ENDBRANCH  13  14
ENDBRANCH  12  13
ENDBRANCH   8  12
BRANCH  11  20
ATOM     20  N2  <0> d           4.114   2.644   1.185  0.00  0.00     0.096 N 
ATOM     21  H5  <0> d           5.075   2.954   1.185  0.00  0.00     0.314 HD
ATOM     22  H6  <0> d           3.482   3.424   1.279  0.00  0.00     0.314 HD
ENDBRANCH  11  20
TORSDOF 6
