REMARK  4 active torsions:
REMARK  status: ('A' for Active; 'I' for Inactive)
REMARK    1  A    between atoms: C8_8  and  C10_13 
REMARK       I    between atoms: C10_13  and  N2_15 
REMARK    2  A    between atoms: N2_15  and  C11_16 
REMARK    3  A    between atoms: C11_16  and  C12_17 
REMARK    4  A    between atoms: C15_20  and  N4_23 
ROOT
ATOM      1  C10 <0> d           2.546  -4.220  -0.043  0.00  0.00     0.257 C 
ATOM      2  O2  <0> d           1.525  -4.874   0.057  0.00  0.00    -0.267 OA
ATOM      3  N2  <0> d           3.736  -4.841  -0.160  0.00  0.00    -0.352 N 
ATOM      4  H7  <0> d           4.555  -4.322  -0.166  0.00  0.00     0.163 HD
ENDROOT
BRANCH   1   5
ATOM      5  C8  <0> d           2.481  -2.748  -0.038  0.00  0.00     0.100 A 
ATOM      6  C7  <0> d           1.258  -2.102  -0.039  0.00  0.00     0.036 A 
ATOM      7  C5  <0> d           1.228  -0.687  -0.033  0.00  0.00    -0.008 A 
ATOM      8  C4  <0> d           2.432   0.044  -0.027  0.00  0.00     0.045 A 
ATOM      9  C6  <0> d           0.001  -0.004  -0.034  0.00  0.00     0.014 A 
ATOM     10  C3  <0> d           2.385   1.436  -0.021  0.00  0.00     0.030 A 
ATOM     11  N1  <0> d           3.647  -0.607  -0.026  0.00  0.00    -0.322 N 
ATOM     12  C2  <0> d           1.169   2.083  -0.021  0.00  0.00     0.002 A 
ATOM     13  C1  <0> d          -0.017   1.360  -0.028  0.00  0.00     0.001 A 
ATOM     14  C9  <0> d           3.712  -1.951  -0.031  0.00  0.00     0.261 A 
ATOM     15  H1  <0> d           4.467  -0.088  -0.021  0.00  0.00     0.169 HD
ATOM     16  O1  <0> d           4.796  -2.507  -0.030  0.00  0.00    -0.267 OA
ENDBRANCH   1   5
BRANCH   3  17
ATOM     17  C11 <0> d           3.792  -6.300  -0.278  0.00  0.00     0.162 C 
BRANCH  17  18
ATOM     18  C12 <0> d           5.228  -6.740  -0.394  0.00  0.00    -0.023 A 
ATOM     19  C16 <0> d           5.961  -7.037   0.739  0.00  0.00     0.128 A 
ATOM     20  N3  <0> d           7.218  -7.428   0.648  0.00  0.00    -0.241 NA
ATOM     21  C15 <0> d           7.827  -7.541  -0.521  0.00  0.00     0.149 A 
ATOM     22  C14 <0> d           7.152  -7.253  -1.702  0.00  0.00     0.053 A 
ATOM     23  C13 <0> d           5.831  -6.846  -1.640  0.00  0.00     0.014 A 
BRANCH  21  24
ATOM     24  N4  <0> d           9.162  -7.954  -0.570  0.00  0.00    -0.227 N 
ATOM     25  N5  <0> d           9.933  -8.119  -1.727  0.00  0.00    -0.179 NA
ATOM     26  C19 <0> d          11.129  -8.510  -1.370  0.00  0.00     0.141 A 
ATOM     27  C18 <0> d          11.159  -8.619   0.025  0.00  0.00     0.040 A 
ATOM     28  C17 <0> d           9.940  -8.272   0.497  0.00  0.00     0.122 A 
ENDBRANCH  21  24
ENDBRANCH  17  18
ENDBRANCH   3  17
TORSDOF 4
