REMARK  8 active torsions:
REMARK  status: ('A' for Active; 'I' for Inactive)
REMARK    1  A    between atoms: C2_2  and  N1_3 
REMARK    2  A    between atoms: N2_6  and  C7_9 
REMARK    3  A    between atoms: C7_9  and  C8_10 
REMARK    4  A    between atoms: C9_11  and  O3_22 
REMARK    5  A    between atoms: C12_15  and  C16_20 
REMARK    6  A    between atoms: N3_16  and  C13_17 
REMARK    7  A    between atoms: C13_17  and  C14_18 
REMARK    8  A    between atoms: C16_20  and  O2_21 
ROOT
ATOM      1  C8  <0> d           3.518  -4.015  -3.630  0.00  0.00     0.078 A 
ATOM      2  C9  <0> d           2.889  -4.766  -4.565  0.00  0.00     0.141 A 
ATOM      3  C10 <0> d           2.978  -6.179  -4.491  0.00  0.00     0.208 A 
ATOM      4  O1  <0> d           2.421  -6.883  -5.322  0.00  0.00    -0.285 OA
ATOM      5  C11 <0> d           3.722  -6.757  -3.439  0.00  0.00     0.085 A 
ATOM      6  C12 <0> d           4.327  -5.952  -2.536  0.00  0.00     0.039 A 
ATOM      7  N3  <0> d           4.230  -4.605  -2.634  0.00  0.00    -0.344 N 
ENDROOT
BRANCH   1   8
ATOM      8  C7  <0> d           3.433  -2.512  -3.697  0.00  0.00     0.332 C 
BRANCH   8   9
ATOM      9  N2  <0> d           2.711  -2.009  -2.521  0.00  0.00     0.097 N 
ATOM     10  C4  <0> d           2.812  -0.546  -2.427  0.00  0.00     0.300 C 
ATOM     11  C3  <0> d           2.100  -0.069  -1.160  0.00  0.00     0.265 C 
ATOM     12  N1  <0> d           0.690  -0.478  -1.207  0.00  0.00    -0.068 N 
ATOM     13  C6  <0> d           0.605  -1.943  -1.275  0.00  0.00     0.265 C 
ATOM     14  H26 <0> d           0.251  -0.077  -2.022  0.00  0.00     0.280 HD
ATOM     15  C5  <0> d           1.305  -2.435  -2.544  0.00  0.00     0.300 C 
BRANCH  12  16
ATOM     16  C2  <0> d           0.002  -0.004   0.002  0.00  0.00     0.230 C 
ATOM     17  C1  <0> d          -0.019   1.526   0.010  0.00  0.00     0.034 C 
ENDBRANCH  12  16
ENDBRANCH   8   9
ENDBRANCH   1   8
BRANCH   7  18
ATOM     18  C13 <0> d           4.904  -3.764  -1.641  0.00  0.00     0.155 C 
BRANCH  18  19
ATOM     19  C14 <0> d           3.971  -3.506  -0.486  0.00  0.00    -0.017 C 
ATOM     20  C15 <0> d           4.345  -3.798   0.735  0.00  0.00     0.008 C 
ENDBRANCH  18  19
ENDBRANCH   7  18
BRANCH   2  21
ATOM     21  O3  <0> d           2.181  -4.171  -5.564  0.00  0.00    -0.355 OA
ATOM     22  H25 <0> d           1.771  -4.793  -6.179  0.00  0.00     0.218 HD
ENDBRANCH   2  21
BRANCH   6  23
ATOM     23  C16 <0> d           5.123  -6.562  -1.411  0.00  0.00     0.221 C 
BRANCH  23  24
ATOM     24  O2  <0> d           5.085  -7.986  -1.518  0.00  0.00    -0.395 OA
ATOM     25  H24 <0> d           5.578  -8.446  -0.825  0.00  0.00     0.209 HD
ENDBRANCH  23  24
ENDBRANCH   6  23
TORSDOF 8
