REMARK  0 active torsions:
REMARK  status: ('A' for Active; 'I' for Inactive)
ROOT
ATOM      1  C1  <0> d          -0.019   1.526   0.010  0.00  0.00     0.030 C 
ATOM      2  C2  <0> d           0.002  -0.004   0.002  0.00  0.00     0.056 C 
ATOM      3  C3  <0> d          -1.313  -0.380   0.529  0.00  0.00     0.128 C 
ATOM      4  N1  <0> d          -1.260  -0.057   1.800  0.00  0.00    -0.194 NA
ATOM      5  N2  <0> d           0.024   0.466   2.158  0.00  0.00    -0.293 N 
ATOM      6  C4  <0> d           0.915  -0.286   1.272  0.00  0.00     0.246 C 
ATOM      7  S1  <0> d           2.342   0.599   0.543  0.00  0.00     0.200 S 
ATOM      8  O1  <0> d           2.122   2.003   0.513  0.00  0.00    -0.220 OA
ATOM      9  O2  <0> d           3.575   0.045   0.981  0.00  0.00    -0.220 OA
ATOM     10  C5  <0> d           2.095   0.015  -1.135  0.00  0.00     0.069 A 
ATOM     11  C6  <0> d           0.726  -0.352  -1.220  0.00  0.00    -0.020 A 
ATOM     12  C7  <0> d           0.304  -0.940  -2.411  0.00  0.00     0.010 A 
ATOM     13  C8  <0> d           1.162  -1.107  -3.474  0.00  0.00     0.001 A 
ATOM     14  C9  <0> d           2.481  -0.701  -3.389  0.00  0.00     0.002 A 
ATOM     15  C10 <0> d           2.942  -0.115  -2.198  0.00  0.00     0.024 A 
ATOM     16  H6  <0> d           0.246   1.143   2.817  0.00  0.00     0.184 HD
ENDROOT
TORSDOF 0
