REMARK  6 active torsions:
REMARK  status: ('A' for Active; 'I' for Inactive)
REMARK    1  A    between atoms: O1_2  and  C2_3 
REMARK    2  A    between atoms: C9_10  and  C11_15 
REMARK    3  A    between atoms: C11_15  and  C12_16 
REMARK    4  A    between atoms: C11_15  and  N6_31 
REMARK    5  A    between atoms: N5_20  and  C13_21 
REMARK    6  A    between atoms: C13_21  and  C14_22 
ROOT
ATOM      1  C11 <0> d          -1.458  -2.442   1.415  0.00  0.00     0.299 C 
ENDROOT
BRANCH   1   2
ATOM      2  C9  <0> d          -2.333  -1.532   0.593  0.00  0.00     0.049 A 
ATOM      3  C8  <0> d          -2.190  -0.187   0.692  0.00  0.00     0.029 A 
ATOM      4  C6  <0> d          -3.056   0.670  -0.120  0.00  0.00    -0.006 A 
ATOM      5  C5  <0> d          -4.002   0.072  -0.973  0.00  0.00     0.045 A 
ATOM      6  C7  <0> d          -2.954   2.064  -0.059  0.00  0.00     0.050 A 
ATOM      7  C4  <0> d          -4.830   0.876  -1.750  0.00  0.00     0.033 A 
ATOM      8  N1  <0> d          -4.097  -1.303  -1.028  0.00  0.00    -0.322 N 
ATOM      9  C3  <0> d          -4.720   2.247  -1.682  0.00  0.00     0.039 A 
ATOM     10  C2  <0> d          -3.785   2.843  -0.839  0.00  0.00     0.069 A 
ATOM     11  C10 <0> d          -3.293  -2.082  -0.282  0.00  0.00     0.254 A 
ATOM     12  H1  <0> d          -4.772  -1.727  -1.631  0.00  0.00     0.169 HD
ATOM     13  O2  <0> d          -3.401  -3.294  -0.360  0.00  0.00    -0.268 OA
BRANCH  10  14
ATOM     14  O1  <0> d          -3.690   4.198  -0.784  0.00  0.00    -0.356 OA
ATOM     15  C1  <0> d          -4.580   4.945  -1.617  0.00  0.00     0.210 C 
ENDBRANCH  10  14
ENDBRANCH   1   2
BRANCH   1  16
ATOM     16  C12 <0> d          -0.553  -3.229   0.502  0.00  0.00     0.183 A 
ATOM     17  N5  <0> d           0.788  -3.140   0.428  0.00  0.00    -0.230 N 
ATOM     18  N4  <0> d           1.176  -3.982  -0.470  0.00  0.00    -0.044 NA
ATOM     19  N3  <0> d           0.142  -4.578  -0.953  0.00  0.00    -0.023 NA
ATOM     20  N2  <0> d          -0.919  -4.130  -0.376  0.00  0.00    -0.111 NA
BRANCH  17  21
ATOM     21  C13 <0> d           1.647  -2.258   1.223  0.00  0.00     0.186 C 
BRANCH  21  22
ATOM     22  C14 <0> d           1.828  -0.927   0.490  0.00  0.00     0.141 C 
ATOM     23  O3  <0> d           0.580  -0.220   0.425  0.00  0.00    -0.384 OA
ATOM     24  C17 <0> d           0.807   1.188   0.564  0.00  0.00     0.168 C 
ATOM     25  C16 <0> d           2.322   1.397   0.777  0.00  0.00     0.029 C 
ATOM     26  C15 <0> d           2.779   0.002   1.285  0.00  0.00     0.036 C 
ENDBRANCH  21  22
ENDBRANCH  17  21
ENDBRANCH   1  16
BRANCH   1  27
ATOM     27  N6  <0> d          -2.310  -3.378   2.209  0.00  0.00    -0.056 N 
ATOM     28  C18 <0> d          -1.470  -4.293   2.997  0.00  0.00     0.236 C 
ATOM     29  C19 <0> d          -2.454  -4.790   4.086  0.00  0.00     0.029 C 
ATOM     30  C20 <0> d          -3.292  -3.528   4.396  0.00  0.00     0.029 C 
ATOM     31  C21 <0> d          -3.147  -2.633   3.151  0.00  0.00     0.236 C 
ATOM     32  H27 <0> d          -2.904  -3.917   1.569  0.00  0.00     0.281 HD
ENDBRANCH   1  27
TORSDOF 6
