REMARK  2 active torsions:
REMARK  status: ('A' for Active; 'I' for Inactive)
REMARK    1  A    between atoms: C4_4  and  N2_7 
REMARK       I    between atoms: N2_7  and  C5_8 
REMARK    2  A    between atoms: C5_8  and  C6_10 
ROOT
ATOM      1  C6  <0> d          -1.304   1.933   0.019  0.00  0.00     0.154 A 
ATOM      2  C7  <0> d          -2.582   1.355   0.016  0.00  0.00     0.017 A 
ATOM      3  C8  <0> d          -3.465   2.401   0.029  0.00  0.00     0.073 A 
ATOM      4  N3  <0> d          -2.724   3.539   0.033  0.00  0.00    -0.272 N 
ATOM      5  N4  <0> d          -1.471   3.244   0.026  0.00  0.00    -0.166 NA
ATOM      6  C9  <0> d          -3.269   4.899   0.044  0.00  0.00     0.180 C 
ATOM      7  C10 <0> d          -4.934   2.257   0.028  0.00  0.00     0.010 A 
ATOM      8  C11 <0> d          -5.746   3.315  -0.383  0.00  0.00     0.015 A 
ATOM      9  C12 <0> d          -7.118   3.163  -0.394  0.00  0.00     0.001 A 
ATOM     10  C13 <0> d          -7.691   1.963  -0.009  0.00  0.00     0.001 A 
ATOM     11  C14 <0> d          -6.898   0.908   0.397  0.00  0.00     0.019 A 
ATOM     12  C15 <0> d          -5.516   1.045   0.419  0.00  0.00     0.013 A 
ATOM     13  S1  <0> d          -4.507  -0.299   0.950  0.00  0.00    -0.124 SA
ATOM     14  C16 <0> d          -2.967  -0.098   0.008  0.00  0.00     0.123 C 
ENDROOT
BRANCH   1  15
ATOM     15  C5  <0> d          -0.014   1.212   0.009  0.00  0.00     0.278 C 
ATOM     16  N2  <0> d           1.143   1.901   0.001  0.00  0.00    -0.304 N 
ATOM     17  H5  <0> d           1.129   3.001   0.007  0.00  0.00     0.171 HD
ATOM     18  O2  <0> d           0.002  -0.004   0.002  0.00  0.00    -0.265 OA
BRANCH  16  19
ATOM     19  C4  <0> d           2.360   1.221  -0.014  0.00  0.00     0.160 A 
ATOM     20  C3  <0> d           2.550  -0.187  -0.023  0.00  0.00     0.087 A 
ATOM     21  C2  <0> d           3.894  -0.335  -0.038  0.00  0.00     0.078 A 
ATOM     22  C1  <0> d           4.657  -1.635  -0.053  0.00  0.00     0.079 C 
ATOM     23  O1  <0> d           4.416   0.900  -0.036  0.00  0.00    -0.216 OA
ATOM     24  N1  <0> d           3.555   1.750  -0.028  0.00  0.00    -0.110 NA
ENDBRANCH  16  19
ENDBRANCH   1  15
TORSDOF 2
