REMARK  7 active torsions:
REMARK  status: ('A' for Active; 'I' for Inactive)
REMARK    1  A    between atoms: C2_2  and  N1_3 
REMARK    2  A    between atoms: N1_3  and  C3_4 
REMARK    3  A    between atoms: N1_3  and  C5_6 
REMARK    4  A    between atoms: C5_6  and  C6_7 
REMARK    5  A    between atoms: C8_10  and  C9_12 
REMARK    6  A    between atoms: C9_12  and  N3_13 
REMARK       I    between atoms: N3_13  and  C10_14 
REMARK    7  A    between atoms: C10_14  and  C11_16 
ROOT
ATOM      1  N3  <0> d          -6.798  -1.302   2.388  0.00  0.00    -0.349 N 
ATOM      2  C10 <0> d          -7.768  -1.031   3.284  0.00  0.00     0.272 C 
ATOM      3  O1  <0> d          -8.067  -1.857   4.124  0.00  0.00    -0.266 OA
ATOM      4  H17 <0> d          -6.559  -0.643   1.718  0.00  0.00     0.163 HD
ENDROOT
BRANCH   1   5
ATOM      5  C9  <0> d          -6.104  -2.592   2.428  0.00  0.00     0.190 C 
BRANCH   5   6
ATOM      6  C8  <0> d          -5.074  -2.642   1.329  0.00  0.00     0.093 A 
ATOM      7  S1  <0> d          -5.258  -3.185  -0.254  0.00  0.00    -0.083 SA
ATOM      8  C7  <0> d          -3.588  -2.886  -0.811  0.00  0.00     0.080 A 
ATOM      9  C6  <0> d          -3.034  -2.379   0.320  0.00  0.00     0.068 A 
ATOM     10  N2  <0> d          -3.817  -2.278   1.375  0.00  0.00    -0.247 NA
BRANCH   9  11
ATOM     11  C5  <0> d          -1.588  -1.956   0.367  0.00  0.00     0.294 C 
BRANCH  11  12
ATOM     12  N1  <0> d          -1.490  -0.515   0.098  0.00  0.00    -0.067 N 
ATOM     13  H26 <0> d          -1.947  -0.305  -0.776  0.00  0.00     0.280 HD
BRANCH  12  14
ATOM     14  C2  <0> d          -2.140   0.231   1.183  0.00  0.00     0.231 C 
ATOM     15  C1  <0> d          -2.148   1.723   0.843  0.00  0.00     0.034 C 
ENDBRANCH  12  14
BRANCH  12  16
ATOM     16  C3  <0> d          -0.075  -0.128   0.017  0.00  0.00     0.231 C 
ATOM     17  C4  <0> d           0.563  -0.781  -1.211  0.00  0.00     0.034 C 
ENDBRANCH  12  16
ENDBRANCH  11  12
ENDBRANCH   9  11
ENDBRANCH   5   6
ENDBRANCH   1   5
BRANCH   2  18
ATOM     18  C11 <0> d          -8.468   0.269   3.244  0.00  0.00     0.152 A 
ATOM     19  N5  <0> d          -8.250   1.257   2.393  0.00  0.00    -0.169 NA
ATOM     20  N4  <0> d          -9.043   2.242   2.644  0.00  0.00    -0.281 N 
ATOM     21  C13 <0> d          -9.826   1.946   3.694  0.00  0.00     0.036 A 
ATOM     22  H1  <0> d          -9.067   3.076   2.150  0.00  0.00     0.189 HD
ATOM     23  C12 <0> d          -9.490   0.699   4.107  0.00  0.00     0.002 A 
ATOM     24  C14 <0> d         -10.895   2.786   4.344  0.00  0.00     0.059 C 
ATOM     25  C17 <0> d         -10.125  -0.018   5.266  0.00  0.00     0.043 C 
ATOM     26  C16 <0> d         -10.879   1.014   6.115  0.00  0.00     0.005 C 
ATOM     27  C15 <0> d         -11.769   1.870   5.210  0.00  0.00     0.006 C 
ENDBRANCH   2  18
TORSDOF 7
