REMARK  3 active torsions:
REMARK  status: ('A' for Active; 'I' for Inactive)
REMARK    1  A    between atoms: C5_5  and  C15_18 
REMARK    2  A    between atoms: C9_9  and  O3_16 
REMARK    3  A    between atoms: C15_18  and  O4_19 
ROOT
ATOM      1  C1  <0> d          -0.581   7.299  -1.961  0.00  0.00     0.043 C 
ATOM      2  C2  <0> d          -0.973   5.992  -1.323  0.00  0.00    -0.085 C 
ATOM      3  C3  <0> d          -0.030   5.151  -1.041  0.00  0.00     0.008 C 
ATOM      4  C4  <0> d          -0.269   3.804  -0.415  0.00  0.00     0.156 C 
ATOM      5  C5  <0> d          -1.654   3.776   0.230  0.00  0.00     0.024 C 
ATOM      6  C6  <0> d          -2.684   4.266  -0.791  0.00  0.00     0.020 C 
ATOM      7  C7  <0> d          -2.430   5.753  -1.056  0.00  0.00     0.034 C 
ATOM      8  C8  <0> d          -1.996   2.336   0.654  0.00  0.00     0.030 C 
ATOM      9  C9  <0> d          -0.770   1.813   1.452  0.00  0.00     0.133 C 
ATOM     10  C10 <0> d           0.219   1.272   0.402  0.00  0.00     0.067 C 
ATOM     11  C11 <0> d          -0.463   1.468  -0.976  0.00  0.00     0.162 C 
ATOM     12  C12 <0> d          -1.963   1.486  -0.630  0.00  0.00     0.119 A 
ATOM     13  C13 <0> d          -2.872   0.296  -0.851  0.00  0.00     0.210 A 
ATOM     14  O1  <0> d          -2.983   1.510  -1.603  0.00  0.00    -0.371 OA
ATOM     15  O2  <0> d          -0.138   2.798  -1.421  0.00  0.00    -0.373 OA
ATOM     16  C14 <0> d          -3.310   2.235   1.431  0.00  0.00     0.022 C 
ENDROOT
BRANCH   5  17
ATOM     17  C15 <0> d          -1.668   4.694   1.453  0.00  0.00     0.177 C 
BRANCH  17  18
ATOM     18  O4  <0> d          -2.994   4.763   1.982  0.00  0.00    -0.400 OA
ATOM     19  H22 <0> d          -3.078   5.329   2.761  0.00  0.00     0.209 HD
ENDBRANCH  17  18
ENDBRANCH   5  17
BRANCH   9  20
ATOM     20  O3  <0> d          -0.171   2.881   2.189  0.00  0.00    -0.395 OA
ATOM     21  H16 <0> d           0.619   2.622   2.683  0.00  0.00     0.210 HD
ENDBRANCH   9  20
TORSDOF 3
