REMARK  9 active torsions:
REMARK  status: ('A' for Active; 'I' for Inactive)
REMARK    1  A    between atoms: C2_2  and  C3_3 
REMARK    2  A    between atoms: C3_3  and  C4_4 
REMARK    3  A    between atoms: C3_3  and  C6_6 
REMARK    4  A    between atoms: C3_3  and  N1_8 
REMARK    5  A    between atoms: C6_6  and  O1_7 
REMARK    6  A    between atoms: N1_8  and  C7_9 
REMARK    7  A    between atoms: C7_9  and  C8_10 
REMARK    8  A    between atoms: C8_10  and  C9_11 
REMARK    9  A    between atoms: C8_10  and  O2_19 
ROOT
ATOM      1  C7  <0> d           1.472  -2.466   2.424  0.00  0.00     0.269 C 
ENDROOT
BRANCH   1   2
ATOM      2  N1  <0> d           0.762  -1.980   1.234  0.00  0.00    -0.061 N 
ATOM      3  H15 <0> d          -0.185  -2.329   1.241  0.00  0.00     0.278 HD
ATOM      4  H22 <0> d           1.234  -2.305   0.403  0.00  0.00     0.278 HD
BRANCH   2   5
ATOM      5  C3  <0> d           0.742  -0.511   1.242  0.00  0.00     0.146 C 
BRANCH   5   6
ATOM      6  C2  <0> d           0.002  -0.004   0.002  0.00  0.00     0.036 C 
ATOM      7  C1  <0> d          -0.019   1.526   0.010  0.00  0.00     0.007 C 
ENDBRANCH   5   6
BRANCH   5   8
ATOM      8  C4  <0> d           2.178   0.019   1.231  0.00  0.00     0.036 C 
ATOM      9  C5  <0> d           2.894  -0.475  -0.028  0.00  0.00     0.007 C 
ENDBRANCH   5   8
BRANCH   5  10
ATOM     10  C6  <0> d           0.026  -0.018   2.500  0.00  0.00     0.203 C 
BRANCH  10  11
ATOM     11  O1  <0> d          -1.275  -0.605   2.570  0.00  0.00    -0.398 OA
ATOM     12  H14 <0> d          -1.787  -0.337   3.345  0.00  0.00     0.209 HD
ENDBRANCH  10  11
ENDBRANCH   5  10
ENDBRANCH   2   5
ENDBRANCH   1   2
BRANCH   1  13
ATOM     13  C8  <0> d           1.493  -3.996   2.415  0.00  0.00     0.178 C 
BRANCH  13  14
ATOM     14  C9  <0> d           2.222  -4.495   3.636  0.00  0.00    -0.005 A 
ATOM     15  C14 <0> d           3.601  -4.609   3.620  0.00  0.00     0.043 A 
ATOM     16  C13 <0> d           4.270  -5.062   4.744  0.00  0.00     0.026 A 
ATOM     17 Cl1  <0> d           4.491  -4.176   2.194  0.00  0.00    -0.084 Cl
ATOM     18  C12 <0> d           3.561  -5.412   5.877  0.00  0.00     0.025 A 
ATOM     19  C11 <0> d           2.182  -5.304   5.890  0.00  0.00     0.034 A 
ATOM     20  C10 <0> d           1.513  -4.845   4.769  0.00  0.00     0.035 A 
ATOM     21 Cl2  <0> d           1.291  -5.743   7.314  0.00  0.00    -0.084 Cl
ENDBRANCH  13  14
BRANCH  13  22
ATOM     22  O2  <0> d           0.153  -4.491   2.425  0.00  0.00    -0.389 OA
ATOM     23  H21 <0> d          -0.362  -4.217   3.197  0.00  0.00     0.210 HD
ENDBRANCH  13  22
ENDBRANCH   1  13
TORSDOF 9
