REMARK  4 active torsions:
REMARK  status: ('A' for Active; 'I' for Inactive)
REMARK    1  A    between atoms: C3_5  and  S2_7 
REMARK    2  A    between atoms: S2_7  and  C4_8 
REMARK    3  A    between atoms: C4_8  and  C5_9 
REMARK       I    between atoms: C5_9  and  N3_11 
REMARK    4  A    between atoms: N3_11  and  C6_12 
ROOT
ATOM      1  C6  <0> d           0.118  -8.953  -1.252  0.00  0.00     0.729 A 
ATOM      2  N4  <0> d           0.122  -9.376   0.005  0.00  0.00    -0.074 NA
ATOM      3  C7  <0> d           0.142 -10.667   0.283  0.00  0.00     0.153 A 
ATOM      4  C8  <0> d           0.157 -11.581  -0.778  0.00  0.00     0.053 A 
ATOM      5  C9  <0> d           0.148 -11.097  -2.091  0.00  0.00     0.069 A 
ATOM      6  N5  <0> d           0.126  -9.789  -2.281  0.00  0.00    -0.066 NA
ATOM      7  C10 <0> d           0.150 -12.026  -3.272  0.00  0.00     0.070 C 
ATOM      8  C11 <0> d           0.709 -13.396  -2.895  0.00  0.00    -0.036 C 
ATOM      9  C12 <0> d          -0.068 -13.953  -1.695  0.00  0.00     0.093 C 
ATOM     10  C13 <0> d           0.184 -13.029  -0.521  0.00  0.00     0.163 C 
ATOM     11  O2  <0> d           0.401 -13.466   0.589  0.00  0.00    -0.292 OA
ATOM     12  C14 <0> d           2.187 -13.261  -2.527  0.00  0.00     0.015 C 
ATOM     13  C15 <0> d           0.565 -14.350  -4.083  0.00  0.00     0.015 C 
ENDROOT
BRANCH   1  14
ATOM     14  N3  <0> d           0.099  -7.591  -1.498  0.00  0.00    -0.155 N 
ATOM     15  C5  <0> d           0.091  -6.720  -0.470  0.00  0.00     0.245 C 
ATOM     16  O1  <0> d           0.100  -7.130   0.672  0.00  0.00    -0.272 OA
ATOM     17  H6  <0> d           0.091  -7.263  -2.411  0.00  0.00     0.187 HD
BRANCH  15  18
ATOM     18  C4  <0> d           0.070  -5.237  -0.738  0.00  0.00     0.185 C 
BRANCH  18  19
ATOM     19  S2  <0> d           0.064  -4.338   0.838  0.00  0.00    -0.092 SA
BRANCH  19  20
ATOM     20  C3  <0> d           0.039  -2.642   0.360  0.00  0.00     0.159 A 
ATOM     21  N2  <0> d           0.027  -2.095  -0.849  0.00  0.00    -0.135 NA
ATOM     22  N1  <0> d           0.010  -0.845  -1.012  0.00  0.00    -0.146 NA
ATOM     23  C2  <0> d           0.002  -0.004   0.002  0.00  0.00     0.096 A 
ATOM     24  C1  <0> d          -0.018   1.503   0.010  0.00  0.00     0.081 C 
ATOM     25  S1  <0> d           0.031  -1.162   1.368  0.00  0.00    -0.045 SA
ENDBRANCH  19  20
ENDBRANCH  18  19
ENDBRANCH  15  18
ENDBRANCH   1  14
TORSDOF 4
