REMARK  6 active torsions:
REMARK  status: ('A' for Active; 'I' for Inactive)
REMARK    1  A    between atoms: C2_2  and  C3_3 
REMARK    2  A    between atoms: C3_3  and  N1_4 
REMARK       I    between atoms: N1_4  and  C5_6 
REMARK    3  A    between atoms: C5_6  and  C6_8 
REMARK    4  A    between atoms: C6_8  and  C7_9 
REMARK    5  A    between atoms: C7_9  and  N2_10 
REMARK    6  A    between atoms: N2_10  and  C8_11 
ROOT
ATOM      1  C1  <0> d          -0.019   1.526   0.010  0.00  0.00     0.027 C 
ATOM      2  C2  <0> d           0.002  -0.004   0.002  0.00  0.00     0.106 C 
ATOM      3  C15 <0> d           0.714  -0.492   1.195  0.00  0.00     0.065 C 
ATOM      4  N4  <0> d           1.263  -0.868   2.115  0.00  0.00    -0.197 NA
ENDROOT
BRANCH   2   5
ATOM      5  C3  <0> d           0.718  -0.497  -1.257  0.00  0.00     0.144 C 
BRANCH   5   6
ATOM      6  N1  <0> d          -0.055  -0.114  -2.441  0.00  0.00    -0.355 N 
ATOM      7  C4  <0> d           0.199   1.171  -3.096  0.00  0.00     0.152 C 
ATOM      8  C5  <0> d          -1.000  -0.943  -2.926  0.00  0.00     0.221 C 
ATOM      9  O1  <0> d          -1.210  -2.007  -2.383  0.00  0.00    -0.273 OA
BRANCH   8  10
ATOM     10  C6  <0> d          -1.795  -0.548  -4.144  0.00  0.00     0.122 C 
BRANCH  10  11
ATOM     11  C7  <0> d          -2.793  -1.658  -4.483  0.00  0.00     0.130 C 
BRANCH  11  12
ATOM     12  N2  <0> d          -3.566  -1.274  -5.667  0.00  0.00    -0.373 N 
ATOM     13  H14 <0> d          -3.398  -0.423  -6.101  0.00  0.00     0.161 HD
BRANCH  12  14
ATOM     14  C8  <0> d          -4.532  -2.122  -6.163  0.00  0.00     0.148 A 
ATOM     15  C10 <0> d          -5.313  -1.745  -7.351  0.00  0.00     0.034 A 
ATOM     16  C9  <0> d          -6.242  -2.733  -7.708  0.00  0.00     0.095 A 
ATOM     17  C11 <0> d          -5.261  -0.591  -8.147  0.00  0.00     0.017 A 
ATOM     18  S1  <0> d          -5.987  -3.979  -6.474  0.00  0.00     0.286 S 
ATOM     19  C14 <0> d          -7.072  -2.596  -8.782  0.00  0.00     0.026 A 
ATOM     20  N3  <0> d          -4.766  -3.257  -5.586  0.00  0.00    -0.141 NA
ATOM     21  O2  <0> d          -5.437  -5.120  -7.119  0.00  0.00    -0.198 OA
ATOM     22  O3  <0> d          -7.149  -4.025  -5.657  0.00  0.00    -0.198 OA
ATOM     23  C13 <0> d          -7.013  -1.443  -9.553  0.00  0.00     0.002 A 
ATOM     24  C12 <0> d          -6.103  -0.453  -9.228  0.00  0.00     0.001 A 
ENDBRANCH  12  14
ENDBRANCH  11  12
ENDBRANCH  10  11
ENDBRANCH   8  10
ENDBRANCH   5   6
ENDBRANCH   2   5
TORSDOF 6
