REMARK  5 active torsions:
REMARK  status: ('A' for Active; 'I' for Inactive)
REMARK    1  A    between atoms: N2_11  and  C9_14 
REMARK    2  A    between atoms: C9_14  and  C10_15 
REMARK    3  A    between atoms: C10_15  and  C11_17 
REMARK    4  A    between atoms: C11_17  and  C12_18 
REMARK    5  A    between atoms: C13_19  and  O3_24 
ROOT
ATOM      1  C9  <0> d           2.546   5.598   0.007  0.00  0.00     0.211 C 
ENDROOT
BRANCH   1   2
ATOM      2  N2  <0> d           2.446   4.136   0.000  0.00  0.00    -0.301 N 
ATOM      3  C7  <0> d           3.578   3.384  -0.015  0.00  0.00     0.213 A 
ATOM      4  N1  <0> d           3.573   2.086  -0.021  0.00  0.00    -0.243 NA
ATOM      5  C3  <0> d           2.415   1.379  -0.014  0.00  0.00     0.075 A 
ATOM      6  C2  <0> d           1.187   2.077   0.002  0.00  0.00     0.063 A 
ATOM      7  C4  <0> d           2.409  -0.017  -0.021  0.00  0.00     0.053 A 
ATOM      8  C1  <0> d          -0.017   1.374   0.010  0.00  0.00     0.044 A 
ATOM      9  C8  <0> d           1.228   3.547   0.009  0.00  0.00     0.261 A 
ATOM     10  C6  <0> d           0.002  -0.004   0.002  0.00  0.00     0.052 A 
ATOM     11  C5  <0> d           1.210  -0.694  -0.013  0.00  0.00     0.035 A 
ATOM     12 Cl1  <0> d          -1.494  -0.885   0.012  0.00  0.00    -0.083 Cl
ATOM     13 Br1  <0> d           1.205  -2.585  -0.023  0.00  0.00    -0.049 Br
ATOM     14  O1  <0> d           0.206   4.208   0.022  0.00  0.00    -0.267 OA
ENDBRANCH   1   2
BRANCH   1  15
ATOM     15  C10 <0> d           2.567   6.106  -1.411  0.00  0.00     0.147 C 
ATOM     16  O2  <0> d           2.504   5.328  -2.333  0.00  0.00    -0.296 OA
BRANCH  15  17
ATOM     17  C11 <0> d           2.664   7.586  -1.680  0.00  0.00     0.115 C 
BRANCH  17  18
ATOM     18  C12 <0> d           2.666   7.831  -3.190  0.00  0.00     0.221 C 
ATOM     19  N3  <0> d           3.877   7.247  -3.779  0.00  0.00    -0.068 N 
ATOM     20  C16 <0> d           3.851   7.410  -5.237  0.00  0.00     0.233 C 
ATOM     21  H16 <0> d           4.690   7.713  -3.404  0.00  0.00     0.277 HD
ATOM     22  H18 <0> d           3.920   6.265  -3.552  0.00  0.00     0.277 HD
ATOM     23  C15 <0> d           3.869   8.900  -5.587  0.00  0.00     0.030 C 
ATOM     24  C14 <0> d           2.640   9.578  -4.974  0.00  0.00     0.035 C 
ATOM     25  C13 <0> d           2.638   9.337  -3.462  0.00  0.00     0.149 C 
BRANCH  25  26
ATOM     26  O3  <0> d           1.458   9.903  -2.889  0.00  0.00    -0.393 OA
ATOM     27  H17 <0> d           1.375  10.857  -3.023  0.00  0.00     0.210 HD
ENDBRANCH  25  26
ENDBRANCH  17  18
ENDBRANCH  15  17
ENDBRANCH   1  15
TORSDOF 5
