REMARK  7 active torsions:
REMARK  status: ('A' for Active; 'I' for Inactive)
REMARK    1  A    between atoms: C2_2  and  N1_3 
REMARK    2  A    between atoms: N2_6  and  C7_9 
REMARK    3  A    between atoms: C7_9  and  C8_10 
REMARK    4  A    between atoms: C7_9  and  C19_24 
REMARK    5  A    between atoms: C12_14  and  O2_21 
REMARK    6  A    between atoms: O2_21  and  C17_22 
REMARK    7  A    between atoms: N7_28  and  C20_29 
ROOT
ATOM      1  C7  <0> d           1.098  -2.778   4.743  0.00  0.00     0.281 C 
ENDROOT
BRANCH   1   2
ATOM      2  N2  <0> d          -0.039  -2.249   3.979  0.00  0.00     0.101 N 
ATOM      3  C4  <0> d           0.243  -0.894   3.483  0.00  0.00     0.300 C 
ATOM      4  C3  <0> d          -0.986  -0.358   2.746  0.00  0.00     0.265 C 
ATOM      5  N1  <0> d          -1.312  -1.250   1.625  0.00  0.00    -0.068 N 
ATOM      6  C6  <0> d          -1.616  -2.592   2.138  0.00  0.00     0.265 C 
ATOM      7  H37 <0> d          -0.525  -1.300   0.996  0.00  0.00     0.280 HD
ATOM      8  C5  <0> d          -0.393  -3.147   2.871  0.00  0.00     0.300 C 
BRANCH   5   9
ATOM      9  C2  <0> d          -2.481  -0.725   0.907  0.00  0.00     0.230 C 
ATOM     10  C1  <0> d          -2.125   0.619   0.267  0.00  0.00     0.034 C 
ENDBRANCH   5   9
ENDBRANCH   1   2
BRANCH   1  11
ATOM     11  C8  <0> d           2.399  -2.474   3.998  0.00  0.00     0.138 A 
ATOM     12  C16 <0> d           2.272  -3.030   2.598  0.00  0.00     0.232 A 
ATOM     13  N3  <0> d           2.406  -2.226   1.557  0.00  0.00    -0.326 N 
ATOM     14  O1  <0> d           2.050  -4.214   2.429  0.00  0.00    -0.272 OA
ATOM     15  C15 <0> d           2.650  -0.920   1.673  0.00  0.00     0.044 A 
ATOM     16  H36 <0> d           2.322  -2.603   0.667  0.00  0.00     0.169 HD
ATOM     17  C10 <0> d           2.794  -0.266   2.985  0.00  0.00    -0.010 A 
ATOM     18  C14 <0> d           2.780  -0.125   0.519  0.00  0.00     0.033 A 
ATOM     19  C9  <0> d           2.678  -0.990   4.135  0.00  0.00     0.003 A 
ATOM     20  C11 <0> d           3.061   1.171   3.028  0.00  0.00     0.050 A 
ATOM     21  C12 <0> d           3.169   1.854   1.854  0.00  0.00     0.069 A 
ATOM     22  C13 <0> d           3.029   1.206   0.621  0.00  0.00     0.039 A 
BRANCH  21  23
ATOM     23  O2  <0> d           3.417   3.190   1.880  0.00  0.00    -0.351 OA
BRANCH  23  24
ATOM     24  C17 <0> d           3.520   3.856   0.620  0.00  0.00     0.171 C 
ATOM     25  C18 <0> d           3.800   5.342   0.849  0.00  0.00     0.034 C 
ENDBRANCH  23  24
ENDBRANCH  21  23
ENDBRANCH   1  11
BRANCH   1  26
ATOM     26  C19 <0> d           0.945  -4.292   4.904  0.00  0.00     0.262 A 
ATOM     27  N7  <0> d           1.853  -4.793   5.957  0.00  0.00    -0.176 NA
ATOM     28  N6  <0> d           1.015  -5.333   6.901  0.00  0.00    -0.218 N 
ATOM     29  N5  <0> d          -0.306  -5.188   6.480  0.00  0.00    -0.060 NA
ATOM     30  H26 <0> d           1.297  -5.751   7.730  0.00  0.00     0.206 HD
ATOM     31  N4  <0> d          -0.402  -4.622   5.389  0.00  0.00    -0.149 NA
BRANCH  27  32
ATOM     32  C20 <0> d           2.770  -5.808   5.422  0.00  0.00     0.025 C 
ATOM     33  C21 <0> d           3.909  -5.119   4.667  0.00  0.00     0.033 C 
ATOM     34  C22 <0> d           3.348  -6.632   6.574  0.00  0.00     0.033 C 
ATOM     35  C23 <0> d           2.010  -6.730   4.467  0.00  0.00     0.033 C 
ENDBRANCH  27  32
ENDBRANCH   1  26
TORSDOF 7
