REMARK  9 active torsions:
REMARK  status: ('A' for Active; 'I' for Inactive)
REMARK    1  A    between atoms: C5_5  and  C8_9 
REMARK    2  A    between atoms: C6_6  and  O1_8 
REMARK       I    between atoms: C8_9  and  N1_11 
REMARK    3  A    between atoms: N1_11  and  C9_12 
REMARK    4  A    between atoms: C9_12  and  C10_13 
REMARK    5  A    between atoms: C10_13  and  C11_14 
REMARK       I    between atoms: C11_14  and  N2_16 
REMARK    6  A    between atoms: N2_16  and  C12_17 
REMARK    7  A    between atoms: C12_17  and  C13_18 
REMARK    8  A    between atoms: C13_18  and  C14_19 
REMARK    9  A    between atoms: C13_18  and  N3_22 
ROOT
ATOM      1  C11 <0> d          -0.132  -8.504  -2.537  0.00  0.00     0.219 C 
ATOM      2  O3  <0> d           0.285  -9.108  -1.572  0.00  0.00    -0.274 OA
ATOM      3  N2  <0> d          -0.287  -9.139  -3.716  0.00  0.00    -0.359 N 
ATOM      4  H14 <0> d          -0.621  -8.655  -4.487  0.00  0.00     0.162 HD
ENDROOT
BRANCH   1   5
ATOM      5  C10 <0> d          -0.478  -7.042  -2.418  0.00  0.00     0.122 C 
BRANCH   5   6
ATOM      6  C9  <0> d          -0.213  -6.570  -0.987  0.00  0.00     0.132 C 
BRANCH   6   7
ATOM      7  N1  <0> d          -0.550  -5.149  -0.871  0.00  0.00    -0.356 N 
ATOM      8  C8  <0> d          -0.396  -4.513   0.307  0.00  0.00     0.254 C 
ATOM      9  O2  <0> d           0.023  -5.120   1.274  0.00  0.00    -0.268 OA
ATOM     10  H9  <0> d          -0.884  -4.665  -1.643  0.00  0.00     0.162 HD
BRANCH   8  11
ATOM     11  C5  <0> d          -0.735  -3.082   0.424  0.00  0.00     0.065 A 
ATOM     12  C4  <0> d          -1.216  -2.382  -0.685  0.00  0.00     0.020 A 
ATOM     13  C3  <0> d          -1.531  -1.045  -0.570  0.00  0.00     0.008 A 
ATOM     14  C2  <0> d          -1.373  -0.392   0.642  0.00  0.00    -0.059 A 
ATOM     15  C1  <0> d          -1.721   1.070   0.755  0.00  0.00     0.048 C 
ATOM     16  C7  <0> d          -0.893  -1.071   1.744  0.00  0.00     0.044 A 
ATOM     17  C6  <0> d          -0.576  -2.418   1.647  0.00  0.00     0.081 A 
BRANCH  17  18
ATOM     18  O1  <0> d          -0.110  -3.087   2.731  0.00  0.00    -0.360 OA
ATOM     19  H8  <0> d           0.853  -3.067   2.821  0.00  0.00     0.217 HD
ENDBRANCH  17  18
ENDBRANCH   8  11
ENDBRANCH   6   7
ENDBRANCH   5   6
ENDBRANCH   1   5
BRANCH   3  20
ATOM     20  C12 <0> d           0.050 -10.560  -3.831  0.00  0.00     0.156 C 
BRANCH  20  21
ATOM     21  C13 <0> d          -0.034 -10.986  -5.298  0.00  0.00     0.209 C 
BRANCH  21  22
ATOM     22  C14 <0> d           0.083 -12.509  -5.394  0.00  0.00     0.010 C 
ATOM     23  C15 <0> d          -1.123 -13.157  -4.712  0.00  0.00     0.011 C 
ATOM     24  C16 <0> d           0.122 -12.925  -6.866  0.00  0.00     0.011 C 
ENDBRANCH  21  22
BRANCH  21  25
ATOM     25  N3  <0> d           1.062 -10.363  -6.052  0.00  0.00    -0.065 N 
ATOM     26  C21 <0> d           2.342 -10.684  -5.409  0.00  0.00     0.235 C 
ATOM     27  C20 <0> d           3.492 -10.105  -6.236  0.00  0.00     0.032 C 
ATOM     28  C19 <0> d           3.332  -8.585  -6.327  0.00  0.00    -0.015 C 
ATOM     29  C18 <0> d           1.963  -8.260  -6.931  0.00  0.00     0.032 C 
ATOM     30  C22 <0> d           4.434  -8.007  -7.218  0.00  0.00     0.010 C 
ATOM     31  C17 <0> d           0.870  -8.908  -6.079  0.00  0.00     0.235 C 
ATOM     32  H36 <0> d           1.063 -10.717  -6.997  0.00  0.00     0.280 HD
ENDBRANCH  21  25
ENDBRANCH  20  21
ENDBRANCH   3  20
TORSDOF 9
