REMARK  5 active torsions:
REMARK  status: ('A' for Active; 'I' for Inactive)
REMARK    1  A    between atoms: C3_3  and  O3_24 
REMARK    2  A    between atoms: C10_12  and  C11_13 
REMARK    3  A    between atoms: C11_13  and  N1_14 
REMARK    4  A    between atoms: N2_17  and  C16_20 
REMARK    5  A    between atoms: C16_20  and  C17_21 
ROOT
ATOM      1  C1  <0> d          -0.018   1.503   0.010  0.00  0.00     0.054 C 
ATOM      2  C2  <0> d           0.002  -0.004   0.002  0.00  0.00     0.006 A 
ATOM      3  C3  <0> d           0.006  -0.693  -1.200  0.00  0.00     0.074 A 
ATOM      4  C4  <0> d           0.024  -2.086  -1.219  0.00  0.00     0.038 A 
ATOM      5  C5  <0> d           0.039  -2.792  -0.051  0.00  0.00     0.017 A 
ATOM      6  C6  <0> d           0.036  -2.113   1.173  0.00  0.00     0.007 A 
ATOM      7  C7  <0> d           0.023  -0.706   1.198  0.00  0.00     0.099 A 
ATOM      8  O1  <0> d           0.025  -0.054   2.380  0.00  0.00    -0.274 OA
ATOM      9  C8  <0> d           0.045  -0.719   3.546  0.00  0.00     0.288 A 
ATOM     10  O2  <0> d           0.046  -0.089   4.588  0.00  0.00    -0.260 OA
ATOM     11  C9  <0> d           0.065  -2.128   3.595  0.00  0.00     0.092 A 
ATOM     12  C10 <0> d           0.051  -2.845   2.441  0.00  0.00    -0.011 A 
ENDROOT
BRANCH  12  13
ATOM     13  C11 <0> d           0.071  -4.351   2.466  0.00  0.00     0.312 C 
BRANCH  13  14
ATOM     14  N1  <0> d          -1.303  -4.861   2.359  0.00  0.00     0.096 N 
ATOM     15  C15 <0> d          -1.310  -6.314   2.141  0.00  0.00     0.300 C 
ATOM     16  C14 <0> d          -2.754  -6.795   1.977  0.00  0.00     0.265 C 
ATOM     17  N2  <0> d          -3.522  -6.459   3.183  0.00  0.00    -0.067 N 
ATOM     18  C13 <0> d          -3.526  -5.003   3.373  0.00  0.00     0.265 C 
ATOM     19  H27 <0> d          -3.099  -6.902   3.985  0.00  0.00     0.280 HD
ATOM     20  C12 <0> d          -2.089  -4.507   3.549  0.00  0.00     0.300 C 
BRANCH  17  21
ATOM     21  C16 <0> d          -4.903  -6.937   3.032  0.00  0.00     0.238 C 
BRANCH  21  22
ATOM     22  C17 <0> d          -4.909  -8.465   2.958  0.00  0.00     0.003 C 
ATOM     23  C18 <0> d          -4.425  -9.042   4.290  0.00  0.00     0.011 C 
ATOM     24  C19 <0> d          -6.330  -8.957   2.676  0.00  0.00     0.011 C 
ENDBRANCH  21  22
ENDBRANCH  17  21
ENDBRANCH  13  14
ENDBRANCH  12  13
BRANCH   3  25
ATOM     25  O3  <0> d          -0.009  -0.004  -2.370  0.00  0.00    -0.360 OA
ATOM     26  H26 <0> d           0.870   0.207  -2.713  0.00  0.00     0.217 HD
ENDBRANCH   3  25
TORSDOF 5
