REMARK  5 active torsions:
REMARK  status: ('A' for Active; 'I' for Inactive)
REMARK    1  A    between atoms: S1_2  and  C2_3 
REMARK    2  A    between atoms: C6_7  and  N1_9 
REMARK    3  A    between atoms: N1_9  and  C8_10 
REMARK    4  A    between atoms: N2_12  and  C9_13 
REMARK    5  A    between atoms: C9_13  and  C10_14 
ROOT
ATOM      1  C10 <0> d          -6.967  -7.019   0.470  0.00  0.00     0.206 C 
ATOM      2  C11 <0> d          -8.446  -7.410   0.477  0.00  0.00     0.041 C 
ATOM      3  C12 <0> d          -8.723  -8.325  -0.723  0.00  0.00     0.006 C 
ATOM      4  C13 <0> d          -8.374  -7.559  -2.006  0.00  0.00     0.034 C 
ATOM      5  C14 <0> d          -6.902  -7.142  -1.948  0.00  0.00     0.236 C 
ATOM      6  N3  <0> d          -6.293  -7.638  -0.674  0.00  0.00    -0.064 N 
ATOM      7  C15 <0> d          -6.360  -9.098  -0.584  0.00  0.00     0.252 C 
ATOM      8  C16 <0> d          -7.817  -9.558  -0.610  0.00  0.00     0.094 C 
ATOM      9  C17 <0> d          -8.035 -10.438  -1.770  0.00  0.00    -0.111 C 
ATOM     10  C18 <0> d          -8.208 -11.140  -2.695  0.00  0.00     0.012 C 
ATOM     11  H24 <0> d          -5.320  -7.369  -0.655  0.00  0.00     0.280 HD
ENDROOT
BRANCH   1  12
ATOM     12  C9  <0> d          -6.845  -5.497   0.369  0.00  0.00     0.155 C 
BRANCH  12  13
ATOM     13  N2  <0> d          -5.432  -5.128   0.247  0.00  0.00    -0.365 N 
ATOM     14  C8  <0> d          -5.082  -3.830   0.143  0.00  0.00     0.172 C 
ATOM     15  S2  <0> d          -6.287  -2.615   0.155  0.00  0.00    -0.041 SA
ATOM     16  H12 <0> d          -4.750  -5.817   0.240  0.00  0.00     0.161 HD
BRANCH  14  17
ATOM     17  N1  <0> d          -3.782  -3.490   0.031  0.00  0.00    -0.333 N 
ATOM     18  H11 <0> d          -3.104  -4.181  -0.037  0.00  0.00     0.168 HD
BRANCH  17  19
ATOM     19  C6  <0> d          -3.411  -2.142   0.013  0.00  0.00     0.035 A 
ATOM     20  C5  <0> d          -4.112  -1.238  -0.776  0.00  0.00     0.029 A 
ATOM     21  C4  <0> d          -3.747   0.094  -0.795  0.00  0.00     0.004 A 
ATOM     22  C3  <0> d          -2.684   0.533  -0.031  0.00  0.00     0.018 A 
ATOM     23  C2  <0> d          -1.978  -0.366   0.761  0.00  0.00     0.002 A 
ATOM     24  C7  <0> d          -2.339  -1.706   0.778  0.00  0.00     0.048 A 
BRANCH  23  25
ATOM     25  S1  <0> d          -0.621   0.194   1.737  0.00  0.00    -0.134 SA
ATOM     26  C1  <0> d          -0.538   1.973   1.392  0.00  0.00     0.095 C 
ENDBRANCH  23  25
ENDBRANCH  17  19
ENDBRANCH  14  17
ENDBRANCH  12  13
ENDBRANCH   1  12
TORSDOF 5
