REMARK  5 active torsions:
REMARK  status: ('A' for Active; 'I' for Inactive)
REMARK    1  A    between atoms: C3_3  and  C18_24 
REMARK    2  A    between atoms: C5_7  and  C6_8 
REMARK       I    between atoms: C6_8  and  N2_10 
REMARK    3  A    between atoms: N2_10  and  C7_11 
REMARK    4  A    between atoms: C12_16  and  C13_17 
REMARK    5  A    between atoms: C13_17  and  C14_18 
REMARK       I    between atoms: C14_18  and  N3_20 
ROOT
ATOM      1  C6  <0> d          -0.549  -0.533   2.567  0.00  0.00     0.273 C 
ATOM      2  O1  <0> d          -1.095   0.507   2.885  0.00  0.00    -0.266 OA
ATOM      3  N2  <0> d           0.056  -1.291   3.503  0.00  0.00    -0.321 N 
ATOM      4  H5  <0> d           0.546  -2.085   3.241  0.00  0.00     0.169 HD
ENDROOT
BRANCH   3   5
ATOM      5  C7  <0> d          -0.024  -0.931   4.852  0.00  0.00     0.041 A 
ATOM      6  C12 <0> d          -0.095  -1.914   5.831  0.00  0.00    -0.023 A 
ATOM      7  C11 <0> d          -0.168  -1.556   7.163  0.00  0.00     0.010 A 
ATOM      8  C10 <0> d          -0.182  -0.220   7.521  0.00  0.00     0.001 A 
ATOM      9  C9  <0> d          -0.117   0.761   6.549  0.00  0.00     0.002 A 
ATOM     10  C8  <0> d          -0.038   0.409   5.216  0.00  0.00     0.030 A 
BRANCH   6  11
ATOM     11  C13 <0> d          -0.086  -3.369   5.441  0.00  0.00     0.144 C 
BRANCH  11  12
ATOM     12  C14 <0> d           1.337  -3.838   5.278  0.00  0.00     0.223 C 
ATOM     13  O2  <0> d           2.254  -3.065   5.462  0.00  0.00    -0.273 OA
ATOM     14  N3  <0> d           1.591  -5.114   4.929  0.00  0.00    -0.361 N 
ATOM     15  C15 <0> d           2.974  -5.570   4.772  0.00  0.00     0.152 C 
ATOM     16  C16 <0> d           0.483  -6.047   4.708  0.00  0.00     0.152 C 
ENDBRANCH  11  12
ENDBRANCH   6  11
ENDBRANCH   3   5
BRANCH   1  17
ATOM     17  C5  <0> d          -0.550  -0.962   1.163  0.00  0.00     0.108 A 
ATOM     18  C2  <0> d          -1.123  -0.291   0.125  0.00  0.00    -0.014 A 
ATOM     19  C1  <0> d          -1.867   1.018   0.204  0.00  0.00     0.052 C 
ATOM     20  C3  <0> d          -0.882  -1.053  -1.044  0.00  0.00     0.040 A 
ATOM     21  C4  <0> d          -0.166  -2.174  -0.654  0.00  0.00     0.020 A 
ATOM     22  N1  <0> d           0.026  -2.114   0.671  0.00  0.00    -0.354 N 
ATOM     23  C17 <0> d           0.314  -3.274  -1.566  0.00  0.00     0.069 C 
ATOM     24  H1  <0> d           0.499  -2.775   1.201  0.00  0.00     0.166 HD
BRANCH  20  25
ATOM     25  C18 <0> d          -1.308  -0.719  -2.406  0.00  0.00     0.158 C 
ATOM     26  O3  <0> d          -2.341  -1.177  -2.848  0.00  0.00    -0.293 OA
ATOM     27  C19 <0> d          -0.462   0.192  -3.259  0.00  0.00     0.097 C 
ENDBRANCH  20  25
ENDBRANCH   1  17
TORSDOF 5
