REMARK  4 active torsions:
REMARK  status: ('A' for Active; 'I' for Inactive)
REMARK    1  A    between atoms: C2_2  and  C3_3 
REMARK    2  A    between atoms: C8_8  and  N1_9 
REMARK    3  A    between atoms: N1_9  and  C9_10 
REMARK    4  A    between atoms: C9_10  and  C14_18 
ROOT
ATOM      1  C9  <0> d           0.979  -4.046  -0.087  0.00  0.00     0.214 C 
ATOM      2  C10 <0> d           2.041  -3.811   0.983  0.00  0.00     0.065 C 
ATOM      3  C11 <0> d           1.489  -2.890   2.074  0.00  0.00     0.143 C 
ATOM      4  S1  <0> d           0.092  -3.718   2.890  0.00  0.00     0.144 S 
ATOM      5  O1  <0> d          -0.587  -2.767   3.698  0.00  0.00    -0.228 OA
ATOM      6  O2  <0> d           0.563  -4.920   3.483  0.00  0.00    -0.228 OA
ATOM      7  C12 <0> d          -0.972  -4.143   1.479  0.00  0.00     0.143 C 
ATOM      8  C13 <0> d          -0.146  -4.924   0.454  0.00  0.00     0.065 C 
ENDROOT
BRANCH   1   9
ATOM      9  N1  <0> d           0.423  -2.753  -0.509  0.00  0.00    -0.051 N 
ATOM     10  H16 <0> d           1.144  -2.206  -0.954  0.00  0.00     0.279 HD
ATOM     11  H25 <0> d           0.074  -2.258   0.298  0.00  0.00     0.279 HD
BRANCH   9  12
ATOM     12  C8  <0> d          -0.676  -2.979  -1.458  0.00  0.00     0.191 C 
ATOM     13  C3  <0> d          -1.543  -1.722  -1.543  0.00  0.00     0.016 C 
ATOM     14  C4  <0> d          -0.690  -0.545  -2.021  0.00  0.00     0.007 C 
ATOM     15  C5  <0> d          -0.114  -0.861  -3.402  0.00  0.00     0.001 C 
ATOM     16  C6  <0> d           0.754  -2.119  -3.318  0.00  0.00     0.002 C 
ATOM     17  C7  <0> d          -0.099  -3.296  -2.840  0.00  0.00     0.033 C 
BRANCH  13  18
ATOM     18  C2  <0> d          -2.120  -1.406  -0.161  0.00  0.00     0.002 C 
ATOM     19  C1  <0> d          -3.085  -0.224  -0.270  0.00  0.00     0.005 C 
ENDBRANCH  13  18
ENDBRANCH   9  12
ENDBRANCH   1   9
BRANCH   1  20
ATOM     20  C14 <0> d           1.612  -4.725  -1.274  0.00  0.00     0.210 C 
ATOM     21  O3  <0> d           2.319  -4.088  -2.035  0.00  0.00    -0.646 OA
ATOM     22  O4  <0> d           1.417  -5.912  -1.472  0.00  0.00    -0.646 OA
ENDBRANCH   1  20
TORSDOF 4
