REMARK  4 active torsions:
REMARK  status: ('A' for Active; 'I' for Inactive)
REMARK    1  A    between atoms: C2_2  and  C3_3 
REMARK    2  A    between atoms: C2_2  and  N2_7 
REMARK       I    between atoms: C3_3  and  N1_5 
REMARK    3  A    between atoms: N2_7  and  C5_8 
REMARK    4  A    between atoms: C5_8  and  C6_9 
ROOT
ATOM      1  C6  <0> d           2.806  -0.556  -2.399  0.00  0.00    -0.029 A 
ATOM      2  C7  <0> d           3.400  -1.804  -2.410  0.00  0.00     0.048 A 
ATOM      3  C8  <0> d           4.050  -2.254  -3.550  0.00  0.00     0.104 A 
ATOM      4  C9  <0> d           4.099  -1.449  -4.681  0.00  0.00     0.119 A 
ATOM      5  C10 <0> d           3.502  -0.197  -4.663  0.00  0.00     0.047 A 
ATOM      6  C11 <0> d           2.852   0.244  -3.525  0.00  0.00     0.031 A 
ATOM      7 Br1  <0> d           3.570   0.904  -6.199  0.00  0.00    -0.048 Br
ATOM      8  O2  <0> d           4.725  -1.875  -5.812  0.00  0.00    -0.345 OA
ATOM      9  C12 <0> d           5.631  -2.975  -5.672  0.00  0.00     0.202 C 
ATOM     10  C13 <0> d           4.948  -4.053  -4.819  0.00  0.00     0.202 C 
ATOM     11  O3  <0> d           4.634  -3.484  -3.544  0.00  0.00    -0.346 OA
ENDROOT
BRANCH   1  12
ATOM     12  C5  <0> d           2.100  -0.070  -1.159  0.00  0.00     0.272 C 
BRANCH  12  13
ATOM     13  N2  <0> d           0.690  -0.478  -1.207  0.00  0.00    -0.059 N 
ATOM     14  H9  <0> d           0.632  -1.484  -1.254  0.00  0.00     0.278 HD
ATOM     15  H18 <0> d           0.251  -0.077  -2.022  0.00  0.00     0.278 HD
BRANCH  13  16
ATOM     16  C2  <0> d           0.002  -0.004   0.002  0.00  0.00     0.273 C 
ATOM     17  C1  <0> d          -0.019   1.526   0.010  0.00  0.00     0.050 C 
BRANCH  16  18
ATOM     18  C3  <0> d          -1.412  -0.526   0.013  0.00  0.00     0.247 C 
ATOM     19  O1  <0> d          -1.808  -1.223  -0.897  0.00  0.00    -0.271 OA
ATOM     20  N1  <0> d          -2.236  -0.217   1.033  0.00  0.00    -0.364 N 
ATOM     21  C4  <0> d          -3.611  -0.724   1.044  0.00  0.00     0.149 C 
ATOM     22  H5  <0> d          -1.920   0.341   1.761  0.00  0.00     0.161 HD
ENDBRANCH  16  18
ENDBRANCH  13  16
ENDBRANCH  12  13
ENDBRANCH   1  12
TORSDOF 4
