REMARK  3 active torsions:
REMARK  status: ('A' for Active; 'I' for Inactive)
REMARK    1  A    between atoms: S1_2  and  C2_5 
REMARK    2  A    between atoms: C5_8  and  N1_15 
REMARK    3  A    between atoms: C7_10  and  C8_11 
ROOT
ATOM      1  C2  <0> d           0.872  -0.144  -1.564  0.00  0.00     0.074 A 
ATOM      2  C3  <0> d           2.059  -0.852  -1.616  0.00  0.00     0.026 A 
ATOM      3  C4  <0> d           2.533  -1.321  -2.825  0.00  0.00     0.030 A 
ATOM      4  C5  <0> d           1.816  -1.081  -3.990  0.00  0.00     0.026 A 
ATOM      5  C6  <0> d           0.624  -0.370  -3.935  0.00  0.00     0.046 A 
ATOM      6  C7  <0> d           0.153   0.092  -2.721  0.00  0.00     0.071 A 
ENDROOT
BRANCH   1   7
ATOM      7  S1  <0> d           0.271   0.453  -0.019  0.00  0.00     0.172 S 
ATOM      8  C1  <0> d           1.303   1.896   0.357  0.00  0.00     0.167 C 
ATOM      9  O1  <0> d           0.540  -0.595   0.904  0.00  0.00    -0.223 OA
ATOM     10  O2  <0> d          -1.064   0.861  -0.282  0.00  0.00    -0.223 OA
ENDBRANCH   1   7
BRANCH   6  11
ATOM     11  C8  <0> d          -1.143   0.858  -2.659  0.00  0.00     0.419 C 
ATOM     12  F1  <0> d          -1.610   1.091  -3.957  0.00  0.00    -0.166 F 
ATOM     13  F2  <0> d          -2.091   0.115  -1.948  0.00  0.00    -0.166 F 
ATOM     14  F3  <0> d          -0.931   2.082  -2.014  0.00  0.00    -0.166 F 
ENDBRANCH   6  11
BRANCH   4  15
ATOM     15  N1  <0> d           2.292  -1.554  -5.215  0.00  0.00    -0.399 N 
ATOM     16  H7  <0> d           3.125  -2.050  -5.253  0.00  0.00     0.156 HD
ATOM     17  H8  <0> d           1.791  -1.385  -6.028  0.00  0.00     0.156 HD
ENDBRANCH   4  15
TORSDOF 3
