REMARK  6 active torsions:
REMARK  status: ('A' for Active; 'I' for Inactive)
REMARK    1  A    between atoms: C2_2  and  C3_3 
REMARK    2  A    between atoms: C2_2  and  N1_18 
REMARK    3  A    between atoms: C3_3  and  C4_4 
REMARK    4  A    between atoms: C3_3  and  S2_10 
REMARK    5  A    between atoms: S2_10  and  C8_11 
REMARK    6  A    between atoms: C8_11  and  C9_12 
ROOT
ATOM      1  C3  <0> d           0.702  -0.402   1.303  0.00  0.00     0.117 C 
ENDROOT
BRANCH   1   2
ATOM      2  C2  <0> d          -0.076   0.127   0.096  0.00  0.00     0.198 C 
ATOM      3  C1  <0> d          -1.444  -0.555   0.033  0.00  0.00     0.041 C 
BRANCH   2   4
ATOM      4  N1  <0> d          -0.258   1.578   0.229  0.00  0.00    -0.074 N 
ATOM      5  H15 <0> d           0.645   2.028   0.271  0.00  0.00     0.274 HD
ATOM      6  H16 <0> d          -0.770   1.927  -0.568  0.00  0.00     0.274 HD
ATOM      7  H17 <0> d          -0.772   1.777   1.073  0.00  0.00     0.274 HD
ENDBRANCH   2   4
ENDBRANCH   1   2
BRANCH   1   8
ATOM      8  C4  <0> d           0.944  -1.880   1.137  0.00  0.00    -0.001 A 
ATOM      9  S1  <0> d           1.824  -2.736  -0.160  0.00  0.00    -0.104 SA
ATOM     10  C7  <0> d           1.610  -4.401   0.447  0.00  0.00     0.069 A 
ATOM     11  C6  <0> d           0.886  -4.198   1.575  0.00  0.00     0.018 A 
ATOM     12  C5  <0> d           0.544  -2.905   1.929  0.00  0.00     0.035 A 
ATOM     13 Br1  <0> d           0.352  -5.659   2.650  0.00  0.00    -0.051 Br
ENDBRANCH   1   8
BRANCH   1  14
ATOM     14  S2  <0> d           2.292   0.461   1.423  0.00  0.00    -0.152 SA
BRANCH  14  15
ATOM     15  C8  <0> d           2.988  -0.117   2.995  0.00  0.00     0.113 C 
BRANCH  15  16
ATOM     16  C9  <0> d           4.378   0.439   3.165  0.00  0.00    -0.049 A 
ATOM     17  C14 <0> d           4.564   1.655   3.796  0.00  0.00     0.008 A 
ATOM     18  C13 <0> d           5.839   2.163   3.955  0.00  0.00     0.001 A 
ATOM     19  C12 <0> d           6.929   1.460   3.475  0.00  0.00     0.000 A 
ATOM     20  C11 <0> d           6.742   0.247   2.839  0.00  0.00     0.001 A 
ATOM     21  C10 <0> d           5.467  -0.263   2.684  0.00  0.00     0.008 A 
ENDBRANCH  15  16
ENDBRANCH  14  15
ENDBRANCH   1  14
TORSDOF 6
