REMARK  7 active torsions:
REMARK  status: ('A' for Active; 'I' for Inactive)
REMARK    1  A    between atoms: C2_2  and  C3_3 
REMARK    2  A    between atoms: C3_3  and  C4_4 
REMARK    3  A    between atoms: C4_4  and  C5_5 
REMARK    4  A    between atoms: C5_5  and  C6_6 
REMARK    5  A    between atoms: C6_6  and  N1_7 
REMARK       I    between atoms: N1_7  and  C7_8 
REMARK    6  A    between atoms: C7_8  and  C8_10 
REMARK       I    between atoms: N2_12  and  C16_20 
REMARK    7  A    between atoms: C16_20  and  C17_22 
ROOT
ATOM      1  C8  <0> d          -6.316  -6.563  -0.547  0.00  0.00     0.106 C 
ATOM      2  C9  <0> d          -6.759  -6.161   0.877  0.00  0.00     0.141 C 
ATOM      3  N2  <0> d          -7.479  -7.348   1.395  0.00  0.00    -0.346 N 
ATOM      4  C10 <0> d          -6.690  -8.502   0.901  0.00  0.00     0.136 C 
ATOM      5  C11 <0> d          -6.271  -8.100  -0.527  0.00  0.00    -0.007 C 
ATOM      6  C12 <0> d          -4.857  -8.591  -0.820  0.00  0.00     0.039 C 
ATOM      7  C13 <0> d          -4.849 -10.122  -0.852  0.00  0.00     0.233 C 
ATOM      8  N3  <0> d          -5.777 -10.596  -1.887  0.00  0.00    -0.075 N 
ATOM      9  C14 <0> d          -7.149 -10.199  -1.549  0.00  0.00     0.233 C 
ATOM     10  C15 <0> d          -7.253  -8.671  -1.546  0.00  0.00     0.039 C 
ATOM     11  C16 <0> d          -8.598  -7.374   2.146  0.00  0.00     0.254 C 
ATOM     12  O2  <0> d          -9.017  -8.430   2.577  0.00  0.00    -0.267 OA
ATOM     13  H24 <0> d          -5.521 -10.194  -2.776  0.00  0.00     0.277 HD
ATOM     14  H38 <0> d          -5.725 -11.602  -1.948  0.00  0.00     0.277 HD
ENDROOT
BRANCH   1  15
ATOM     15  C7  <0> d          -4.951  -6.002  -0.850  0.00  0.00     0.224 C 
ATOM     16  N1  <0> d          -4.603  -5.726  -2.123  0.00  0.00    -0.361 N 
ATOM     17  H15 <0> d          -5.232  -5.888  -2.843  0.00  0.00     0.162 HD
ATOM     18  O1  <0> d          -4.165  -5.800   0.051  0.00  0.00    -0.273 OA
BRANCH  16  19
ATOM     19  C6  <0> d          -3.276  -5.180  -2.417  0.00  0.00     0.122 C 
BRANCH  19  20
ATOM     20  C5  <0> d          -3.139  -4.958  -3.925  0.00  0.00     0.020 C 
BRANCH  20  21
ATOM     21  C4  <0> d          -1.752  -4.389  -4.233  0.00  0.00     0.002 C 
BRANCH  21  22
ATOM     22  C3  <0> d          -1.615  -4.167  -5.740  0.00  0.00    -0.000 C 
BRANCH  22  23
ATOM     23  C2  <0> d          -0.229  -3.597  -6.048  0.00  0.00    -0.005 C 
ATOM     24  C1  <0> d          -0.092  -3.376  -7.556  0.00  0.00     0.005 C 
ENDBRANCH  22  23
ENDBRANCH  21  22
ENDBRANCH  20  21
ENDBRANCH  19  20
ENDBRANCH  16  19
ENDBRANCH   1  15
BRANCH  11  25
ATOM     25  C17 <0> d          -9.317  -6.116   2.444  0.00  0.00     0.038 A 
ATOM     26  C22 <0> d         -10.711  -6.104   2.509  0.00  0.00    -0.046 A 
ATOM     27  C21 <0> d         -11.375  -4.929   2.793  0.00  0.00     0.014 A 
ATOM     28  C23 <0> d         -11.489  -7.374   2.276  0.00  0.00     0.049 C 
ATOM     29  C20 <0> d         -10.662  -3.761   3.002  0.00  0.00    -0.061 A 
ATOM     30  C19 <0> d          -9.280  -3.765   2.934  0.00  0.00     0.008 A 
ATOM     31  C24 <0> d         -11.395  -2.480   3.307  0.00  0.00     0.048 C 
ATOM     32  C18 <0> d          -8.604  -4.935   2.656  0.00  0.00     0.018 A 
ENDBRANCH  11  25
TORSDOF 7
