REMARK  6 active torsions:
REMARK  status: ('A' for Active; 'I' for Inactive)
REMARK    1  A    between atoms: C6_6  and  O4_28 
REMARK    2  A    between atoms: C10_12  and  C11_13 
REMARK    3  A    between atoms: C11_13  and  C12_14 
REMARK       I    between atoms: C12_14  and  N1_16 
REMARK    4  A    between atoms: N1_16  and  C13_17 
REMARK    5  A    between atoms: O4_28  and  C20_29 
REMARK    6  A    between atoms: C20_29  and  C21_30 
ROOT
ATOM      1  C1  <0> d           0.002   1.446   0.258  0.00  0.00     0.050 C 
ATOM      2  C2  <0> d           0.025  -0.054   0.110  0.00  0.00    -0.036 A 
ATOM      3  C3  <0> d          -1.207  -0.839   0.210  0.00  0.00     0.006 A 
ATOM      4  C4  <0> d          -2.439  -0.218   0.446  0.00  0.00     0.041 A 
ATOM      5  C5  <0> d          -3.573  -0.973   0.534  0.00  0.00     0.068 A 
ATOM      6  C6  <0> d          -3.511  -2.359   0.392  0.00  0.00     0.093 A 
ATOM      7  C7  <0> d          -2.300  -2.989   0.158  0.00  0.00     0.076 A 
ATOM      8  C8  <0> d          -1.139  -2.236   0.065  0.00  0.00     0.093 A 
ATOM      9  O1  <0> d           0.052  -2.831  -0.164  0.00  0.00    -0.274 OA
ATOM     10  C9  <0> d           1.185  -2.118  -0.257  0.00  0.00     0.295 A 
ATOM     11  O2  <0> d           2.236  -2.697  -0.464  0.00  0.00    -0.259 OA
ATOM     12  C10 <0> d           1.189  -0.714  -0.126  0.00  0.00     0.033 A 
ATOM     13 Cl1  <0> d          -5.101  -0.204   0.827  0.00  0.00    -0.081 Cl
ENDROOT
BRANCH  12  14
ATOM     14  C11 <0> d           2.482   0.052  -0.243  0.00  0.00     0.151 C 
BRANCH  14  15
ATOM     15  C12 <0> d           3.172   0.080   1.097  0.00  0.00     0.265 C 
ATOM     16  O3  <0> d           2.663  -0.469   2.055  0.00  0.00    -0.270 OA
ATOM     17  N1  <0> d           4.337   0.705   1.231  0.00  0.00    -0.028 NA
BRANCH  17  18
ATOM     18  C13 <0> d           4.994   0.647   2.387  0.00  0.00     0.708 A 
ATOM     19  N3  <0> d           6.238   1.147   2.611  0.00  0.00    -0.188 N 
ATOM     20  C19 <0> d           6.577   0.893   3.937  0.00  0.00     0.076 A 
ATOM     21  H2  <0> d           6.793   1.604   1.960  0.00  0.00     0.184 HD
ATOM     22  C14 <0> d           5.502   0.213   4.513  0.00  0.00     0.076 A 
ATOM     23  C18 <0> d           7.702   1.177   4.697  0.00  0.00     0.032 A 
ATOM     24  N2  <0> d           4.531   0.072   3.527  0.00  0.00    -0.188 N 
ATOM     25  C15 <0> d           5.566  -0.176   5.844  0.00  0.00     0.032 A 
ATOM     26  H1  <0> d           3.670  -0.362   3.636  0.00  0.00     0.184 HD
ATOM     27  C16 <0> d           6.690   0.111   6.591  0.00  0.00     0.002 A 
ATOM     28  C17 <0> d           7.755   0.786   6.020  0.00  0.00     0.002 A 
ENDBRANCH  17  18
ENDBRANCH  14  15
ENDBRANCH  12  14
BRANCH   6  29
ATOM     29  O4  <0> d          -4.647  -3.097   0.483  0.00  0.00    -0.345 OA
BRANCH  29  30
ATOM     30  C20 <0> d          -4.516  -4.511   0.328  0.00  0.00     0.209 C 
BRANCH  30  31
ATOM     31  C21 <0> d          -5.871  -5.159   0.460  0.00  0.00    -0.069 C 
ATOM     32  C22 <0> d          -6.930  -4.421   0.682  0.00  0.00     0.016 C 
ATOM     33  C23 <0> d          -6.006  -6.654   0.335  0.00  0.00     0.044 C 
ENDBRANCH  30  31
ENDBRANCH  29  30
ENDBRANCH   6  29
TORSDOF 6
