REMARK  4 active torsions:
REMARK  status: ('A' for Active; 'I' for Inactive)
REMARK    1  A    between atoms: O1_2  and  C2_3 
REMARK    2  A    between atoms: C7_8  and  C8_9 
REMARK    3  A    between atoms: N3_14  and  C12_17 
REMARK    4  A    between atoms: C12_17  and  C13_18 
ROOT
ATOM      1  C8  <0> d           0.018  -2.829  -0.013  0.00  0.00     0.287 C 
ATOM      2  N1  <0> d          -0.257  -4.201   0.443  0.00  0.00    -0.074 NA
ATOM      3  C9  <0> d          -0.655  -5.123  -0.377  0.00  0.00     0.717 C 
ATOM      4  N2  <0> d          -0.658  -4.920  -1.749  0.00  0.00     0.018 N 
ATOM      5  C10 <0> d          -1.496  -5.732  -2.621  0.00  0.00     0.441 C 
ATOM      6  N3  <0> d          -1.522  -7.119  -2.127  0.00  0.00     0.129 N 
ATOM      7  C11 <0> d          -1.963  -7.155  -0.721  0.00  0.00     0.414 C 
ATOM      8  N4  <0> d          -1.005  -6.378   0.084  0.00  0.00    -0.197 N 
ATOM      9  C18 <0> d           0.179  -3.929  -2.229  0.00  0.00     0.728 A 
ATOM     10  N6  <0> d           0.544  -2.894  -1.380  0.00  0.00    -0.150 N 
ATOM     11  C19 <0> d           1.387  -2.082  -2.070  0.00  0.00     0.083 A 
ATOM     12  C20 <0> d           2.072  -0.919  -1.736  0.00  0.00     0.033 A 
ATOM     13  C21 <0> d           2.861  -0.344  -2.719  0.00  0.00     0.002 A 
ATOM     14  C22 <0> d           2.971  -0.892  -3.985  0.00  0.00     0.002 A 
ATOM     15  C23 <0> d           2.301  -2.047  -4.344  0.00  0.00     0.034 A 
ATOM     16  C24 <0> d           1.500  -2.647  -3.367  0.00  0.00     0.103 A 
ATOM     17  N7  <0> d           0.735  -3.762  -3.391  0.00  0.00    -0.061 NA
ATOM     18  H13 <0> d          -0.634  -6.734   0.906  0.00  0.00     0.179 HD
ENDROOT
BRANCH   1  19
ATOM     19  C7  <0> d          -1.255  -2.023   0.003  0.00  0.00     0.021 A 
ATOM     20  C2  <0> d          -1.200  -0.637   0.010  0.00  0.00     0.078 A 
ATOM     21  C3  <0> d          -2.375   0.101   0.019  0.00  0.00     0.037 A 
ATOM     22  C4  <0> d          -3.596  -0.545   0.027  0.00  0.00     0.003 A 
ATOM     23  C5  <0> d          -3.648  -1.927   0.026  0.00  0.00     0.001 A 
ATOM     24  C6  <0> d          -2.479  -2.665   0.017  0.00  0.00     0.014 A 
BRANCH  20  25
ATOM     25  O1  <0> d           0.002  -0.004   0.002  0.00  0.00    -0.355 OA
ATOM     26  C1  <0> d          -0.017   1.425   0.010  0.00  0.00     0.210 C 
ENDBRANCH  20  25
ENDBRANCH   1  19
BRANCH   6  27
ATOM     27  C12 <0> d          -2.379  -7.963  -2.970  0.00  0.00     0.316 C 
BRANCH  27  28
ATOM     28  C13 <0> d          -2.191  -9.409  -2.589  0.00  0.00    -0.013 A 
ATOM     29  C17 <0> d          -2.982  -9.984  -1.614  0.00  0.00     0.125 A 
ATOM     30  N5  <0> d          -2.828 -11.251  -1.280  0.00  0.00    -0.273 NA
ATOM     31  C16 <0> d          -1.912 -12.011  -1.847  0.00  0.00     0.116 A 
ATOM     32  C15 <0> d          -1.079 -11.502  -2.827  0.00  0.00     0.020 A 
ATOM     33  C14 <0> d          -1.216 -10.177  -3.209  0.00  0.00     0.012 A 
ENDBRANCH  27  28
ENDBRANCH   6  27
TORSDOF 4
