REMARK  4 active torsions:
REMARK  status: ('A' for Active; 'I' for Inactive)
REMARK    1  A    between atoms: C5_5  and  C8_8 
REMARK       I    between atoms: C8_8  and  N1_10 
REMARK    2  A    between atoms: N1_10  and  C9_12 
REMARK    3  A    between atoms: C9_12  and  C21_31 
REMARK    4  A    between atoms: N3_20  and  C15_25 
ROOT
ATOM      1  C9  <0> d           5.746   4.684  -0.626  0.00  0.00     0.249 A 
ATOM      2  C10 <0> d           5.021   5.930  -0.174  0.00  0.00     0.101 A 
ATOM      3  C11 <0> d           3.936   6.648  -0.692  0.00  0.00     0.262 A 
ATOM      4  O2  <0> d           3.385   6.280  -1.715  0.00  0.00    -0.267 OA
ATOM      5  N2  <0> d           3.506   7.753  -0.046  0.00  0.00    -0.274 N 
ATOM      6  H2  <0> d           2.732   8.273  -0.408  0.00  0.00     0.173 HD
ATOM      7  C12 <0> d           4.116   8.156   1.083  0.00  0.00     0.335 A 
ATOM      8  O3  <0> d           3.716   9.153   1.651  0.00  0.00    -0.246 OA
ATOM      9  N3  <0> d           5.159   7.481   1.595  0.00  0.00    -0.248 N 
ATOM     10  C13 <0> d           5.635   6.345   0.970  0.00  0.00     0.134 A 
ATOM     11  N4  <0> d           6.671   5.507   1.304  0.00  0.00    -0.309 N 
ATOM     12  C14 <0> d           6.819   4.497   0.427  0.00  0.00     0.266 A 
ATOM     13  O4  <0> d           7.648   3.613   0.471  0.00  0.00    -0.270 OA
ATOM     14  H10 <0> d           7.234   5.629   2.084  0.00  0.00     0.170 HD
ENDROOT
BRANCH   1  15
ATOM     15  N1  <0> d           4.836   3.536  -0.644  0.00  0.00    -0.327 N 
ATOM     16  C8  <0> d           5.307   2.307  -0.933  0.00  0.00     0.253 C 
ATOM     17  O1  <0> d           6.487   2.151  -1.178  0.00  0.00    -0.268 OA
ATOM     18  H1  <0> d           3.894   3.661  -0.449  0.00  0.00     0.164 HD
BRANCH  16  19
ATOM     19  C5  <0> d           4.389   1.149  -0.952  0.00  0.00     0.032 A 
ATOM     20  C4  <0> d           3.033   1.324  -0.670  0.00  0.00     0.017 A 
ATOM     21  C3  <0> d           2.181   0.239  -0.690  0.00  0.00     0.007 A 
ATOM     22  C2  <0> d           2.668  -1.021  -0.988  0.00  0.00    -0.062 A 
ATOM     23  C1  <0> d           1.732  -2.202  -1.007  0.00  0.00     0.048 C 
ATOM     24  C7  <0> d           4.011  -1.202  -1.266  0.00  0.00     0.007 A 
ATOM     25  C6  <0> d           4.874  -0.126  -1.250  0.00  0.00     0.017 A 
ENDBRANCH  16  19
ENDBRANCH   1  15
BRANCH   1  26
ATOM     26  C21 <0> d           6.375   4.893  -2.005  0.00  0.00     0.426 C 
ATOM     27  F1  <0> d           5.368   5.143  -2.944  0.00  0.00    -0.167 F 
ATOM     28  F2  <0> d           7.250   5.983  -1.958  0.00  0.00    -0.167 F 
ATOM     29  F3  <0> d           7.081   3.743  -2.374  0.00  0.00    -0.167 F 
ENDBRANCH   1  26
BRANCH   9  30
ATOM     30  C15 <0> d           5.769   7.933   2.773  0.00  0.00     0.045 A 
ATOM     31  C20 <0> d           5.318   7.482   4.006  0.00  0.00     0.030 A 
ATOM     32  C19 <0> d           5.922   7.929   5.165  0.00  0.00     0.002 A 
ATOM     33  C18 <0> d           6.973   8.825   5.098  0.00  0.00     0.000 A 
ATOM     34  C17 <0> d           7.423   9.275   3.871  0.00  0.00     0.002 A 
ATOM     35  C16 <0> d           6.828   8.828   2.708  0.00  0.00     0.030 A 
ENDBRANCH   9  30
TORSDOF 4
