REMARK  5 active torsions:
REMARK  status: ('A' for Active; 'I' for Inactive)
REMARK    1  A    between atoms: O1_2  and  C2_3 
REMARK    2  A    between atoms: C2_3  and  C3_4 
REMARK    3  A    between atoms: C3_4  and  N1_5 
REMARK    4  A    between atoms: C5_7  and  N3_10 
REMARK    5  A    between atoms: N3_10  and  C7_11 
ROOT
ATOM      1  C7  <0> d          -6.426  -5.109  -0.678  0.00  0.00     0.131 C 
ATOM      2  C8  <0> d          -6.876  -6.527  -1.097  0.00  0.00     0.175 C 
ATOM      3  S1  <0> d          -7.792  -6.111  -2.639  0.00  0.00     0.178 S 
ATOM      4  O2  <0> d          -9.048  -6.774  -2.680  0.00  0.00    -0.223 OA
ATOM      5  O3  <0> d          -6.921  -6.099  -3.762  0.00  0.00    -0.223 OA
ATOM      6  C9  <0> d          -8.153  -4.405  -2.284  0.00  0.00     0.067 A 
ATOM      7  C10 <0> d          -7.351  -4.046  -1.217  0.00  0.00    -0.013 A 
ATOM      8  C11 <0> d          -7.474  -2.735  -0.744  0.00  0.00     0.011 A 
ATOM      9  C12 <0> d          -8.348  -1.847  -1.327  0.00  0.00     0.001 A 
ATOM     10  C13 <0> d          -9.130  -2.231  -2.400  0.00  0.00     0.002 A 
ATOM     11  C14 <0> d          -9.025  -3.520  -2.873  0.00  0.00     0.024 A 
ENDROOT
BRANCH   1  12
ATOM     12  N3  <0> d          -5.073  -4.868  -1.187  0.00  0.00    -0.378 N 
ATOM     13  H11 <0> d          -4.764  -5.332  -1.981  0.00  0.00     0.160 HD
BRANCH  12  14
ATOM     14  C5  <0> d          -4.223  -3.963  -0.524  0.00  0.00     0.065 A 
ATOM     15  C4  <0> d          -2.953  -3.647  -0.886  0.00  0.00     0.143 A 
ATOM     16  N1  <0> d          -2.484  -2.740   0.011  0.00  0.00    -0.277 N 
ATOM     17  N2  <0> d          -3.496  -2.502   0.950  0.00  0.00    -0.183 NA
ATOM     18  C6  <0> d          -4.537  -3.227   0.627  0.00  0.00     0.169 A 
BRANCH  16  19
ATOM     19  C3  <0> d          -1.154  -2.126   0.002  0.00  0.00     0.176 C 
BRANCH  19  20
ATOM     20  C2  <0> d          -1.295  -0.603   0.011  0.00  0.00     0.189 C 
BRANCH  20  21
ATOM     21  O1  <0> d           0.002  -0.004   0.002  0.00  0.00    -0.394 OA
ATOM     22  C1  <0> d          -0.017   1.425   0.010  0.00  0.00     0.201 C 
ENDBRANCH  20  21
ENDBRANCH  19  20
ENDBRANCH  16  19
ENDBRANCH  12  14
ENDBRANCH   1  12
TORSDOF 5
