REMARK  5 active torsions:
REMARK  status: ('A' for Active; 'I' for Inactive)
REMARK    1  A    between atoms: C6_6  and  N1_9 
REMARK    2  A    between atoms: N2_12  and  C13_15 
REMARK    3  A    between atoms: C14_16  and  N7_23 
REMARK    4  A    between atoms: C15_17  and  N5_21 
REMARK    5  A    between atoms: N5_21  and  N6_22 
ROOT
ATOM      1  N1  <0> d          -0.026  -2.792   2.397  0.00  0.00    -0.377 N 
ATOM      2  C9  <0> d          -1.269  -3.188   3.074  0.00  0.00     0.143 C 
ATOM      3  C10 <0> d          -1.243  -4.705   3.297  0.00  0.00     0.144 C 
ATOM      4  N2  <0> d           0.043  -5.069   3.908  0.00  0.00    -0.361 N 
ATOM      5  C11 <0> d           1.286  -4.673   3.230  0.00  0.00     0.144 C 
ATOM      6  C12 <0> d           1.260  -3.160   3.004  0.00  0.00     0.143 C 
ENDROOT
BRANCH   4   7
ATOM      7  C13 <0> d           0.084  -5.774   5.105  0.00  0.00     0.157 A 
ATOM      8  N4  <0> d           0.183  -5.130   6.265  0.00  0.00    -0.222 NA
ATOM      9  C16 <0> d           0.218  -5.790   7.405  0.00  0.00     0.237 A 
ATOM     10  N3  <0> d           0.168  -7.106   7.452  0.00  0.00    -0.221 NA
ATOM     11  C15 <0> d           0.074  -7.827   6.338  0.00  0.00     0.169 A 
ATOM     12  C14 <0> d           0.029  -7.169   5.108  0.00  0.00     0.119 A 
BRANCH  11  13
ATOM     13  N5  <0> d           0.021  -9.215   6.398  0.00  0.00    -0.306 N 
ATOM     14  H19 <0> d          -0.048  -9.733   5.581  0.00  0.00     0.182 HD
BRANCH  13  15
ATOM     15  N6  <0> d           0.066  -9.848   7.607  0.00  0.00    -0.248 NA
ATOM     16  H20 <0> d           0.019 -10.850   7.492  0.00  0.00     0.143 HD
ATOM     17  H21 <0> d           0.890  -9.582   8.124  0.00  0.00     0.143 HD
ENDBRANCH  13  15
ENDBRANCH  11  13
BRANCH  12  18
ATOM     18  N7  <0> d          -0.071  -7.890   3.907  0.00  0.00    -0.393 N 
ATOM     19  H22 <0> d          -0.011  -7.426   3.057  0.00  0.00     0.156 HD
ATOM     20  H23 <0> d          -0.199  -8.851   3.927  0.00  0.00     0.156 HD
ENDBRANCH  12  18
ENDBRANCH   4   7
BRANCH   1  21
ATOM     21  C6  <0> d          -0.067  -2.084   1.194  0.00  0.00     0.036 A 
ATOM     22  C5  <0> d          -0.096  -2.767  -0.016  0.00  0.00     0.030 A 
ATOM     23  C4  <0> d          -0.137  -2.063  -1.204  0.00  0.00     0.003 A 
ATOM     24  C3  <0> d          -0.149  -0.680  -1.190  0.00  0.00     0.007 A 
ATOM     25  C2  <0> d          -0.120   0.003   0.013  0.00  0.00    -0.054 A 
ATOM     26  C1  <0> d          -0.134   1.510   0.023  0.00  0.00     0.049 C 
ATOM     27  C7  <0> d          -0.074  -0.695   1.204  0.00  0.00    -0.029 A 
ATOM     28  C8  <0> d          -0.037   0.051   2.513  0.00  0.00     0.051 C 
ENDBRANCH   1  21
TORSDOF 5
