REMARK  6 active torsions:
REMARK  status: ('A' for Active; 'I' for Inactive)
REMARK    1  A    between atoms: C2_2  and  O1_3 
REMARK    2  A    between atoms: O1_3  and  C3_4 
REMARK    3  A    between atoms: C6_7  and  N1_10 
REMARK       I    between atoms: N1_10  and  C9_11 
REMARK    4  A    between atoms: C9_11  and  C10_13 
REMARK    5  A    between atoms: C13_16  and  N2_19 
REMARK    6  A    between atoms: C16_20  and  N3_30 
ROOT
ATOM      1  C10 <0> d          -1.321  -0.629   0.478  0.00  0.00     0.032 A 
ATOM      2  C11 <0> d          -2.546   0.010   0.266  0.00  0.00     0.019 A 
ATOM      3  C12 <0> d          -3.712  -0.721   0.276  0.00  0.00     0.031 A 
ATOM      4  C13 <0> d          -3.674  -2.092   0.508  0.00  0.00     0.044 A 
ATOM      5  C14 <0> d          -2.457  -2.730   0.725  0.00  0.00     0.031 A 
ATOM      6  C15 <0> d          -1.286  -2.006   0.711  0.00  0.00     0.019 A 
ENDROOT
BRANCH   4   7
ATOM      7  N2  <0> d          -4.860  -2.830   0.522  0.00  0.00    -0.264 N 
ATOM      8  C24 <0> d          -5.734  -2.651   1.534  0.00  0.00     0.265 A 
ATOM      9  C23 <0> d          -6.979  -3.425   1.538  0.00  0.00     0.043 A 
ATOM     10  O3  <0> d          -5.496  -1.857   2.426  0.00  0.00    -0.267 OA
ATOM     11  C18 <0> d          -7.210  -4.341   0.484  0.00  0.00    -0.017 A 
ATOM     12  C22 <0> d          -7.928  -3.286   2.552  0.00  0.00     0.018 A 
ATOM     13  C17 <0> d          -6.234  -4.469  -0.534  0.00  0.00     0.061 A 
ATOM     14  C19 <0> d          -8.389  -5.094   0.473  0.00  0.00     0.012 A 
ATOM     15  C16 <0> d          -5.106  -3.723  -0.489  0.00  0.00     0.109 A 
ATOM     16  C20 <0> d          -9.299  -4.934   1.478  0.00  0.00     0.001 A 
ATOM     17  C21 <0> d          -9.071  -4.035   2.513  0.00  0.00     0.001 A 
BRANCH  15  18
ATOM     18  N3  <0> d          -4.169  -3.866  -1.495  0.00  0.00    -0.385 N 
ATOM     19  H20 <0> d          -3.401  -3.274  -1.531  0.00  0.00     0.157 HD
ATOM     20  H21 <0> d          -4.280  -4.558  -2.166  0.00  0.00     0.157 HD
ENDBRANCH  15  18
ENDBRANCH   4   7
BRANCH   1  21
ATOM     21  C9  <0> d          -0.068   0.151   0.463  0.00  0.00     0.256 C 
ATOM     22  N1  <0> d          -0.103   1.479   0.238  0.00  0.00    -0.323 N 
ATOM     23  H10 <0> d          -0.942   1.911   0.013  0.00  0.00     0.169 HD
ATOM     24  O2  <0> d           0.997  -0.405   0.653  0.00  0.00    -0.267 OA
BRANCH  22  25
ATOM     25  C6  <0> d           1.073   2.236   0.323  0.00  0.00     0.035 A 
ATOM     26  C5  <0> d           2.281   1.689  -0.087  0.00  0.00     0.032 A 
ATOM     27  C4  <0> d           3.440   2.435  -0.003  0.00  0.00     0.039 A 
ATOM     28  C3  <0> d           3.397   3.731   0.492  0.00  0.00     0.068 A 
ATOM     29  C8  <0> d           2.190   4.277   0.902  0.00  0.00     0.039 A 
ATOM     30  C7  <0> d           1.029   3.534   0.813  0.00  0.00     0.032 A 
BRANCH  28  31
ATOM     31  O1  <0> d           4.538   4.465   0.575  0.00  0.00    -0.352 OA
BRANCH  31  32
ATOM     32  C2  <0> d           4.420   5.791   1.093  0.00  0.00     0.171 C 
ATOM     33  C1  <0> d           5.798   6.457   1.110  0.00  0.00     0.034 C 
ENDBRANCH  31  32
ENDBRANCH  28  31
ENDBRANCH  22  25
ENDBRANCH   1  21
TORSDOF 6
