REMARK  4 active torsions:
REMARK  status: ('A' for Active; 'I' for Inactive)
REMARK       I    between atoms: C2_2  and  N1_4 
REMARK    1  A    between atoms: N2_7  and  S1_10 
REMARK    2  A    between atoms: S1_10  and  C7_13 
REMARK    3  A    between atoms: C7_13  and  C8_14 
REMARK    4  A    between atoms: C8_14  and  C9_15 
ROOT
ATOM      1  S1  <0> d           1.188  -2.698  -4.752  0.00  0.00     0.228 S 
ATOM      2  O2  <0> d           0.600  -3.956  -4.451  0.00  0.00    -0.206 OA
ATOM      3  O3  <0> d           0.570  -1.811  -5.674  0.00  0.00    -0.206 OA
ENDROOT
BRANCH   1   4
ATOM      4  N2  <0> d           1.191  -1.878  -3.313  0.00  0.00    -0.308 N 
ATOM      5  C4  <0> d           1.177  -0.408  -3.290  0.00  0.00     0.155 C 
ATOM      6  C3  <0> d          -0.016   0.057  -2.445  0.00  0.00     0.146 C 
ATOM      7  N1  <0> d           0.000  -0.672  -1.169  0.00  0.00    -0.349 N 
ATOM      8  C2  <0> d           0.002  -0.004   0.002  0.00  0.00     0.215 C 
ATOM      9  C6  <0> d           0.020  -2.141  -1.192  0.00  0.00     0.146 C 
ATOM     10  C1  <0> d          -0.018   1.503   0.010  0.00  0.00     0.117 C 
ATOM     11  O1  <0> d           0.020  -0.616   1.049  0.00  0.00    -0.274 OA
ATOM     12  C5  <0> d           1.207  -2.606  -2.037  0.00  0.00     0.155 C 
ENDBRANCH   1   4
BRANCH   1  13
ATOM     13  C7  <0> d           2.941  -2.912  -5.169  0.00  0.00     0.163 C 
BRANCH  13  14
ATOM     14  C8  <0> d           3.061  -3.666  -6.495  0.00  0.00     0.021 C 
BRANCH  14  15
ATOM     15  C9  <0> d           4.539  -3.846  -6.847  0.00  0.00    -0.010 C 
ATOM     16  C13 <0> d           4.663  -4.708  -8.107  0.00  0.00     0.032 C 
ATOM     17  C12 <0> d           6.138  -4.818  -8.499  0.00  0.00     0.232 C 
ATOM     18  N3  <0> d           6.679  -3.480  -8.764  0.00  0.00    -0.075 N 
ATOM     19  C11 <0> d           6.629  -2.671  -7.541  0.00  0.00     0.232 C 
ATOM     20  H21 <0> d           6.131  -3.033  -9.484  0.00  0.00     0.277 HD
ATOM     21  H26 <0> d           7.636  -3.560  -9.074  0.00  0.00     0.277 HD
ATOM     22  C10 <0> d           5.173  -2.478  -7.112  0.00  0.00     0.032 C 
ENDBRANCH  14  15
ENDBRANCH  13  14
ENDBRANCH   1  13
TORSDOF 4
