REMARK  5 active torsions:
REMARK  status: ('A' for Active; 'I' for Inactive)
REMARK    1  A    between atoms: C4_5  and  C7_9 
REMARK    2  A    between atoms: C7_9  and  N6_31 
REMARK    3  A    between atoms: C11_13  and  C13_15 
REMARK       I    between atoms: C13_15  and  N3_17 
REMARK    4  A    between atoms: N3_17  and  C14_18 
REMARK    5  A    between atoms: C18_22  and  N4_24 
ROOT
ATOM      1  C8  <0> d          -1.025   3.307  -0.960  0.00  0.00     0.235 C 
ATOM      2  C9  <0> d          -0.781   1.805  -1.122  0.00  0.00     0.029 C 
ATOM      3  C10 <0> d          -0.039   1.278   0.108  0.00  0.00     0.017 C 
ATOM      4  C11 <0> d          -0.862   1.584   1.363  0.00  0.00     0.104 C 
ATOM      5  C12 <0> d          -1.104   3.092   1.452  0.00  0.00     0.249 C 
ATOM      6  N6  <0> d          -1.844   3.533   0.251  0.00  0.00    -0.065 N 
ATOM      7  H29 <0> d          -2.710   2.986   0.173  0.00  0.00     0.280 HD
ENDROOT
BRANCH   4   8
ATOM      8  C13 <0> d          -0.109   1.121   2.584  0.00  0.00     0.228 C 
ATOM      9  O1  <0> d           0.201   1.918   3.444  0.00  0.00    -0.273 OA
ATOM     10  N3  <0> d           0.220  -0.179   2.720  0.00  0.00    -0.327 N 
ATOM     11  H18 <0> d          -0.093  -0.829   2.071  0.00  0.00     0.169 HD
BRANCH  10  12
ATOM     12  C14 <0> d           1.013  -0.592   3.796  0.00  0.00     0.036 A 
ATOM     13  C19 <0> d           1.997   0.249   4.295  0.00  0.00     0.061 A 
ATOM     14  C18 <0> d           2.778  -0.161   5.367  0.00  0.00     0.060 A 
ATOM     15  C17 <0> d           2.579  -1.415   5.929  0.00  0.00     0.032 A 
ATOM     16  C16 <0> d           1.602  -2.252   5.426  0.00  0.00     0.005 A 
ATOM     17  C15 <0> d           0.820  -1.845   4.363  0.00  0.00     0.029 A 
BRANCH  14  18
ATOM     18  N4  <0> d           3.770   0.688   5.878  0.00  0.00    -0.245 N 
ATOM     19  N5  <0> d           4.016   2.006   5.471  0.00  0.00    -0.180 NA
ATOM     20  C22 <0> d           5.015   2.471   6.177  0.00  0.00     0.140 A 
ATOM     21  C21 <0> d           5.442   1.464   7.049  0.00  0.00     0.040 A 
ATOM     22  C20 <0> d           4.661   0.378   6.846  0.00  0.00     0.120 A 
ENDBRANCH  14  18
ENDBRANCH  10  12
ENDBRANCH   4   8
BRANCH   6  23
ATOM     23  C7  <0> d          -2.189   4.964   0.367  0.00  0.00     0.296 C 
BRANCH  23  24
ATOM     24  C4  <0> d          -0.948   5.793   0.579  0.00  0.00     0.085 A 
ATOM     25  N1  <0> d          -0.291   6.277  -0.460  0.00  0.00    -0.253 NA
ATOM     26  C3  <0> d           0.797   7.004  -0.273  0.00  0.00     0.055 A 
ATOM     27  C2  <0> d           1.248   7.258   1.010  0.00  0.00     0.055 A 
ATOM     28  C23 <0> d           1.546   7.556  -1.458  0.00  0.00     0.072 C 
ATOM     29  C1  <0> d           2.488   8.087   1.223  0.00  0.00     0.072 C 
ATOM     30  N2  <0> d           0.590   6.774   2.049  0.00  0.00    -0.255 NA
ATOM     31  C5  <0> d          -0.500   6.051   1.863  0.00  0.00     0.057 A 
ATOM     32  C6  <0> d          -1.254   5.504   3.048  0.00  0.00     0.072 C 
ENDBRANCH  23  24
ENDBRANCH   6  23
TORSDOF 5
