REMARK  7 active torsions:
REMARK  status: ('A' for Active; 'I' for Inactive)
REMARK    1  A    between atoms: C2_2  and  N1_3 
REMARK    2  A    between atoms: N1_3  and  C3_4 
REMARK    3  A    between atoms: N1_3  and  C5_6 
REMARK    4  A    between atoms: C5_6  and  C6_7 
REMARK    5  A    between atoms: C9_10  and  C10_12 
REMARK       I    between atoms: C10_12  and  N2_14 
REMARK    6  A    between atoms: N2_14  and  N3_15 
REMARK       I    between atoms: N3_15  and  C11_16 
REMARK    7  A    between atoms: C11_16  and  C12_18 
ROOT
ATOM      1  N3  <0> d          -5.386  -3.430   1.864  0.00  0.00    -0.263 N 
ATOM      2  C11 <0> d          -5.266  -3.594   3.196  0.00  0.00     0.270 C 
ATOM      3  O3  <0> d          -4.181  -3.464   3.730  0.00  0.00    -0.266 OA
ATOM      4  H16 <0> d          -6.252  -3.534   1.438  0.00  0.00     0.190 HD
ENDROOT
BRANCH   1   5
ATOM      5  N2  <0> d          -4.260  -3.112   1.093  0.00  0.00    -0.261 N 
ATOM      6  C10 <0> d          -4.380  -2.949  -0.239  0.00  0.00     0.293 C 
ATOM      7  O2  <0> d          -5.465  -3.078  -0.773  0.00  0.00    -0.264 OA
ATOM      8  H15 <0> d          -3.394  -3.009   1.519  0.00  0.00     0.190 HD
BRANCH   6   9
ATOM      9  C9  <0> d          -3.201  -2.615  -1.046  0.00  0.00     0.144 A 
ATOM     10  C8  <0> d          -3.182  -2.423  -2.397  0.00  0.00     0.045 A 
ATOM     11  C7  <0> d          -1.855  -2.125  -2.744  0.00  0.00     0.037 A 
ATOM     12  C6  <0> d          -1.131  -2.148  -1.603  0.00  0.00     0.079 A 
ATOM     13  O1  <0> d          -1.945  -2.448  -0.583  0.00  0.00    -0.308 OA
BRANCH  12  14
ATOM     14  C5  <0> d           0.349  -1.885  -1.497  0.00  0.00     0.299 C 
BRANCH  14  15
ATOM     15  N1  <0> d           0.576  -0.451  -1.269  0.00  0.00    -0.066 N 
ATOM     16  H26 <0> d           0.124   0.081  -1.997  0.00  0.00     0.280 HD
BRANCH  15  17
ATOM     17  C2  <0> d           0.019  -0.069   0.036  0.00  0.00     0.231 C 
ATOM     18  C1  <0> d           0.123   1.447   0.210  0.00  0.00     0.034 C 
ENDBRANCH  15  17
BRANCH  15  19
ATOM     19  C3  <0> d           2.019  -0.176  -1.285  0.00  0.00     0.231 C 
ATOM     20  C4  <0> d           2.573  -0.440  -2.687  0.00  0.00     0.034 C 
ENDBRANCH  15  19
ENDBRANCH  14  15
ENDBRANCH  12  14
ENDBRANCH   6   9
ENDBRANCH   1   5
BRANCH   2  21
ATOM     21  C12 <0> d          -6.452  -3.929   4.008  0.00  0.00     0.035 A 
ATOM     22  C17 <0> d          -6.327  -4.098   5.390  0.00  0.00     0.049 A 
ATOM     23  C16 <0> d          -7.441  -4.407   6.146  0.00  0.00     0.062 A 
ATOM     24  C15 <0> d          -8.684  -4.563   5.522  0.00  0.00     0.057 A 
ATOM     25  N4  <0> d          -7.341  -4.566   7.534  0.00  0.00    -0.324 N 
ATOM     26  C14 <0> d          -8.806  -4.399   4.150  0.00  0.00     0.033 A 
ATOM     27  N5  <0> d          -9.791  -4.888   6.306  0.00  0.00    -0.375 N 
ATOM     28  C13 <0> d          -7.698  -4.083   3.393  0.00  0.00     0.019 A 
ATOM     29  C19 <0> d          -9.563  -5.671   7.530  0.00  0.00     0.225 C 
ATOM     30  C20 <0> d         -11.140  -4.463   5.923  0.00  0.00     0.150 C 
ATOM     31  C18 <0> d          -8.339  -5.140   8.232  0.00  0.00     0.240 C 
ATOM     32  O4  <0> d          -8.252  -5.231   9.438  0.00  0.00    -0.271 OA
ATOM     33  H20 <0> d          -6.545  -4.260   7.996  0.00  0.00     0.169 HD
ENDBRANCH   2  21
TORSDOF 7
