REMARK  4 active torsions:
REMARK  status: ('A' for Active; 'I' for Inactive)
REMARK    1  A    between atoms: C2_2  and  S1_4 
REMARK    2  A    between atoms: S1_4  and  C4_7 
REMARK    3  A    between atoms: N2_19  and  O4_22 
REMARK    4  A    between atoms: C19_27  and  S2_29 
ROOT
ATOM      1  C4  <0> d          -1.536  -2.381   0.152  0.00  0.00     0.072 A 
ATOM      2  C5  <0> d          -1.994  -3.029   1.259  0.00  0.00     0.024 A 
ATOM      3  C6  <0> d          -1.877  -4.409   1.395  0.00  0.00     0.004 A 
ATOM      4  C7  <0> d          -1.303  -5.179   0.431  0.00  0.00     0.032 A 
ATOM      5  C8  <0> d          -0.810  -4.573  -0.739  0.00  0.00     0.069 A 
ATOM      6  C9  <0> d          -0.937  -3.120  -0.881  0.00  0.00     0.015 A 
ATOM      7  C10 <0> d          -0.452  -2.506  -2.047  0.00  0.00     0.035 A 
ATOM      8  C11 <0> d           0.120  -3.318  -3.014  0.00  0.00     0.066 A 
ATOM      9  C12 <0> d           0.203  -4.722  -2.814  0.00  0.00     0.102 A 
ATOM     10  N1  <0> d          -0.242  -5.290  -1.709  0.00  0.00    -0.245 NA
ATOM     11  C13 <0> d           0.817  -5.535  -3.878  0.00  0.00     0.092 A 
ATOM     12  C14 <0> d           1.293  -4.927  -5.022  0.00  0.00     0.141 A 
ATOM     13  N2  <0> d           1.199  -3.550  -5.192  0.00  0.00    -0.179 N 
ATOM     14  C15 <0> d           0.650  -2.748  -4.263  0.00  0.00     0.284 A 
ATOM     15  O3  <0> d           0.590  -1.547  -4.456  0.00  0.00    -0.265 OA
ATOM     16  C17 <0> d           1.889  -5.708  -6.038  0.00  0.00     0.183 C 
ATOM     17  O5  <0> d           2.264  -5.177  -7.064  0.00  0.00    -0.291 OA
ATOM     18  C18 <0> d           2.066  -7.194  -5.861  0.00  0.00     0.121 C 
ATOM     19  C19 <0> d           0.955  -7.732  -4.953  0.00  0.00     0.151 C 
ATOM     20  N3  <0> d           0.914  -6.906  -3.736  0.00  0.00    -0.372 N 
ATOM     21  H18 <0> d           0.953  -7.314  -2.857  0.00  0.00     0.161 HD
ENDROOT
BRANCH   1  22
ATOM     22  S1  <0> d          -1.700  -0.632   0.015  0.00  0.00     0.179 S 
ATOM     23  O1  <0> d          -2.359  -0.234   1.209  0.00  0.00    -0.222 OA
ATOM     24  O2  <0> d          -2.308  -0.423  -1.252  0.00  0.00    -0.222 OA
BRANCH  22  25
ATOM     25  C2  <0> d           0.002  -0.004   0.002  0.00  0.00     0.105 C 
ATOM     26  C1  <0> d          -0.019   1.526   0.010  0.00  0.00     0.026 C 
ATOM     27  C3  <0> d           0.742  -0.511   1.242  0.00  0.00     0.026 C 
ENDBRANCH  22  25
ENDBRANCH   1  22
BRANCH  13  28
ATOM     28  O4  <0> d           1.700  -2.972  -6.384  0.00  0.00    -0.275 OA
ATOM     29  C16 <0> d           0.737  -2.884  -7.436  0.00  0.00     0.238 C 
ENDBRANCH  13  28
BRANCH  19  30
ATOM     30  S2  <0> d          -0.639  -7.635  -5.814  0.00  0.00    -0.148 SA
ATOM     31  C20 <0> d          -1.413  -9.243  -5.487  0.00  0.00     0.092 C 
ENDBRANCH  19  30
TORSDOF 4
