REMARK  5 active torsions:
REMARK  status: ('A' for Active; 'I' for Inactive)
REMARK    1  A    between atoms: C2_2  and  C4_4 
REMARK    2  A    between atoms: C4_4  and  C5_5 
REMARK    3  A    between atoms: C4_4  and  N1_8 
REMARK       I    between atoms: N1_8  and  C6_9 
REMARK    4  A    between atoms: C6_9  and  C7_11 
REMARK    5  A    between atoms: C7_11  and  N2_12 
ROOT
ATOM      1  N2  <0> d          -0.161   1.510   0.001  0.00  0.00    -0.046 N 
ATOM      2  C8  <0> d          -1.350   2.084  -0.588  0.00  0.00     0.128 C 
ATOM      3  C9  <0> d          -1.344   3.615  -0.571  0.00  0.00     0.116 C 
ATOM      4  C10 <0> d           0.018   4.097  -1.018  0.00  0.00     0.131 C 
ATOM      5  O4  <0> d           0.147   4.872  -1.932  0.00  0.00    -0.298 OA
ATOM      6  C11 <0> d           1.211   3.559  -0.259  0.00  0.00     0.116 C 
ATOM      7  C12 <0> d           1.157   2.029  -0.294  0.00  0.00     0.128 C 
ATOM      8  C13 <0> d           2.137   1.505   0.779  0.00  0.00     0.046 C 
ATOM      9  C14 <0> d           1.664   1.537  -1.654  0.00  0.00     0.046 C 
ATOM     10  C15 <0> d          -1.556   1.597  -2.027  0.00  0.00     0.046 C 
ATOM     11  C16 <0> d          -2.572   1.616   0.233  0.00  0.00     0.046 C 
ATOM     12  H28 <0> d          -0.270   1.937   1.008  0.00  0.00     0.282 HD
ENDROOT
BRANCH   1  13
ATOM     13  C7  <0> d          -0.193   0.041   0.000  0.00  0.00     0.339 C 
BRANCH  13  14
ATOM     14  C6  <0> d           0.261  -0.472   1.343  0.00  0.00     0.244 C 
ATOM     15  N1  <0> d           0.444  -1.794   1.532  0.00  0.00    -0.345 N 
ATOM     16  H9  <0> d           0.262  -2.498   0.707  0.00  0.00     0.163 HD
ATOM     17  O3  <0> d           0.461   0.305   2.252  0.00  0.00    -0.272 OA
BRANCH  15  18
ATOM     18  C4  <0> d           0.885  -2.292   2.837  0.00  0.00     0.189 C 
BRANCH  18  19
ATOM     19  C2  <0> d           0.434  -3.745   3.007  0.00  0.00     0.010 C 
ATOM     20  C1  <0> d           0.895  -4.266   4.370  0.00  0.00     0.012 C 
ATOM     21  C3  <0> d          -1.091  -3.819   2.922  0.00  0.00     0.012 C 
ENDBRANCH  18  19
BRANCH  18  22
ATOM     22  C5  <0> d           2.388  -2.219   2.921  0.00  0.00     0.197 C 
ATOM     23  O1  <0> d           3.025  -1.794   1.987  0.00  0.00    -0.646 OA
ATOM     24  O2  <0> d           3.018  -2.626   4.034  0.00  0.00    -0.646 OA
ENDBRANCH  18  22
ENDBRANCH  15  18
ENDBRANCH  13  14
ENDBRANCH   1  13
TORSDOF 5
