REMARK  5 active torsions:
REMARK  status: ('A' for Active; 'I' for Inactive)
REMARK    1  A    between atoms: C4_5  and  C5_6 
REMARK    2  A    between atoms: C5_6  and  C6_7 
REMARK    3  A    between atoms: C6_7  and  N1_8 
REMARK       I    between atoms: N1_8  and  C7_9 
REMARK       I    between atoms: C7_9  and  N2_11 
REMARK    4  A    between atoms: N2_11  and  C8_12 
REMARK    5  A    between atoms: C8_12  and  C9_13 
ROOT
ATOM      1  N1  <0> d          -2.688  -2.225  -1.425  0.00  0.00    -0.343 N 
ATOM      2  C7  <0> d          -3.217  -2.650  -2.589  0.00  0.00     0.316 C 
ATOM      3  O1  <0> d          -2.761  -2.256  -3.645  0.00  0.00    -0.247 OA
ATOM      4  N2  <0> d          -4.253  -3.513  -2.583  0.00  0.00    -0.338 N 
ATOM      5  H7  <0> d          -3.052  -2.540  -0.583  0.00  0.00     0.164 HD
ATOM      6  H8  <0> d          -4.617  -3.828  -1.741  0.00  0.00     0.164 HD
ENDROOT
BRANCH   1   7
ATOM      7  C6  <0> d          -1.562  -1.288  -1.432  0.00  0.00     0.129 C 
BRANCH   7   8
ATOM      8  C5  <0> d          -1.156  -0.969   0.009  0.00  0.00     0.066 C 
BRANCH   8   9
ATOM      9  C4  <0> d           0.002  -0.004   0.002  0.00  0.00    -0.015 A 
ATOM     10  C1  <0> d          -0.016   1.351   0.009  0.00  0.00     0.016 A 
ATOM     11  C2  <0> d           1.183   2.038   0.002  0.00  0.00     0.027 A 
ATOM     12  C3  <0> d           2.343   1.335  -0.013  0.00  0.00     0.051 A 
ATOM     13  S1  <0> d           1.753  -0.350  -0.017  0.00  0.00    -0.087 SA
ATOM     14 Br2  <0> d           4.123   1.974  -0.027  0.00  0.00    -0.043 Br
ENDBRANCH   8   9
ENDBRANCH   7   8
ENDBRANCH   1   7
BRANCH   4  15
ATOM     15  C8  <0> d          -4.828  -3.975  -3.849  0.00  0.00     0.170 C 
BRANCH  15  16
ATOM     16  C9  <0> d          -5.964  -4.925  -3.567  0.00  0.00     0.002 A 
ATOM     17  S2  <0> d          -5.923  -6.699  -3.372  0.00  0.00    -0.086 SA
ATOM     18  C12 <0> d          -7.664  -6.960  -3.073  0.00  0.00     0.051 A 
ATOM     19  C11 <0> d          -8.153  -5.697  -3.148  0.00  0.00     0.028 A 
ATOM     20 Br1  <0> d          -8.586  -8.577  -2.744  0.00  0.00    -0.043 Br
ATOM     21  C10 <0> d          -7.281  -4.655  -3.402  0.00  0.00     0.018 A 
ENDBRANCH  15  16
ENDBRANCH   4  15
TORSDOF 5
