REMARK  7 active torsions:
REMARK  status: ('A' for Active; 'I' for Inactive)
REMARK    1  A    between atoms: C9_11  and  N2_12 
REMARK    2  A    between atoms: N2_12  and  C10_13 
REMARK    3  A    between atoms: C10_13  and  C11_14 
REMARK    4  A    between atoms: C11_14  and  N3_15 
REMARK    5  A    between atoms: N3_15  and  C13_17 
REMARK    6  A    between atoms: C13_17  and  C14_18 
REMARK    7  A    between atoms: C14_18  and  O2_19 
ROOT
ATOM      1  C1  <0> d          -0.018   1.503   0.010  0.00  0.00     0.050 C 
ATOM      2  C2  <0> d           0.002  -0.004   0.002  0.00  0.00    -0.033 A 
ATOM      3  C3  <0> d           0.006  -0.686  -1.198  0.00  0.00     0.028 A 
ATOM      4  C4  <0> d           0.024  -2.069  -1.216  0.00  0.00     0.012 A 
ATOM      5  C5  <0> d           0.039  -2.773  -0.023  0.00  0.00     0.031 A 
ATOM      6  C6  <0> d           0.036  -2.095   1.175  0.00  0.00     0.013 A 
ATOM      7  C7  <0> d           0.023  -0.706   1.206  0.00  0.00     0.049 A 
ATOM      8  N1  <0> d           0.029  -0.253   2.526  0.00  0.00    -0.324 N 
ATOM      9  C8  <0> d           0.051  -1.264   3.410  0.00  0.00     0.260 A 
ATOM     10  O1  <0> d           0.061  -1.163   4.619  0.00  0.00    -0.270 OA
ATOM     11  C9  <0> d           0.049  -2.552   2.615  0.00  0.00     0.347 A 
ATOM     12 Br1  <0> d           0.028  -2.996  -2.864  0.00  0.00    -0.051 Br
ATOM     13  H7  <0> d           0.019   0.685   2.776  0.00  0.00     0.169 HD
ENDROOT
BRANCH  11  14
ATOM     14  N2  <0> d          -1.146  -3.352   2.912  0.00  0.00     0.103 N 
ATOM     15  H22 <0> d          -1.942  -2.760   3.096  0.00  0.00     0.317 HD
BRANCH  14  16
ATOM     16  C10 <0> d          -0.901  -4.268   4.034  0.00  0.00     0.301 C 
BRANCH  16  17
ATOM     17  C11 <0> d          -2.166  -5.083   4.312  0.00  0.00     0.301 C 
BRANCH  17  18
ATOM     18  N3  <0> d          -1.921  -5.999   5.434  0.00  0.00     0.087 N 
ATOM     19  C12 <0> d          -0.923  -7.015   5.076  0.00  0.00     0.310 C 
BRANCH  18  20
ATOM     20  C13 <0> d          -3.171  -6.625   5.885  0.00  0.00     0.298 C 
BRANCH  20  21
ATOM     21  C14 <0> d          -2.924  -7.371   7.198  0.00  0.00     0.197 C 
BRANCH  21  22
ATOM     22  O2  <0> d          -2.580  -6.434   8.221  0.00  0.00    -0.394 OA
ATOM     23  C15 <0> d          -2.327  -7.030   9.494  0.00  0.00     0.201 C 
ENDBRANCH  21  22
ENDBRANCH  20  21
ENDBRANCH  18  20
ENDBRANCH  17  18
ENDBRANCH  16  17
ENDBRANCH  14  16
ENDBRANCH  11  14
TORSDOF 7
