REMARK  4 active torsions:
REMARK  status: ('A' for Active; 'I' for Inactive)
REMARK    1  A    between atoms: C2_2  and  C12_15 
REMARK    2  A    between atoms: C4_4  and  N1_7 
REMARK    3  A    between atoms: C10_12  and  C11_13 
REMARK    4  A    between atoms: C10_12  and  N3_21 
ROOT
ATOM      1  C1  <0> d          -0.484   6.417  -3.395  0.00  0.00     0.044 A 
ATOM      2  C2  <0> d          -1.083   5.695  -4.419  0.00  0.00     0.065 A 
ATOM      3  C3  <0> d          -1.325   4.347  -4.245  0.00  0.00     0.105 A 
ATOM      4  C4  <0> d          -0.421   4.391  -2.122  0.00  0.00     0.104 A 
ATOM      5  C5  <0> d          -0.153   5.754  -2.226  0.00  0.00     0.073 A 
ATOM      6 Cl1  <0> d           0.591   6.608  -0.911  0.00  0.00    -0.081 Cl
ATOM      7  N2  <0> d          -1.008   3.662  -3.114  0.00  0.00    -0.354 N 
ATOM      8  H13 <0> d          -1.200   2.658  -3.013  0.00  0.00     0.166 HD
ENDROOT
BRANCH   4   9
ATOM      9  N1  <0> d          -0.089   3.711  -0.956  0.00  0.00    -0.265 NA
ATOM     10  C9  <0> d          -1.229   3.667  -0.029  0.00  0.00     0.125 C 
ATOM     11  C8  <0> d          -0.800   2.981   1.270  0.00  0.00     0.250 C 
ATOM     12  N3  <0> d          -0.337   1.613   0.958  0.00  0.00    -0.059 N 
ATOM     13  C7  <0> d           0.823   1.671   0.044  0.00  0.00     0.250 C 
ATOM     14  H14 <0> d          -1.098   1.099   0.498  0.00  0.00     0.280 HD
ATOM     15  C6  <0> d           0.395   2.356  -1.256  0.00  0.00     0.125 C 
BRANCH  12  16
ATOM     16  C10 <0> d           0.035   0.908   2.203  0.00  0.00     0.347 C 
BRANCH  16  17
ATOM     17  C11 <0> d           0.310  -0.538   1.880  0.00  0.00     0.199 C 
ATOM     18  O1  <0> d           0.115  -0.956   0.763  0.00  0.00    -0.647 OA
ATOM     19  O2  <0> d           0.771  -1.363   2.833  0.00  0.00    -0.647 OA
ENDBRANCH  16  17
ENDBRANCH  12  16
ENDBRANCH   4   9
BRANCH   2  20
ATOM     20  C12 <0> d          -1.466   6.377  -5.708  0.00  0.00     0.418 C 
ATOM     21  F1  <0> d          -2.047   5.444  -6.574  0.00  0.00    -0.166 F 
ATOM     22  F2  <0> d          -2.382   7.399  -5.440  0.00  0.00    -0.166 F 
ATOM     23  F3  <0> d          -0.323   6.919  -6.306  0.00  0.00    -0.166 F 
ENDBRANCH   2  20
TORSDOF 4
