REMARK  2 active torsions:
REMARK  status: ('A' for Active; 'I' for Inactive)
REMARK    1  A    between atoms: C5_5  and  C10_11 
REMARK       I    between atoms: C10_11  and  N1_13 
REMARK    2  A    between atoms: N1_13  and  C11_14 
ROOT
ATOM      1  C10 <0> d          -0.281  -4.308   1.204  0.00  0.00     0.228 C 
ATOM      2  O1  <0> d          -1.475  -4.488   1.313  0.00  0.00    -0.273 OA
ATOM      3  N1  <0> d           0.583  -5.077   1.895  0.00  0.00    -0.356 N 
ATOM      4  H15 <0> d           1.538  -4.933   1.808  0.00  0.00     0.162 HD
ENDROOT
BRANCH   3   5
ATOM      5  C11 <0> d           0.078  -6.135   2.780  0.00  0.00     0.089 C 
ATOM      6  C15 <0> d           1.149  -7.212   2.940  0.00  0.00     0.063 C 
ATOM      7  C14 <0> d           0.685  -8.298   3.905  0.00  0.00     0.121 C 
ATOM      8  N2  <0> d           0.175  -7.770   5.160  0.00  0.00    -0.059 N 
ATOM      9  C16 <0> d          -0.336  -9.207   3.216  0.00  0.00     0.046 C 
ATOM     10  C17 <0> d           1.917  -9.174   4.237  0.00  0.00     0.046 C 
ATOM     11  C13 <0> d          -0.729  -6.631   5.096  0.00  0.00     0.121 C 
ATOM     12  H19 <0> d           0.971  -7.515   5.750  0.00  0.00     0.279 HD
ATOM     13  H34 <0> d          -0.298  -8.527   5.660  0.00  0.00     0.279 HD
ATOM     14  C12 <0> d          -0.213  -5.539   4.159  0.00  0.00     0.063 C 
ATOM     15  C18 <0> d          -2.146  -7.042   4.700  0.00  0.00     0.046 C 
ATOM     16  C19 <0> d          -0.808  -6.018   6.513  0.00  0.00     0.046 C 
ENDBRANCH   3   5
BRANCH   1  17
ATOM     17  C5  <0> d           0.237  -3.223   0.295  0.00  0.00     0.062 C 
ATOM     18  C4  <0> d           1.410  -3.578  -0.681  0.00  0.00     0.022 C 
ATOM     19  C3  <0> d           1.605  -2.184  -1.352  0.00  0.00     0.012 C 
ATOM     20  C2  <0> d           0.495  -1.383  -0.589  0.00  0.00    -0.021 C 
ATOM     21  C1  <0> d           0.333   0.104  -0.912  0.00  0.00     0.017 C 
ATOM     22  C6  <0> d           0.678  -1.855   0.876  0.00  0.00     0.085 C 
ATOM     23  C7  <0> d          -0.766  -2.292  -0.476  0.00  0.00    -0.022 C 
ATOM     24 Br1  <0> d           2.541  -1.831   1.505  0.00  0.00    -0.089 Br
ATOM     25  C8  <0> d          -1.254  -2.864  -1.809  0.00  0.00     0.017 C 
ATOM     26  C9  <0> d          -1.890  -1.707   0.382  0.00  0.00     0.017 C 
ENDBRANCH   1  17
TORSDOF 2
