REMARK  7 active torsions:
REMARK  status: ('A' for Active; 'I' for Inactive)
REMARK    1  A    between atoms: C4_4  and  O1_5 
REMARK    2  A    between atoms: C9_11  and  N1_13 
REMARK    3  A    between atoms: N1_13  and  C11_14 
REMARK    4  A    between atoms: N2_16  and  N3_17 
REMARK       I    between atoms: N3_17  and  C12_18 
REMARK    5  A    between atoms: C12_18  and  C13_20 
REMARK    6  A    between atoms: C13_20  and  O4_22 
REMARK    7  A    between atoms: O4_22  and  C15_23 
ROOT
ATOM      1  C11 <0> d           2.545   1.311   3.743  0.00  0.00     0.191 C 
ATOM      2  S1  <0> d           3.340   0.578   5.070  0.00  0.00    -0.039 SA
ATOM      3  N2  <0> d           1.321   0.886   3.372  0.00  0.00    -0.273 N 
ATOM      4  H10 <0> d           0.833   0.068   3.922  0.00  0.00     0.189 HD
ENDROOT
BRANCH   1   5
ATOM      5  N1  <0> d           3.143   2.314   3.069  0.00  0.00    -0.332 N 
ATOM      6  H9  <0> d           2.604   2.832   2.262  0.00  0.00     0.168 HD
BRANCH   5   7
ATOM      7  C9  <0> d           4.444   2.694   3.395  0.00  0.00     0.037 A 
ATOM      8  C8  <0> d           4.804   2.852   4.734  0.00  0.00     0.030 A 
ATOM      9  C7  <0> d           6.075   3.218   5.068  0.00  0.00     0.017 A 
ATOM     10  C6  <0> d           7.020   3.449   4.062  0.00  0.00     0.004 A 
ATOM     11  C2  <0> d           8.390   3.849   4.393  0.00  0.00    -0.044 A 
ATOM     12  C5  <0> d           6.662   3.297   2.709  0.00  0.00     0.091 A 
ATOM     13  C1  <0> d           8.820   4.024   5.826  0.00  0.00     0.049 C 
ATOM     14  C3  <0> d           9.262   4.057   3.372  0.00  0.00     0.071 A 
ATOM     15  C4  <0> d           8.835   3.886   2.039  0.00  0.00     0.183 A 
ATOM     16  O2  <0> d           7.578   3.520   1.742  0.00  0.00    -0.287 OA
ATOM     17  C10 <0> d           5.369   2.918   2.386  0.00  0.00     0.067 A 
BRANCH  15  18
ATOM     18  O1  <0> d           9.627   4.076   1.134  0.00  0.00    -0.341 OA
ATOM     19  H20 <0> d           9.309   3.946   0.089  0.00  0.00     0.220 HD
ENDBRANCH  15  18
ENDBRANCH   5   7
ENDBRANCH   1   5
BRANCH   3  20
ATOM     20  N3  <0> d           0.670   1.486   2.286  0.00  0.00    -0.266 N 
ATOM     21  C12 <0> d          -0.554   1.061   1.916  0.00  0.00     0.265 C 
ATOM     22  O3  <0> d          -1.092   0.159   2.522  0.00  0.00    -0.269 OA
ATOM     23  H11 <0> d           1.158   2.304   1.736  0.00  0.00     0.190 HD
BRANCH  21  24
ATOM     24  C13 <0> d          -1.254   1.706   0.748  0.00  0.00     0.218 C 
ATOM     25  C14 <0> d          -0.468   1.427  -0.535  0.00  0.00     0.050 C 
BRANCH  24  26
ATOM     26  O4  <0> d          -2.572   1.167   0.625  0.00  0.00    -0.337 OA
BRANCH  26  27
ATOM     27  C15 <0> d          -3.494   1.932  -0.018  0.00  0.00     0.070 A 
ATOM     28  C20 <0> d          -4.800   1.482  -0.149  0.00  0.00     0.037 A 
ATOM     29  C19 <0> d          -5.735   2.261  -0.803  0.00  0.00     0.003 A 
ATOM     30  C18 <0> d          -5.370   3.487  -1.327  0.00  0.00     0.000 A 
ATOM     31  C17 <0> d          -4.069   3.938  -1.198  0.00  0.00     0.003 A 
ATOM     32  C16 <0> d          -3.131   3.165  -0.540  0.00  0.00     0.037 A 
ENDBRANCH  26  27
ENDBRANCH  24  26
ENDBRANCH  21  24
ENDBRANCH   3  20
TORSDOF 7
