REMARK  5 active torsions:
REMARK  status: ('A' for Active; 'I' for Inactive)
REMARK    1  A    between atoms: C2_2  and  N1_3 
REMARK    2  A    between atoms: C5_6  and  C6_8 
REMARK       I    between atoms: C6_8  and  N3_10 
REMARK    3  A    between atoms: N3_10  and  C7_11 
REMARK    4  A    between atoms: C8_12  and  C16_21 
REMARK    5  A    between atoms: C14_19  and  N5_27 
REMARK       I    between atoms: C16_21  and  N4_23 
ROOT
ATOM      1  C7  <0> d          -3.518  -1.218   0.028  0.00  0.00     0.093 A 
ATOM      2  C8  <0> d          -4.864  -0.875   0.043  0.00  0.00     0.073 A 
ATOM      3  C9  <0> d          -5.830  -1.958   0.045  0.00  0.00    -0.023 A 
ATOM      4  C10 <0> d          -5.302  -3.203   0.034  0.00  0.00     0.018 A 
ATOM      5  S1  <0> d          -3.551  -2.951   0.011  0.00  0.00    -0.074 SA
ATOM      6  C11 <0> d          -6.064  -4.491   0.035  0.00  0.00     0.281 C 
ATOM      7  C12 <0> d          -7.991  -3.083  -0.385  0.00  0.00     0.240 C 
ATOM      8  C13 <0> d          -7.342  -1.768   0.057  0.00  0.00     0.068 C 
ATOM      9  N5  <0> d          -7.460  -4.191   0.436  0.00  0.00    -0.067 N 
ATOM     10  H22 <0> d          -7.472  -3.911   1.423  0.00  0.00     0.280 HD
ENDROOT
BRANCH   1  11
ATOM     11  N3  <0> d          -2.416  -0.379   0.023  0.00  0.00    -0.315 N 
ATOM     12  C6  <0> d          -1.173  -0.899   0.008  0.00  0.00     0.277 C 
ATOM     13  O1  <0> d          -1.018  -2.105  -0.000  0.00  0.00    -0.266 OA
ATOM     14  H8  <0> d          -2.539   0.583   0.029  0.00  0.00     0.170 HD
BRANCH  12  15
ATOM     15  C5  <0> d           0.002  -0.004   0.002  0.00  0.00     0.146 A 
ATOM     16  C4  <0> d           1.361  -0.398  -0.013  0.00  0.00     0.058 A 
ATOM     17  C3  <0> d           2.072   0.753  -0.014  0.00  0.00     0.114 A 
ATOM     18  N1  <0> d           1.185   1.771   0.000  0.00  0.00    -0.281 N 
ATOM     19  N2  <0> d          -0.016   1.314   0.009  0.00  0.00    -0.167 NA
BRANCH  18  20
ATOM     20  C2  <0> d           1.540   3.193   0.004  0.00  0.00     0.146 C 
ATOM     21  C1  <0> d           0.849   3.894  -1.167  0.00  0.00     0.028 C 
ENDBRANCH  18  20
ENDBRANCH  12  15
ENDBRANCH   1  11
BRANCH   2  22
ATOM     22  C16 <0> d          -5.292   0.527   0.055  0.00  0.00     0.252 C 
ATOM     23  O2  <0> d          -5.479   1.115  -0.994  0.00  0.00    -0.268 OA
ATOM     24  N4  <0> d          -5.478   1.164   1.228  0.00  0.00    -0.366 N 
ATOM     25  H20 <0> d          -5.329   0.695   2.064  0.00  0.00     0.159 HD
ATOM     26  H21 <0> d          -5.762   2.092   1.236  0.00  0.00     0.159 HD
ENDBRANCH   2  22
BRANCH   9  27
ATOM     27  C14 <0> d          -8.304  -5.394   0.268  0.00  0.00     0.231 C 
ATOM     28  C15 <0> d          -7.597  -6.596   0.898  0.00  0.00     0.034 C 
ENDBRANCH   9  27
TORSDOF 5
