REMARK  5 active torsions:
REMARK  status: ('A' for Active; 'I' for Inactive)
REMARK    1  A    between atoms: C3_3  and  C5_7 
REMARK    2  A    between atoms: C5_7  and  C6_8 
REMARK    3  A    between atoms: N2_11  and  C9_15 
REMARK    4  A    between atoms: C9_15  and  C10_16 
REMARK    5  A    between atoms: C10_16  and  O2_17 
ROOT
ATOM      1  C6  <0> d           0.002  -0.004   0.002  0.00  0.00     0.078 A 
ATOM      2  C7  <0> d          -0.018   1.468   0.010  0.00  0.00     0.266 A 
ATOM      3  O1  <0> d          -1.063   2.092   0.018  0.00  0.00    -0.266 OA
ATOM      4  N2  <0> d           1.155   2.079   0.002  0.00  0.00    -0.296 N 
ATOM      5  C8  <0> d           2.311   1.384  -0.013  0.00  0.00     0.148 A 
ATOM      6  S1  <0> d           3.914   1.985  -0.024  0.00  0.00    -0.052 SA
ATOM      7  S2  <0> d           1.762  -0.316  -0.017  0.00  0.00    -0.055 SA
ENDROOT
BRANCH   1   8
ATOM      8  C5  <0> d          -1.036  -0.887   0.007  0.00  0.00     0.054 C 
BRANCH   8   9
ATOM      9  C3  <0> d          -0.782  -2.279  -0.003  0.00  0.00     0.033 A 
ATOM     10  C2  <0> d          -1.732  -3.285   0.006  0.00  0.00     0.031 A 
ATOM     11  C1  <0> d          -1.042  -4.501  -0.011  0.00  0.00     0.019 A 
ATOM     12  C4  <0> d           0.284  -4.228  -0.022  0.00  0.00     0.088 A 
ATOM     13  N1  <0> d           0.457  -2.880  -0.018  0.00  0.00    -0.366 N 
ATOM     14  H1  <0> d           1.310  -2.419  -0.024  0.00  0.00     0.165 HD
ENDBRANCH   8   9
ENDBRANCH   1   8
BRANCH   4  15
ATOM     15  C9  <0> d           1.200   3.543   0.009  0.00  0.00     0.160 C 
BRANCH  15  16
ATOM     16  C10 <0> d           1.229   4.046   1.454  0.00  0.00     0.184 C 
BRANCH  16  17
ATOM     17  O2  <0> d           2.443   3.627   2.079  0.00  0.00    -0.399 OA
ATOM     18  H10 <0> d           2.530   3.912   3.000  0.00  0.00     0.209 HD
ENDBRANCH  16  17
ENDBRANCH  15  16
ENDBRANCH   4  15
TORSDOF 5
