REMARK  8 active torsions:
REMARK  status: ('A' for Active; 'I' for Inactive)
REMARK    1  A    between atoms: N1_3  and  C4_6 
REMARK    2  A    between atoms: C4_6  and  C5_7 
REMARK    3  A    between atoms: C5_7  and  C6_8 
REMARK    4  A    between atoms: C6_8  and  N3_9 
REMARK       I    between atoms: N3_9  and  C7_10 
REMARK    5  A    between atoms: C7_10  and  C8_12 
REMARK    6  A    between atoms: C11_15  and  C12_17 
REMARK    7  A    between atoms: N4_21  and  C16_22 
REMARK    8  A    between atoms: C16_22  and  C17_23 
ROOT
ATOM      1  C8  <0> d           7.938   0.721   4.399  0.00  0.00     0.162 C 
ATOM      2  C9  <0> d           8.036  -0.716   4.883  0.00  0.00    -0.005 C 
ATOM      3  C10 <0> d           9.115  -1.097   5.474  0.00  0.00    -0.012 C 
ATOM      4  C11 <0> d          10.239  -0.093   5.660  0.00  0.00     0.104 C 
ATOM      5  S1  <0> d           9.706   1.242   4.501  0.00  0.00    -0.140 SA
ENDROOT
BRANCH   1   6
ATOM      6  C7  <0> d           7.434   0.783   2.980  0.00  0.00     0.235 C 
ATOM      7  N3  <0> d           6.111   0.869   2.739  0.00  0.00    -0.360 N 
ATOM      8  H13 <0> d           5.483   0.890   3.478  0.00  0.00     0.162 HD
ATOM      9  O1  <0> d           8.219   0.757   2.056  0.00  0.00    -0.272 OA
BRANCH   7  10
ATOM     10  C6  <0> d           5.620   0.929   1.359  0.00  0.00     0.124 C 
BRANCH  10  11
ATOM     11  C5  <0> d           4.093   1.021   1.365  0.00  0.00     0.040 C 
BRANCH  11  12
ATOM     12  C4  <0> d           3.581   1.085  -0.076  0.00  0.00     0.130 C 
BRANCH  12  13
ATOM     13  N1  <0> d           2.119   1.173  -0.071  0.00  0.00    -0.352 N 
ATOM     14  C2  <0> d           1.374   2.321  -0.043  0.00  0.00     0.108 A 
ATOM     15  C1  <0> d           0.081   1.947  -0.049  0.00  0.00     0.106 A 
ATOM     16  N2  <0> d           0.036   0.607  -0.080  0.00  0.00    -0.361 N 
ATOM     17  C3  <0> d           1.253   0.136  -0.093  0.00  0.00     0.182 A 
ATOM     18  H28 <0> d          -0.773   0.071  -0.090  0.00  0.00     0.166 HD
ENDBRANCH  12  13
ENDBRANCH  11  12
ENDBRANCH  10  11
ENDBRANCH   7  10
ENDBRANCH   1   6
BRANCH   4  19
ATOM     19  C12 <0> d          10.294   0.415   7.102  0.00  0.00     0.240 C 
ATOM     20  N4  <0> d          11.438   1.330   7.268  0.00  0.00     0.101 N 
ATOM     21  C15 <0> d          10.918   2.663   7.653  0.00  0.00     0.273 C 
ATOM     22  C14 <0> d           9.542   2.379   8.304  0.00  0.00     0.032 C 
ATOM     23  C13 <0> d           9.014   1.215   7.425  0.00  0.00     0.039 C 
BRANCH  20  24
ATOM     24  C16 <0> d          12.233   1.409   6.035  0.00  0.00     0.349 C 
BRANCH  24  25
ATOM     25  C17 <0> d          13.557   2.064   6.332  0.00  0.00     0.109 A 
ATOM     26  N6  <0> d          14.621   2.041   5.546  0.00  0.00    -0.353 N 
ATOM     27  C19 <0> d          15.607   2.736   6.150  0.00  0.00     0.106 A 
ATOM     28  H24 <0> d          14.681   1.601   4.683  0.00  0.00     0.166 HD
ATOM     29  C18 <0> d          15.124   3.179   7.327  0.00  0.00     0.106 A 
ATOM     30  N5  <0> d          13.848   2.752   7.425  0.00  0.00    -0.353 N 
ATOM     31  H27 <0> d          13.248   2.920   8.168  0.00  0.00     0.166 HD
ENDBRANCH  24  25
ENDBRANCH  20  24
ENDBRANCH   4  19
TORSDOF 8
