REMARK  1 active torsions:
REMARK  status: ('A' for Active; 'I' for Inactive)
REMARK    1  A    between atoms: C2_2  and  N1_3 
ROOT
ATOM      1  N1  <0> d          -1.221   2.122  -3.317  0.00  0.00    -0.288 N 
ATOM      2  C3  <0> d          -1.675   1.585  -2.133  0.00  0.00     0.233 C 
ATOM      3  O1  <0> d          -2.788   1.177  -1.880  0.00  0.00    -0.272 OA
ATOM      4  C4  <0> d          -0.528   1.617  -1.263  0.00  0.00     0.125 C 
ATOM      5  C5  <0> d          -0.013   1.086   0.008  0.00  0.00     0.197 C 
ATOM      6  C6  <0> d           1.835   1.634  -1.422  0.00  0.00     0.247 A 
ATOM      7  C7  <0> d           0.637   1.292  -2.272  0.00  0.00     0.144 C 
ATOM      8  C8  <0> d           0.146   2.161  -3.385  0.00  0.00     0.234 C 
ATOM      9  O2  <0> d           0.820   2.776  -4.184  0.00  0.00    -0.272 OA
ATOM     10  C9  <0> d           2.451   2.960  -1.780  0.00  0.00     0.015 A 
ATOM     11  C10 <0> d           1.972   4.251  -1.806  0.00  0.00     0.012 A 
ATOM     12  C11 <0> d           2.801   5.291  -2.186  0.00  0.00     0.001 A 
ATOM     13  C12 <0> d           4.113   5.032  -2.537  0.00  0.00     0.002 A 
ATOM     14  C13 <0> d           4.599   3.742  -2.509  0.00  0.00     0.030 A 
ATOM     15  C14 <0> d           3.771   2.689  -2.126  0.00  0.00     0.044 A 
ATOM     16  N2  <0> d           4.030   1.322  -2.009  0.00  0.00    -0.324 N 
ATOM     17  C15 <0> d           2.951   0.634  -1.595  0.00  0.00     0.264 A 
ATOM     18  O3  <0> d           2.888  -0.561  -1.399  0.00  0.00    -0.270 OA
ATOM     19  C16 <0> d          -0.815   1.618   1.197  0.00  0.00     0.041 C 
ATOM     20  H13 <0> d           4.890   0.916  -2.203  0.00  0.00     0.169 HD
ATOM     21  N3  <0> d           1.376   1.644  -0.020  0.00  0.00    -0.047 N 
ATOM     22  H17 <0> d           1.998   1.063   0.555  0.00  0.00     0.279 HD
ATOM     23  H18 <0> d           1.374   2.605   0.341  0.00  0.00     0.279 HD
ENDROOT
BRANCH   1  24
ATOM     24  C2  <0> d          -2.102   2.599  -4.385  0.00  0.00     0.130 C 
ATOM     25  C1  <0> d          -2.401   1.450  -5.351  0.00  0.00     0.027 C 
ENDBRANCH   1  24
TORSDOF 1
