REMARK  3 active torsions:
REMARK  status: ('A' for Active; 'I' for Inactive)
REMARK    1  A    between atoms: C2_3  and  N3_20 
REMARK    2  A    between atoms: C3_4  and  C10_13 
REMARK    3  A    between atoms: C4_5  and  C5_7 
ROOT
ATOM      1  C1  <0> d          -0.018   1.461   0.010  0.00  0.00     0.182 C 
ATOM      2  N1  <0> d           0.002  -0.004   0.002  0.00  0.00    -0.258 N 
ATOM      3  C2  <0> d           0.008  -0.790  -1.098  0.00  0.00     0.130 A 
ATOM      4  C3  <0> d           0.028  -2.104  -0.663  0.00  0.00     0.047 A 
ATOM      5  C4  <0> d           0.034  -2.078   0.745  0.00  0.00     0.076 A 
ATOM      6  N2  <0> d           0.025  -0.830   1.132  0.00  0.00    -0.174 NA
ENDROOT
BRANCH   4   7
ATOM      7  C10 <0> d           0.040  -3.314  -1.520  0.00  0.00    -0.003 A 
ATOM      8  C15 <0> d          -1.161  -3.901  -1.919  0.00  0.00     0.022 A 
ATOM      9  C14 <0> d          -1.143  -5.024  -2.723  0.00  0.00     0.020 A 
ATOM     10 Br1  <0> d          -2.809  -3.156  -1.369  0.00  0.00    -0.050 Br
ATOM     11  C13 <0> d           0.062  -5.573  -3.121  0.00  0.00     0.001 A 
ATOM     12  C12 <0> d           1.256  -4.998  -2.723  0.00  0.00     0.001 A 
ATOM     13  C11 <0> d           1.251  -3.872  -1.925  0.00  0.00     0.014 A 
ENDBRANCH   4   7
BRANCH   3  14
ATOM     14  N3  <0> d          -0.004  -0.359  -2.418  0.00  0.00    -0.383 N 
ATOM     15  H17 <0> d          -0.018   0.590  -2.618  0.00  0.00     0.157 HD
ATOM     16  H18 <0> d           0.001  -1.008  -3.139  0.00  0.00     0.157 HD
ENDBRANCH   3  14
BRANCH   5  17
ATOM     17  C5  <0> d           0.054  -3.282   1.651  0.00  0.00     0.064 C 
ATOM     18  C9  <0> d           1.305  -3.239   2.531  0.00  0.00     0.178 C 
ATOM     19  O1  <0> d           1.292  -4.351   3.430  0.00  0.00    -0.390 OA
ATOM     20  C8  <0> d           0.175  -4.368   4.321  0.00  0.00     0.167 C 
ATOM     21  C7  <0> d          -1.121  -4.457   3.511  0.00  0.00     0.027 C 
ATOM     22  C6  <0> d          -1.191  -3.272   2.543  0.00  0.00     0.015 C 
ENDBRANCH   5  17
TORSDOF 3
