REMARK  5 active torsions:
REMARK  status: ('A' for Active; 'I' for Inactive)
REMARK    1  A    between atoms: C5_6  and  S1_10 
REMARK    2  A    between atoms: S1_10  and  C8_11 
REMARK    3  A    between atoms: C8_11  and  C9_12 
REMARK       I    between atoms: C9_12  and  N3_14 
REMARK    4  A    between atoms: N3_14  and  C10_15 
REMARK    5  A    between atoms: C11_17  and  C13_20 
ROOT
ATOM      1  C9  <0> d           3.313  -2.560  -4.211  0.00  0.00     0.229 C 
ATOM      2  O1  <0> d           4.002  -3.557  -4.234  0.00  0.00    -0.273 OA
ATOM      3  N3  <0> d           2.897  -2.000  -5.364  0.00  0.00    -0.329 N 
ATOM      4  H9  <0> d           2.346  -1.202  -5.346  0.00  0.00     0.165 HD
ENDROOT
BRANCH   1   5
ATOM      5  C8  <0> d           2.921  -1.946  -2.892  0.00  0.00     0.180 C 
BRANCH   5   6
ATOM      6  S1  <0> d           3.629  -2.921  -1.536  0.00  0.00    -0.114 SA
BRANCH   6   7
ATOM      7  C5  <0> d           3.071  -2.062  -0.039  0.00  0.00     0.247 A 
ATOM      8  N1  <0> d           3.569  -0.680  -0.036  0.00  0.00    -0.359 N 
ATOM      9  C4  <0> d           2.533   0.108  -0.022  0.00  0.00     0.057 A 
ATOM     10  H16 <0> d           4.499  -0.405  -0.045  0.00  0.00     0.162 HD
ATOM     11  C3  <0> d           2.389   1.570  -0.013  0.00  0.00     0.031 A 
ATOM     12  C6  <0> d           1.290  -0.712  -0.014  0.00  0.00     0.057 A 
ATOM     13  C2  <0> d           1.158   2.118   0.002  0.00  0.00     0.002 A 
ATOM     14  C1  <0> d          -0.016   1.344   0.009  0.00  0.00     0.002 A 
ATOM     15  C7  <0> d           0.002  -0.004   0.002  0.00  0.00     0.031 A 
ATOM     16  N2  <0> d           1.606  -1.974  -0.024  0.00  0.00    -0.359 N 
ATOM     17  H17 <0> d           0.987  -2.721  -0.022  0.00  0.00     0.162 HD
ENDBRANCH   6   7
ENDBRANCH   5   6
ENDBRANCH   1   5
BRANCH   3  18
ATOM     18  C10 <0> d           3.278  -2.597  -6.647  0.00  0.00     0.272 C 
ATOM     19  S2  <0> d           4.998  -2.119  -7.120  0.00  0.00    -0.115 SA
ATOM     20  C12 <0> d           4.615  -1.776  -8.895  0.00  0.00     0.137 C 
ATOM     21  C11 <0> d           3.103  -1.617  -8.813  0.00  0.00     0.051 C 
ATOM     22  N4  <0> d           2.509  -2.005  -7.760  0.00  0.00    -0.257 NA
BRANCH  21  23
ATOM     23  C13 <0> d           2.345  -1.026  -9.933  0.00  0.00    -0.011 A 
ATOM     24  C18 <0> d           0.959  -0.886  -9.845  0.00  0.00     0.015 A 
ATOM     25  C17 <0> d           0.257  -0.327 -10.892  0.00  0.00     0.020 A 
ATOM     26  C16 <0> d           0.923   0.084 -12.035  0.00  0.00     0.011 A 
ATOM     27  C15 <0> d           2.297  -0.057 -12.131  0.00  0.00     0.020 A 
ATOM     28 Br1  <0> d          -0.048   0.842 -13.469  0.00  0.00    -0.051 Br
ATOM     29  C14 <0> d           3.011  -0.609 -11.088  0.00  0.00     0.015 A 
ENDBRANCH  21  23
ENDBRANCH   3  18
TORSDOF 5
