REMARK  3 active torsions:
REMARK  status: ('A' for Active; 'I' for Inactive)
REMARK    1  A    between atoms: C6_6  and  C7_7 
REMARK    2  A    between atoms: C7_7  and  C8_8 
REMARK    3  A    between atoms: C7_7  and  O2_14 
ROOT
ATOM      1  C1  <0> d          -0.017   1.379   0.010  0.00  0.00     0.021 A 
ATOM      2  C2  <0> d           1.167   2.083   0.002  0.00  0.00    -0.022 A 
ATOM      3  C3  <0> d           2.388   1.421  -0.013  0.00  0.00     0.043 A 
ATOM      4  C4  <0> d           2.400   0.027  -0.021  0.00  0.00     0.054 A 
ATOM      5  C5  <0> d           1.212  -0.676  -0.015  0.00  0.00     0.045 A 
ATOM      6  C6  <0> d           0.002  -0.004   0.002  0.00  0.00    -0.007 A 
ATOM      7 Cl1  <0> d           1.236  -2.412  -0.026  0.00  0.00    -0.084 Cl
ATOM      8  N1  <0> d           3.436   2.342  -0.018  0.00  0.00    -0.326 N 
ATOM      9  C13 <0> d           2.998   3.612  -0.006  0.00  0.00     0.226 A 
ATOM     10  O3  <0> d           3.684   4.611  -0.007  0.00  0.00    -0.273 OA
ATOM     11  C14 <0> d           1.485   3.560   0.007  0.00  0.00     0.144 A 
ATOM     12  H14 <0> d           4.374   2.094  -0.028  0.00  0.00     0.169 HD
ENDROOT
BRANCH   6  13
ATOM     13  C7  <0> d          -1.291  -0.777   0.011  0.00  0.00     0.159 C 
BRANCH  13  14
ATOM     14  C8  <0> d          -1.679  -1.139  -1.425  0.00  0.00     0.043 C 
ATOM     15  C12 <0> d          -1.859   0.141  -2.244  0.00  0.00     0.175 C 
ATOM     16  O1  <0> d          -2.278  -0.197  -3.568  0.00  0.00    -0.391 OA
ATOM     17  C11 <0> d          -3.527  -0.889  -3.627  0.00  0.00     0.167 C 
ATOM     18  C10 <0> d          -3.412  -2.211  -2.863  0.00  0.00     0.027 C 
ATOM     19  C9  <0> d          -2.995  -1.923  -1.418  0.00  0.00     0.011 C 
ENDBRANCH  13  14
BRANCH  13  20
ATOM     20  O2  <0> d          -2.321   0.023   0.594  0.00  0.00    -0.390 OA
ATOM     21  H13 <0> d          -2.488   0.853   0.126  0.00  0.00     0.210 HD
ENDBRANCH  13  20
ENDBRANCH   6  13
TORSDOF 3
