REMARK  6 active torsions:
REMARK  status: ('A' for Active; 'I' for Inactive)
REMARK    1  A    between atoms: C5_5  and  S1_8 
REMARK    2  A    between atoms: S1_8  and  N1_11 
REMARK    3  A    between atoms: N1_11  and  C8_12 
REMARK    4  A    between atoms: N2_16  and  C13_19 
REMARK    5  A    between atoms: C13_19  and  C14_20 
REMARK       I    between atoms: C14_20  and  N3_22 
REMARK    6  A    between atoms: N3_22  and  C15_23 
ROOT
ATOM      1  C8  <0> d           2.536  -4.785   0.933  0.00  0.00     0.110 A 
ATOM      2  C9  <0> d           2.098  -4.309   2.138  0.00  0.00     0.038 A 
ATOM      3  C10 <0> d           3.020  -4.128   3.179  0.00  0.00     0.027 A 
ATOM      4  C11 <0> d           4.326  -4.423   2.986  0.00  0.00     0.011 A 
ATOM      5  N2  <0> d           4.763  -4.896   1.788  0.00  0.00    -0.308 N 
ATOM      6  C12 <0> d           3.905  -5.088   0.768  0.00  0.00     0.275 A 
ATOM      7  O3  <0> d           4.311  -5.519  -0.299  0.00  0.00    -0.265 OA
ATOM      8  C22 <0> d           5.308  -4.225   4.112  0.00  0.00     0.068 C 
ENDROOT
BRANCH   1   9
ATOM      9  N1  <0> d           1.636  -4.976  -0.123  0.00  0.00    -0.275 N 
ATOM     10  H8  <0> d           1.938  -5.379  -0.952  0.00  0.00     0.179 HD
BRANCH   9  11
ATOM     11  S1  <0> d           0.054  -4.512   0.043  0.00  0.00     0.263 S 
ATOM     12  O1  <0> d          -0.390  -5.025   1.291  0.00  0.00    -0.200 OA
ATOM     13  O2  <0> d          -0.592  -4.826  -1.183  0.00  0.00    -0.200 OA
BRANCH  11  14
ATOM     14  C5  <0> d           0.039  -2.756   0.186  0.00  0.00     0.079 A 
ATOM     15  C4  <0> d           0.062  -1.970  -0.951  0.00  0.00     0.026 A 
ATOM     16  C3  <0> d           0.049  -0.593  -0.839  0.00  0.00     0.008 A 
ATOM     17  C2  <0> d           0.011  -0.001   0.410  0.00  0.00    -0.062 A 
ATOM     18  C1  <0> d          -0.003   1.501   0.532  0.00  0.00     0.048 C 
ATOM     19  C7  <0> d          -0.007  -0.787   1.546  0.00  0.00     0.008 A 
ATOM     20  C6  <0> d           0.002  -2.165   1.435  0.00  0.00     0.026 A 
ENDBRANCH  11  14
ENDBRANCH   9  11
ENDBRANCH   1   9
BRANCH   5  21
ATOM     21  C13 <0> d           6.184  -5.207   1.608  0.00  0.00     0.235 C 
BRANCH  21  22
ATOM     22  C14 <0> d           6.435  -6.644   1.986  0.00  0.00     0.240 C 
ATOM     23  O4  <0> d           5.519  -7.340   2.368  0.00  0.00    -0.271 OA
ATOM     24  N3  <0> d           7.679  -7.156   1.899  0.00  0.00    -0.325 N 
ATOM     25  H13 <0> d           8.397  -6.623   1.522  0.00  0.00     0.169 HD
BRANCH  24  26
ATOM     26  C15 <0> d           7.934  -8.455   2.352  0.00  0.00     0.040 A 
ATOM     27  C20 <0> d           9.004  -9.175   1.834  0.00  0.00    -0.035 A 
ATOM     28  C19 <0> d           9.257 -10.454   2.288  0.00  0.00     0.009 A 
ATOM     29  C21 <0> d           9.890  -8.557   0.784  0.00  0.00     0.050 C 
ATOM     30  C18 <0> d           8.440 -11.024   3.247  0.00  0.00     0.001 A 
ATOM     31  C17 <0> d           7.370 -10.312   3.760  0.00  0.00     0.002 A 
ATOM     32  C16 <0> d           7.116  -9.030   3.315  0.00  0.00     0.030 A 
ENDBRANCH  24  26
ENDBRANCH  21  22
ENDBRANCH   5  21
TORSDOF 6
