REMARK  2 active torsions:
REMARK  status: ('A' for Active; 'I' for Inactive)
REMARK    1  A    between atoms: C4_6  and  S1_8 
REMARK    2  A    between atoms: S1_8  and  C6_9 
ROOT
ATOM      1  S1  <0> d          -1.464  -0.981   0.010  0.00  0.00    -0.034 SA
ENDROOT
BRANCH   1   2
ATOM      2  C4  <0> d          -2.586   0.374   0.116  0.00  0.00     0.109 A 
ATOM      3  N1  <0> d          -2.124   1.614   0.072  0.00  0.00    -0.193 N 
ATOM      4  C3  <0> d          -2.930   2.657   0.143  0.00  0.00     0.127 A 
ATOM      5  O1  <0> d          -0.730   1.827  -0.060  0.00  0.00    -0.080 OA
ATOM      6  C2  <0> d          -4.295   2.488   0.278  0.00  0.00     0.020 A 
ATOM      7  C1  <0> d          -4.819   1.204   0.333  0.00  0.00     0.004 A 
ATOM      8  C5  <0> d          -3.948   0.131   0.251  0.00  0.00     0.040 A 
ENDBRANCH   1   2
BRANCH   1   9
ATOM      9  C6  <0> d          -0.664  -0.597  -1.512  0.00  0.00     0.142 A 
ATOM     10  N3  <0> d           0.401  -1.309  -1.992  0.00  0.00    -0.369 N 
ATOM     11  C8  <0> d           0.814  -0.719  -3.276  0.00  0.00     0.141 A 
ATOM     12  H9  <0> d           0.940  -2.179  -1.588  0.00  0.00     0.161 HD
ATOM     13  C7  <0> d          -0.178   0.446  -3.465  0.00  0.00     0.141 A 
ATOM     14  N2  <0> d          -1.034   0.382  -2.273  0.00  0.00    -0.369 N 
ATOM     15  H10 <0> d          -1.883   1.017  -1.978  0.00  0.00     0.161 HD
ENDBRANCH   1   9
TORSDOF 2
