REMARK  4 active torsions:
REMARK  status: ('A' for Active; 'I' for Inactive)
REMARK    1  A    between atoms: C6_6  and  S1_14 
REMARK       I    between atoms: N1_10  and  C10_11 
REMARK    2  A    between atoms: S1_14  and  N2_17 
REMARK    3  A    between atoms: C15_21  and  C17_23 
REMARK    4  A    between atoms: C17_23  and  N3_24 
REMARK       I    between atoms: N3_24  and  C18_25 
ROOT
ATOM      1  S1  <0> d          -3.299  -3.446   4.365  0.00  0.00     0.260 S 
ATOM      2  O2  <0> d          -2.767  -3.723   5.653  0.00  0.00    -0.200 OA
ATOM      3  O3  <0> d          -4.517  -2.738   4.180  0.00  0.00    -0.200 OA
ENDROOT
BRANCH   1   4
ATOM      4  C6  <0> d          -2.059  -2.550   3.490  0.00  0.00     0.080 A 
ATOM      5  C5  <0> d          -2.412  -1.726   2.438  0.00  0.00     0.034 A 
ATOM      6  C4  <0> d          -1.441  -1.023   1.751  0.00  0.00    -0.028 A 
ATOM      7  C3  <0> d          -1.548  -0.069   0.583  0.00  0.00     0.066 A 
ATOM      8  C9  <0> d          -0.107  -1.137   2.107  0.00  0.00     0.044 A 
ATOM      9  C2  <0> d          -0.099   0.362   0.301  0.00  0.00     0.093 A 
ATOM     10  C1  <0> d           0.050   1.874   0.481  0.00  0.00     0.033 C 
ATOM     11  N1  <0> d           0.715  -0.350   1.290  0.00  0.00    -0.313 N 
ATOM     12  C10 <0> d           2.055  -0.260   1.397  0.00  0.00     0.220 C 
ATOM     13  O1  <0> d           2.646  -0.940   2.210  0.00  0.00    -0.273 OA
ATOM     14  C11 <0> d           2.820   0.686   0.508  0.00  0.00     0.117 C 
ATOM     15  C8  <0> d           0.242  -1.972   3.170  0.00  0.00     0.032 A 
ATOM     16  C7  <0> d          -0.730  -2.671   3.853  0.00  0.00     0.027 A 
ENDBRANCH   1   4
BRANCH   1  17
ATOM     17  N2  <0> d          -3.478  -4.905   3.603  0.00  0.00    -0.306 N 
ATOM     18  C16 <0> d          -2.671  -6.064   4.007  0.00  0.00     0.141 C 
ATOM     19  C15 <0> d          -1.968  -6.634   2.776  0.00  0.00     0.022 C 
ATOM     20  C14 <0> d          -3.006  -6.937   1.693  0.00  0.00     0.009 C 
ATOM     21  C13 <0> d          -3.717  -5.643   1.290  0.00  0.00     0.021 C 
ATOM     22  C12 <0> d          -4.444  -5.064   2.507  0.00  0.00     0.135 C 
BRANCH  19  23
ATOM     23  C17 <0> d          -1.235  -7.922   3.155  0.00  0.00     0.128 C 
BRANCH  23  24
ATOM     24  N3  <0> d          -0.465  -8.402   2.004  0.00  0.00    -0.361 N 
ATOM     25  C18 <0> d           0.266  -9.530   2.105  0.00  0.00     0.213 C 
ATOM     26  O4  <0> d           0.286 -10.148   3.149  0.00  0.00    -0.274 OA
ATOM     27  C19 <0> d           1.058 -10.023   0.922  0.00  0.00     0.117 C 
ATOM     28  H24 <0> d          -0.481  -7.908   1.170  0.00  0.00     0.162 HD
ENDBRANCH  23  24
ENDBRANCH  19  23
ENDBRANCH   1  17
TORSDOF 4
