REMARK  8 active torsions:
REMARK  status: ('A' for Active; 'I' for Inactive)
REMARK    1  A    between atoms: S1_2  and  C2_5 
REMARK    2  A    between atoms: C2_5  and  C3_6 
REMARK    3  A    between atoms: C3_6  and  C4_7 
REMARK    4  A    between atoms: C4_7  and  O3_8 
REMARK    5  A    between atoms: O3_8  and  N1_9 
REMARK    6  A    between atoms: C5_10  and  C6_11 
REMARK    7  A    between atoms: C5_10  and  N2_19 
REMARK    8  A    between atoms: C6_11  and  C7_12 
ROOT
ATOM      1  N1  <0> d           2.427  -4.049  -4.372  0.00  0.00    -0.120 NA
ATOM      2  C5  <0> d           2.653  -5.302  -4.593  0.00  0.00     0.129 C 
ENDROOT
BRANCH   2   3
ATOM      3  C6  <0> d           2.224  -6.335  -3.583  0.00  0.00     0.118 C 
BRANCH   3   4
ATOM      4  C7  <0> d           3.427  -6.817  -2.815  0.00  0.00    -0.050 A 
ATOM      5  C12 <0> d           3.809  -6.175  -1.653  0.00  0.00     0.026 A 
ATOM      6  C11 <0> d           4.911  -6.622  -0.946  0.00  0.00     0.011 A 
ATOM      7  C10 <0> d           5.637  -7.704  -1.408  0.00  0.00     0.019 A 
ATOM      8 Br1  <0> d           5.429  -5.748   0.649  0.00  0.00    -0.051 Br
ATOM      9  C9  <0> d           5.257  -8.343  -2.574  0.00  0.00     0.002 A 
ATOM     10  C8  <0> d           4.153  -7.900  -3.278  0.00  0.00     0.007 A 
ENDBRANCH   3   4
ENDBRANCH   2   3
BRANCH   2  11
ATOM     11  N2  <0> d           3.285  -5.694  -5.752  0.00  0.00    -0.385 N 
ATOM     12  H16 <0> d           3.561  -5.029  -6.402  0.00  0.00     0.157 HD
ATOM     13  H17 <0> d           3.454  -6.634  -5.918  0.00  0.00     0.157 HD
ENDBRANCH   2  11
BRANCH   1  14
ATOM     14  O3  <0> d           1.680  -3.654  -3.236  0.00  0.00    -0.255 OA
BRANCH  14  15
ATOM     15  C4  <0> d           1.508  -2.240  -3.116  0.00  0.00     0.204 C 
BRANCH  15  16
ATOM     16  C3  <0> d           0.691  -1.931  -1.860  0.00  0.00     0.043 C 
BRANCH  16  17
ATOM     17  C2  <0> d           0.507  -0.417  -1.732  0.00  0.00     0.142 C 
BRANCH  17  18
ATOM     18  S1  <0> d          -0.462  -0.050  -0.243  0.00  0.00     0.140 S 
ATOM     19  C1  <0> d          -0.567   1.761  -0.271  0.00  0.00     0.161 C 
ATOM     20  O1  <0> d           0.297  -0.438   0.894  0.00  0.00    -0.228 OA
ATOM     21  O2  <0> d          -1.769  -0.579  -0.416  0.00  0.00    -0.228 OA
ENDBRANCH  17  18
ENDBRANCH  16  17
ENDBRANCH  15  16
ENDBRANCH  14  15
ENDBRANCH   1  14
TORSDOF 8
