REMARK  7 active torsions:
REMARK  status: ('A' for Active; 'I' for Inactive)
REMARK    1  A    between atoms: C2_2  and  N1_3 
REMARK    2  A    between atoms: N1_3  and  C3_4 
REMARK    3  A    between atoms: N1_3  and  C5_6 
REMARK    4  A    between atoms: C8_9  and  C11_13 
REMARK    5  A    between atoms: C9_10  and  O1_12 
REMARK    6  A    between atoms: C19_23  and  N4_32 
REMARK    7  A    between atoms: C22_26  and  O2_28 
ROOT
ATOM      1  C11 <0> d           1.144   1.521  -2.507  0.00  0.00     0.245 C 
ATOM      2  N2  <0> d           1.680   2.401  -3.562  0.00  0.00    -0.357 N 
ATOM      3  C12 <0> d           1.116   3.650  -3.658  0.00  0.00     0.087 A 
ATOM      4  C13 <0> d          -0.182   3.925  -3.206  0.00  0.00     0.057 A 
ATOM      5  C14 <0> d          -0.638   5.289  -3.386  0.00  0.00    -0.024 A 
ATOM      6  C15 <0> d           0.250   6.133  -3.966  0.00  0.00     0.018 A 
ATOM      7  S1  <0> d           1.684   5.141  -4.278  0.00  0.00    -0.074 SA
ATOM      8  C16 <0> d           0.034   7.583  -4.264  0.00  0.00     0.282 C 
ATOM      9  C17 <0> d          -1.957   7.329  -2.907  0.00  0.00     0.240 C 
ATOM     10  C18 <0> d          -2.013   5.800  -2.970  0.00  0.00     0.068 C 
ATOM     11  C22 <0> d          -0.939   2.804  -2.591  0.00  0.00     0.173 C 
ATOM     12  N3  <0> d          -0.291   1.704  -2.332  0.00  0.00    -0.235 NA
ATOM     13  H16 <0> d           2.393   2.115  -4.154  0.00  0.00     0.162 HD
ATOM     14  N4  <0> d          -1.422   7.853  -4.181  0.00  0.00    -0.063 N 
ATOM     15  H31 <0> d          -1.895   7.381  -4.961  0.00  0.00     0.280 HD
ENDROOT
BRANCH   1  16
ATOM     16  C8  <0> d           1.842   1.830  -1.207  0.00  0.00     0.019 A 
ATOM     17  C7  <0> d           3.097   2.409  -1.218  0.00  0.00     0.016 A 
ATOM     18  C6  <0> d           3.739   2.693  -0.029  0.00  0.00     0.030 A 
ATOM     19  C5  <0> d           3.124   2.398   1.182  0.00  0.00     0.032 A 
ATOM     20  C10 <0> d           1.861   1.822   1.194  0.00  0.00     0.066 A 
ATOM     21  C9  <0> d           1.223   1.532  -0.001  0.00  0.00     0.077 A 
BRANCH  19  22
ATOM     22  N1  <0> d           3.773   2.686   2.385  0.00  0.00    -0.382 N 
BRANCH  22  23
ATOM     23  C2  <0> d           5.104   3.299   2.370  0.00  0.00     0.118 C 
ATOM     24  C1  <0> d           4.963   4.823   2.378  0.00  0.00     0.026 C 
ENDBRANCH  22  23
BRANCH  22  25
ATOM     25  C3  <0> d           3.124   2.374   3.660  0.00  0.00     0.118 C 
ATOM     26  C4  <0> d           3.502   0.956   4.092  0.00  0.00     0.026 C 
ENDBRANCH  22  25
ENDBRANCH  19  22
BRANCH  21  27
ATOM     27  O1  <0> d          -0.011   0.963   0.007  0.00  0.00    -0.360 OA
ATOM     28  H15 <0> d           0.002  -0.004   0.002  0.00  0.00     0.217 HD
ENDBRANCH  21  27
ENDBRANCH   1  16
BRANCH  11  29
ATOM     29  O2  <0> d          -2.257   2.922  -2.311  0.00  0.00    -0.344 OA
ATOM     30  H30 <0> d          -2.647   2.132  -1.913  0.00  0.00     0.219 HD
ENDBRANCH  11  29
BRANCH  14  31
ATOM     31  C19 <0> d          -1.674   9.307  -4.275  0.00  0.00     0.180 C 
ATOM     32  C20 <0> d          -0.968  10.046  -3.137  0.00  0.00     0.039 C 
ATOM     33  C21 <0> d          -1.147   9.817  -5.618  0.00  0.00     0.039 C 
ENDBRANCH  14  31
TORSDOF 7
