REMARK  4 active torsions:
REMARK  status: ('A' for Active; 'I' for Inactive)
REMARK    1  A    between atoms: N1_2  and  C2_3 
REMARK       I    between atoms: N1_2  and  C7_9 
REMARK    2  A    between atoms: C2_3  and  C3_4 
REMARK    3  A    between atoms: C7_9  and  C8_11 
REMARK    4  A    between atoms: C10_13  and  N2_18 
ROOT
ATOM      1  C8  <0> d          -0.124   0.069  -2.442  0.00  0.00     0.051 A 
ATOM      2  C9  <0> d           0.996   0.792  -2.851  0.00  0.00     0.047 A 
ATOM      3  C10 <0> d           0.968   1.485  -4.051  0.00  0.00     0.026 A 
ATOM      4  C11 <0> d          -0.174   1.458  -4.843  0.00  0.00     0.030 A 
ATOM      5  C12 <0> d          -1.284   0.741  -4.439  0.00  0.00     0.022 A 
ATOM      6  C13 <0> d          -1.265   0.043  -3.247  0.00  0.00     0.026 A 
ATOM      7 Br1  <0> d          -2.785  -0.942  -2.703  0.00  0.00    -0.050 Br
ENDROOT
BRANCH   1   8
ATOM      8  C7  <0> d          -0.102  -0.673  -1.163  0.00  0.00     0.255 C 
ATOM      9  N1  <0> d           0.387  -0.087  -0.053  0.00  0.00    -0.348 N 
ATOM     10  C1  <0> d           0.789   1.322  -0.084  0.00  0.00     0.153 C 
ATOM     11  O2  <0> d          -0.524  -1.812  -1.114  0.00  0.00    -0.267 OA
BRANCH   9  12
ATOM     12  C2  <0> d           0.515  -0.857   1.187  0.00  0.00     0.166 C 
BRANCH  12  13
ATOM     13  C3  <0> d          -0.756  -0.737   1.987  0.00  0.00    -0.016 A 
ATOM     14  C6  <0> d          -1.829  -1.544   1.912  0.00  0.00     0.150 A 
ATOM     15  O1  <0> d          -2.751  -1.107   2.785  0.00  0.00    -0.334 OA
ATOM     16  C5  <0> d          -2.285  -0.018   3.420  0.00  0.00     0.142 A 
ATOM     17  C4  <0> d          -1.051   0.248   2.957  0.00  0.00     0.035 A 
ENDBRANCH  12  13
ENDBRANCH   9  12
ENDBRANCH   1   8
BRANCH   3  18
ATOM     18  N2  <0> d           2.088   2.212  -4.465  0.00  0.00    -0.399 N 
ATOM     19  H12 <0> d           2.885   2.231  -3.913  0.00  0.00     0.156 HD
ATOM     20  H13 <0> d           2.068   2.696  -5.305  0.00  0.00     0.156 HD
ENDBRANCH   3  18
TORSDOF 4
