REMARK  4 active torsions:
REMARK  status: ('A' for Active; 'I' for Inactive)
REMARK    1  A    between atoms: C5_6  and  N3_8 
REMARK       I    between atoms: N3_8  and  C6_9 
REMARK    2  A    between atoms: N4_11  and  S1_12 
REMARK    3  A    between atoms: S1_12  and  N5_15 
REMARK    4  A    between atoms: N5_15  and  C7_16 
ROOT
ATOM      1  N3  <0> d           0.049  -2.680   2.351  0.00  0.00    -0.147 N 
ATOM      2  C6  <0> d           0.045  -1.975   3.534  0.00  0.00     0.304 C 
ATOM      3  O1  <0> d           0.027  -0.624   3.514  0.00  0.00    -0.148 OA
ATOM      4  N4  <0> d           0.059  -2.609   4.669  0.00  0.00    -0.100 NA
ATOM      5  H5  <0> d           0.062  -3.650   2.365  0.00  0.00     0.188 HD
ENDROOT
BRANCH   4   6
ATOM      6  S1  <0> d           0.054  -1.761   6.091  0.00  0.00     0.349 S 
ATOM      7  O2  <0> d           1.290  -1.063   6.152  0.00  0.00    -0.180 OA
ATOM      8  O3  <0> d          -1.200  -1.097   6.164  0.00  0.00    -0.180 OA
BRANCH   6   9
ATOM      9  N5  <0> d           0.075  -2.868   7.322  0.00  0.00    -0.249 N 
ATOM     10  H12 <0> d          -0.683  -2.939   7.924  0.00  0.00     0.182 HD
BRANCH   9  11
ATOM     11  C7  <0> d           1.178  -3.697   7.494  0.00  0.00     0.137 A 
ATOM     12  N6  <0> d           2.209  -3.595   6.669  0.00  0.00    -0.241 NA
ATOM     13  C11 <0> d           3.278  -4.358   6.800  0.00  0.00     0.138 A 
ATOM     14  C10 <0> d           3.354  -5.304   7.803  0.00  0.00     0.028 A 
ATOM     15  C9  <0> d           2.291  -5.447   8.685  0.00  0.00     0.024 A 
ATOM     16 Br1  <0> d           4.889  -6.395   7.973  0.00  0.00    -0.050 Br
ATOM     17  C8  <0> d           1.187  -4.629   8.526  0.00  0.00     0.052 A 
ENDBRANCH   9  11
ENDBRANCH   6   9
ENDBRANCH   4   6
BRANCH   1  18
ATOM     18  C5  <0> d           0.035  -2.004   1.140  0.00  0.00     0.730 A 
ATOM     19  N1  <0> d           0.039  -2.698   0.012  0.00  0.00    -0.068 NA
ATOM     20  C4  <0> d           0.025  -2.084  -1.160  0.00  0.00     0.051 A 
ATOM     21  C3  <0> d           0.006  -0.699  -1.197  0.00  0.00     0.054 A 
ATOM     22  C12 <0> d           0.029  -2.882  -2.439  0.00  0.00     0.071 C 
ATOM     23  C2  <0> d           0.002  -0.004   0.002  0.00  0.00     0.051 A 
ATOM     24  C1  <0> d          -0.018   1.503   0.010  0.00  0.00     0.071 C 
ATOM     25  N2  <0> d           0.022  -0.680   1.139  0.00  0.00    -0.068 NA
ENDBRANCH   1  18
TORSDOF 4
