REMARK  5 active torsions:
REMARK  status: ('A' for Active; 'I' for Inactive)
REMARK    1  A    between atoms: C3_3  and  C19_26 
REMARK    2  A    between atoms: C5_7  and  C6_8 
REMARK       I    between atoms: C6_8  and  N2_10 
REMARK    3  A    between atoms: N2_10  and  C7_11 
REMARK    4  A    between atoms: C7_11  and  C9_13 
REMARK    5  A    between atoms: C11_17  and  C12_19 
ROOT
ATOM      1  C6  <0> d          -0.374  -0.768   2.561  0.00  0.00     0.269 C 
ATOM      2  O1  <0> d          -0.527   0.363   2.983  0.00  0.00    -0.266 OA
ATOM      3  N2  <0> d          -0.398  -1.814   3.410  0.00  0.00    -0.345 N 
ATOM      4  H7  <0> d          -0.276  -2.715   3.073  0.00  0.00     0.163 HD
ENDROOT
BRANCH   3   5
ATOM      5  C7  <0> d          -0.609  -1.590   4.842  0.00  0.00     0.148 C 
ATOM      6  C8  <0> d           0.730  -1.267   5.510  0.00  0.00     0.040 C 
BRANCH   5   7
ATOM      7  C9  <0> d          -1.193  -2.832   5.465  0.00  0.00     0.104 A 
ATOM      8  N4  <0> d          -1.990  -2.858   6.496  0.00  0.00    -0.342 N 
ATOM      9  C11 <0> d          -2.316  -4.138   6.771  0.00  0.00     0.059 A 
ATOM     10  H23 <0> d          -2.301  -2.081   6.986  0.00  0.00     0.167 HD
ATOM     11  C10 <0> d          -1.679  -4.929   5.869  0.00  0.00     0.119 A 
ATOM     12  N3  <0> d          -0.972  -4.097   5.047  0.00  0.00    -0.352 N 
ATOM     13  H3  <0> d          -0.414  -4.366   4.301  0.00  0.00     0.166 HD
BRANCH   9  14
ATOM     14  C12 <0> d          -3.204  -4.598   7.867  0.00  0.00    -0.008 A 
ATOM     15  C17 <0> d          -3.451  -5.958   8.042  0.00  0.00     0.014 A 
ATOM     16  C16 <0> d          -4.273  -6.382   9.066  0.00  0.00     0.001 A 
ATOM     17  C15 <0> d          -4.862  -5.458   9.911  0.00  0.00     0.000 A 
ATOM     18  C14 <0> d          -4.626  -4.106   9.737  0.00  0.00     0.001 A 
ATOM     19  C13 <0> d          -3.800  -3.672   8.720  0.00  0.00     0.014 A 
ENDBRANCH   9  14
ENDBRANCH   5   7
ENDBRANCH   3   5
BRANCH   1  20
ATOM     20  C5  <0> d          -0.164  -0.992   1.125  0.00  0.00     0.108 A 
ATOM     21  C2  <0> d          -0.118  -0.026   0.165  0.00  0.00    -0.014 A 
ATOM     22  C1  <0> d          -0.274   1.457   0.379  0.00  0.00     0.052 C 
ATOM     23  C3  <0> d           0.109  -0.680  -1.070  0.00  0.00     0.040 A 
ATOM     24  C4  <0> d           0.186  -2.038  -0.800  0.00  0.00     0.020 A 
ATOM     25  N1  <0> d           0.018  -2.217   0.518  0.00  0.00    -0.354 N 
ATOM     26  C18 <0> d           0.420  -3.127  -1.815  0.00  0.00     0.069 C 
ATOM     27  H1  <0> d           0.028  -3.073   0.974  0.00  0.00     0.166 HD
BRANCH  23  28
ATOM     28  C19 <0> d           0.237  -0.043  -2.384  0.00  0.00     0.158 C 
ATOM     29  O2  <0> d          -0.752   0.175  -3.051  0.00  0.00    -0.293 OA
ATOM     30  C20 <0> d           1.598   0.341  -2.906  0.00  0.00     0.097 C 
ENDBRANCH  23  28
ENDBRANCH   1  20
TORSDOF 5
