REMARK  5 active torsions:
REMARK  status: ('A' for Active; 'I' for Inactive)
REMARK    1  A    between atoms: C4_4  and  C9_11 
REMARK    2  A    between atoms: N1_5  and  C5_7 
REMARK       I    between atoms: C9_11  and  N3_13 
REMARK    3  A    between atoms: C11_15  and  C18_23 
REMARK       I    between atoms: C18_23  and  N5_25 
REMARK    4  A    between atoms: N5_25  and  C19_26 
REMARK    5  A    between atoms: C19_26  and  C20_27 
REMARK       I    between atoms: C20_27  and  N6_29 
ROOT
ATOM      1  C9  <0> d          -0.571  -3.607  -1.417  0.00  0.00     0.272 C 
ATOM      2  O1  <0> d          -0.780  -3.648  -2.615  0.00  0.00    -0.266 OA
ATOM      3  N3  <0> d          -0.521  -4.749  -0.703  0.00  0.00    -0.345 N 
ATOM      4  C10 <0> d          -0.412  -4.895   0.768  0.00  0.00     0.141 C 
ATOM      5  C11 <0> d          -1.340  -6.082   1.111  0.00  0.00     0.106 C 
ATOM      6  C12 <0> d          -1.433  -6.897  -0.190  0.00  0.00    -0.007 C 
ATOM      7  C13 <0> d          -0.569  -6.141  -1.210  0.00  0.00     0.136 C 
ATOM      8  C14 <0> d          -2.878  -6.957  -0.674  0.00  0.00     0.039 C 
ATOM      9  C15 <0> d          -2.954  -7.819  -1.937  0.00  0.00     0.233 C 
ATOM     10  N4  <0> d          -2.460  -9.169  -1.640  0.00  0.00    -0.075 N 
ATOM     11  C16 <0> d          -1.042  -9.113  -1.264  0.00  0.00     0.233 C 
ATOM     12  C17 <0> d          -0.886  -8.305   0.027  0.00  0.00     0.039 C 
ATOM     13  H23 <0> d          -2.993  -9.561  -0.878  0.00  0.00     0.277 HD
ATOM     14  H37 <0> d          -2.567  -9.752  -2.456  0.00  0.00     0.277 HD
ENDROOT
BRANCH   1  15
ATOM     15  C4  <0> d          -0.373  -2.311  -0.749  0.00  0.00     0.123 A 
ATOM     16  C3  <0> d           0.023  -2.104   0.561  0.00  0.00     0.065 A 
ATOM     17  C2  <0> d           0.067  -0.717   0.719  0.00  0.00     0.053 A 
ATOM     18  C1  <0> d           0.445   0.021   1.978  0.00  0.00     0.072 C 
ATOM     19  N2  <0> d          -0.283  -0.172  -0.418  0.00  0.00    -0.176 NA
ATOM     20  N1  <0> d          -0.541  -1.071  -1.298  0.00  0.00    -0.255 N 
BRANCH  20  21
ATOM     21  C5  <0> d          -0.959  -0.808  -2.677  0.00  0.00     0.045 C 
ATOM     22  C6  <0> d          -2.278  -1.531  -2.957  0.00  0.00     0.040 C 
ATOM     23  C7  <0> d          -1.150   0.697  -2.873  0.00  0.00     0.040 C 
ATOM     24  C8  <0> d           0.116  -1.316  -3.641  0.00  0.00     0.040 C 
ENDBRANCH  20  21
ENDBRANCH   1  15
BRANCH   5  25
ATOM     25  C18 <0> d          -2.702  -5.583   1.519  0.00  0.00     0.224 C 
ATOM     26  O2  <0> d          -3.147  -4.567   1.030  0.00  0.00    -0.273 OA
ATOM     27  N5  <0> d          -3.426  -6.266   2.428  0.00  0.00    -0.352 N 
ATOM     28  H28 <0> d          -3.040  -7.035   2.877  0.00  0.00     0.162 HD
BRANCH  27  29
ATOM     29  C19 <0> d          -4.795  -5.848   2.738  0.00  0.00     0.225 C 
BRANCH  29  30
ATOM     30  C20 <0> d          -5.379  -6.771   3.776  0.00  0.00     0.236 C 
ATOM     31  O3  <0> d          -4.717  -7.687   4.215  0.00  0.00    -0.272 OA
ATOM     32  N6  <0> d          -6.638  -6.577   4.218  0.00  0.00    -0.359 N 
ATOM     33  C21 <0> d          -7.205  -7.474   5.228  0.00  0.00     0.152 C 
ATOM     34  C22 <0> d          -7.438  -5.471   3.688  0.00  0.00     0.152 C 
ENDBRANCH  29  30
ENDBRANCH  27  29
ENDBRANCH   5  25
TORSDOF 5
