REMARK  3 active torsions:
REMARK  status: ('A' for Active; 'I' for Inactive)
REMARK    1  A    between atoms: O1_2  and  C2_3 
REMARK    2  A    between atoms: C2_3  and  C3_4 
REMARK    3  A    between atoms: C3_4  and  N1_5 
ROOT
ATOM      1  N1  <0> d          -1.114   2.034   0.018  0.00  0.00    -0.286 N 
ATOM      2  C4  <0> d          -0.014   1.208   0.009  0.00  0.00     0.233 C 
ATOM      3  O2  <0> d           0.002  -0.004   0.002  0.00  0.00    -0.272 OA
ATOM      4  C5  <0> d           1.112   2.103   0.003  0.00  0.00     0.128 C 
ATOM      5  C6  <0> d           2.561   2.165  -0.238  0.00  0.00     0.239 C 
ATOM      6  C7  <0> d           3.390   1.492   0.876  0.00  0.00     0.038 C 
ATOM      7  C8  <0> d           3.283   2.470   2.064  0.00  0.00     0.032 C 
ATOM      8  C9  <0> d           2.919   3.827   1.440  0.00  0.00     0.275 C 
ATOM      9  N2  <0> d           2.803   3.644  -0.015  0.00  0.00     0.118 N 
ATOM     10  C10 <0> d           1.603   4.351  -0.520  0.00  0.00     0.281 A 
ATOM     11  C11 <0> d           0.565   3.294  -0.881  0.00  0.00     0.147 C 
ATOM     12  C12 <0> d          -0.789   3.344  -0.215  0.00  0.00     0.235 C 
ATOM     13  O3  <0> d          -1.446   4.327   0.052  0.00  0.00    -0.272 OA
ATOM     14  C13 <0> d           1.953   5.205  -1.709  0.00  0.00     0.019 A 
ATOM     15  C14 <0> d           2.462   4.923  -2.957  0.00  0.00     0.031 A 
ATOM     16  C15 <0> d           2.683   5.948  -3.862  0.00  0.00     0.011 A 
ATOM     17  C16 <0> d           2.393   7.254  -3.507  0.00  0.00     0.021 A 
ATOM     18  C17 <0> d           1.883   7.539  -2.258  0.00  0.00     0.031 A 
ATOM     19  C18 <0> d           1.657   6.513  -1.342  0.00  0.00     0.044 A 
ATOM     20  N3  <0> d           1.156   6.548  -0.039  0.00  0.00    -0.324 N 
ATOM     21  C19 <0> d           1.092   5.323   0.513  0.00  0.00     0.267 A 
ATOM     22  O4  <0> d           0.699   5.052   1.628  0.00  0.00    -0.270 OA
ATOM     23 Br1  <0> d           3.381   5.564  -5.577  0.00  0.00    -0.051 Br
ATOM     24  H20 <0> d           0.868   7.508   0.414  0.00  0.00     0.169 HD
ENDROOT
BRANCH   1  25
ATOM     25  C3  <0> d          -2.481   1.565   0.253  0.00  0.00     0.161 C 
BRANCH  25  26
ATOM     26  C2  <0> d          -2.787   1.615   1.752  0.00  0.00     0.187 C 
BRANCH  26  27
ATOM     27  O1  <0> d          -2.771   2.973   2.196  0.00  0.00    -0.394 OA
ATOM     28  C1  <0> d          -3.046   3.131   3.589  0.00  0.00     0.201 C 
ENDBRANCH  26  27
ENDBRANCH  25  26
ENDBRANCH   1  25
TORSDOF 3
