REMARK  5 active torsions:
REMARK  status: ('A' for Active; 'I' for Inactive)
REMARK    1  A    between atoms: N1_4  and  C7_9 
REMARK    2  A    between atoms: C7_9  and  C8_10 
REMARK       I    between atoms: C8_10  and  N2_12 
REMARK    3  A    between atoms: N2_12  and  C9_13 
REMARK    4  A    between atoms: C12_17  and  C13_18 
REMARK    5  A    between atoms: C13_18  and  O4_20 
ROOT
ATOM      1  C9  <0> d          -3.836  -6.182  -0.562  0.00  0.00     0.059 A 
ATOM      2  C10 <0> d          -4.842  -7.121  -0.703  0.00  0.00     0.037 A 
ATOM      3  C11 <0> d          -4.229  -8.440  -0.939  0.00  0.00     0.043 A 
ATOM      4  N3  <0> d          -2.915  -8.341  -0.947  0.00  0.00    -0.371 N 
ATOM      5  C12 <0> d          -2.538  -6.942  -0.722  0.00  0.00     0.233 A 
ATOM      6  C15 <0> d          -5.088  -9.555  -1.113  0.00  0.00     0.030 A 
ATOM      7  C16 <0> d          -6.433  -9.387  -1.059  0.00  0.00     0.004 A 
ATOM      8  C17 <0> d          -7.012  -8.136  -0.835  0.00  0.00     0.025 A 
ATOM      9  C18 <0> d          -6.255  -7.023  -0.659  0.00  0.00     0.048 A 
ATOM     10 Cl1  <0> d          -7.014  -5.486  -0.383  0.00  0.00    -0.083 Cl
ATOM     11  H23 <0> d          -2.297  -9.076  -1.083  0.00  0.00     0.161 HD
ENDROOT
BRANCH   1  12
ATOM     12  N2  <0> d          -3.984  -4.847  -0.333  0.00  0.00    -0.326 N 
ATOM     13  C8  <0> d          -2.913  -4.031  -0.389  0.00  0.00     0.250 C 
ATOM     14  O2  <0> d          -1.838  -4.465  -0.746  0.00  0.00    -0.271 OA
ATOM     15  H16 <0> d          -4.860  -4.484  -0.129  0.00  0.00     0.168 HD
BRANCH  13  16
ATOM     16  C7  <0> d          -3.050  -2.580  -0.007  0.00  0.00     0.375 C 
BRANCH  16  17
ATOM     17  N1  <0> d          -1.784  -1.882  -0.268  0.00  0.00     0.102 N 
ATOM     18  C3  <0> d          -1.984  -0.426  -0.312  0.00  0.00     0.304 C 
ATOM     19  C2  <0> d          -0.654   0.256  -0.645  0.00  0.00     0.146 C 
ATOM     20  C1  <0> d          -0.837   1.774  -0.613  0.00  0.00     0.041 C 
ATOM     21  O1  <0> d           0.329  -0.128   0.321  0.00  0.00    -0.378 OA
ATOM     22  C5  <0> d           0.548  -1.539   0.390  0.00  0.00     0.146 C 
ATOM     23  C4  <0> d          -0.769  -2.240   0.734  0.00  0.00     0.304 C 
ATOM     24  C6  <0> d           1.586  -1.843   1.472  0.00  0.00     0.041 C 
ENDBRANCH  16  17
ENDBRANCH  13  16
ENDBRANCH   1  12
BRANCH   5  25
ATOM     25  C13 <0> d          -1.710  -6.826   0.531  0.00  0.00     0.287 C 
ATOM     26  O3  <0> d          -1.697  -7.730   1.333  0.00  0.00    -0.262 OA
BRANCH  25  27
ATOM     27  O4  <0> d          -0.988  -5.718   0.758  0.00  0.00    -0.325 OA
ATOM     28  C14 <0> d          -0.227  -5.675   1.966  0.00  0.00     0.213 C 
ENDBRANCH  25  27
ENDBRANCH   5  25
TORSDOF 5
