REMARK  5 active torsions:
REMARK  status: ('A' for Active; 'I' for Inactive)
REMARK    1  A    between atoms: C2_2  and  C3_3 
REMARK    2  A    between atoms: C2_2  and  N1_6 
REMARK    3  A    between atoms: C6_10  and  N2_13 
REMARK    4  A    between atoms: C10_17  and  C11_18 
REMARK    5  A    between atoms: C14_21  and  O6_24 
ROOT
ATOM      1  N2  <0> d           3.510  -0.883   3.805  0.00  0.00    -0.284 N 
ATOM      2  C8  <0> d           4.515  -1.740   3.868  0.00  0.00     0.267 A 
ATOM      3  O5  <0> d           4.328  -2.935   4.009  0.00  0.00    -0.266 OA
ATOM      4  C9  <0> d           5.875  -1.175   3.759  0.00  0.00     0.076 A 
ATOM      5  C10 <0> d           7.078  -1.803   3.790  0.00  0.00     0.036 C 
ATOM      6  S1  <0> d           5.501   0.563   3.576  0.00  0.00    -0.055 SA
ATOM      7  C18 <0> d           3.721   0.439   3.643  0.00  0.00     0.149 A 
ATOM      8  S2  <0> d           2.563   1.695   3.533  0.00  0.00    -0.052 SA
ENDROOT
BRANCH   1   9
ATOM      9  C6  <0> d           2.136  -1.381   3.906  0.00  0.00     0.196 A 
ATOM     10  C5  <0> d           1.417  -0.748   5.114  0.00  0.00     0.139 A 
ATOM     11  C4  <0> d           0.261   0.001   4.486  0.00  0.00     0.229 A 
ATOM     12  N1  <0> d           0.299  -0.165   3.158  0.00  0.00    -0.272 N 
ATOM     13  O3  <0> d          -0.568   0.648   5.089  0.00  0.00    -0.273 OA
ATOM     14  C7  <0> d           1.309  -0.929   2.723  0.00  0.00     0.251 A 
ATOM     15  O4  <0> d           1.527  -1.211   1.564  0.00  0.00    -0.271 OA
BRANCH  12  16
ATOM     16  C2  <0> d          -0.687   0.435   2.255  0.00  0.00     0.192 C 
ATOM     17  C1  <0> d          -0.644   1.959   2.394  0.00  0.00     0.044 C 
BRANCH  16  18
ATOM     18  C3  <0> d          -2.063  -0.063   2.612  0.00  0.00     0.197 C 
ATOM     19  O1  <0> d          -2.917  -0.165   1.748  0.00  0.00    -0.646 OA
ATOM     20  O2  <0> d          -2.323  -0.365   3.764  0.00  0.00    -0.646 OA
ENDBRANCH  16  18
ENDBRANCH  12  16
ENDBRANCH   1   9
BRANCH   5  21
ATOM     21  C11 <0> d           8.316  -1.016   3.830  0.00  0.00    -0.035 A 
ATOM     22  C16 <0> d           9.543  -1.620   3.529  0.00  0.00     0.014 A 
ATOM     23  C15 <0> d          10.701  -0.875   3.561  0.00  0.00     0.037 A 
ATOM     24  C14 <0> d          10.655   0.471   3.904  0.00  0.00     0.068 A 
ATOM     25  C13 <0> d           9.440   1.075   4.210  0.00  0.00     0.037 A 
ATOM     26  C12 <0> d           8.276   0.341   4.175  0.00  0.00     0.014 A 
BRANCH  24  27
ATOM     27  O6  <0> d          11.800   1.200   3.940  0.00  0.00    -0.356 OA
ATOM     28  C17 <0> d          13.013   0.518   3.615  0.00  0.00     0.210 C 
ENDBRANCH  24  27
ENDBRANCH   5  21
TORSDOF 5
