REMARK  4 active torsions:
REMARK  status: ('A' for Active; 'I' for Inactive)
REMARK    1  A    between atoms: C6_6  and  N1_8 
REMARK       I    between atoms: N1_8  and  C8_9 
REMARK    2  A    between atoms: C8_9  and  C9_11 
REMARK    3  A    between atoms: C9_11  and  N3_30 
REMARK    4  A    between atoms: C13_15  and  C16_18 
ROOT
ATOM      1  C11 <0> d           2.218   4.340  -0.192  0.00  0.00     0.241 C 
ATOM      2  C12 <0> d           1.823   5.789  -0.488  0.00  0.00     0.067 C 
ATOM      3  C13 <0> d           0.840   6.267   0.545  0.00  0.00    -0.046 C 
ATOM      4  C14 <0> d           0.180   5.444   1.332  0.00  0.00     0.008 C 
ATOM      5  C15 <0> d           0.348   3.953   1.283  0.00  0.00     0.264 C 
ATOM      6  N3  <0> d           0.977   3.564   0.007  0.00  0.00    -0.055 N 
ATOM      7  H28 <0> d           0.328   3.767  -0.762  0.00  0.00     0.281 HD
ENDROOT
BRANCH   6   8
ATOM      8  C9  <0> d           1.279   2.114   0.012  0.00  0.00     0.276 C 
ATOM      9  C10 <0> d           2.092   1.746   1.255  0.00  0.00     0.050 C 
BRANCH   8  10
ATOM     10  C8  <0> d          -0.016   1.343   0.012  0.00  0.00     0.253 C 
ATOM     11  N1  <0> d           0.002  -0.004   0.002  0.00  0.00    -0.325 N 
ATOM     12  H9  <0> d           0.845  -0.477  -0.084  0.00  0.00     0.169 HD
ATOM     13  O1  <0> d          -1.074   1.936   0.016  0.00  0.00    -0.271 OA
BRANCH  11  14
ATOM     14  C6  <0> d          -1.194  -0.721   0.115  0.00  0.00     0.041 A 
ATOM     15  C5  <0> d          -1.282  -2.012  -0.387  0.00  0.00    -0.035 A 
ATOM     16  C4  <0> d          -2.465  -2.717  -0.273  0.00  0.00     0.009 A 
ATOM     17  C24 <0> d          -0.088  -2.645  -1.054  0.00  0.00     0.050 C 
ATOM     18  C3  <0> d          -3.560  -2.138   0.339  0.00  0.00     0.007 A 
ATOM     19  C2  <0> d          -3.476  -0.851   0.840  0.00  0.00    -0.060 A 
ATOM     20  C1  <0> d          -4.673  -0.224   1.507  0.00  0.00     0.048 C 
ATOM     21  C7  <0> d          -2.295  -0.143   0.735  0.00  0.00     0.037 A 
ENDBRANCH  11  14
ENDBRANCH   8  10
ENDBRANCH   6   8
BRANCH   3  22
ATOM     22  C16 <0> d           0.606   7.718   0.681  0.00  0.00    -0.002 A 
ATOM     23  C19 <0> d          -0.575   8.466   0.216  0.00  0.00     0.003 A 
ATOM     24  C18 <0> d          -0.347   9.807   0.566  0.00  0.00     0.043 A 
ATOM     25  C20 <0> d          -1.750   8.106  -0.442  0.00  0.00     0.014 A 
ATOM     26  N2  <0> d           0.878   9.867   1.195  0.00  0.00    -0.364 N 
ATOM     27  C23 <0> d          -1.303  10.767   0.251  0.00  0.00     0.030 A 
ATOM     28  C17 <0> d           1.434   8.622   1.264  0.00  0.00     0.101 A 
ATOM     29  H2  <0> d           1.285  10.676   1.542  0.00  0.00     0.165 HD
ATOM     30  C22 <0> d          -2.461  10.397  -0.398  0.00  0.00     0.002 A 
ATOM     31  C21 <0> d          -2.685   9.072  -0.744  0.00  0.00     0.001 A 
ENDBRANCH   3  22
TORSDOF 4
