REMARK  3 active torsions:
REMARK  status: ('A' for Active; 'I' for Inactive)
REMARK    1  A    between atoms: C4_6  and  C6_8 
REMARK       I    between atoms: C6_8  and  N2_10 
REMARK    2  A    between atoms: N2_10  and  C7_11 
REMARK    3  A    between atoms: C8_13  and  C10_16 
ROOT
ATOM      1  C7  <0> d           2.473  -4.170  -0.252  0.00  0.00     0.174 A 
ATOM      2  N3  <0> d           3.510  -4.979  -0.369  0.00  0.00    -0.223 NA
ATOM      3  C8  <0> d           3.353  -6.290  -0.467  0.00  0.00     0.076 A 
ATOM      4  C9  <0> d           2.092  -6.818  -0.445  0.00  0.00     0.085 A 
ATOM      5  S1  <0> d           1.114  -5.331  -0.269  0.00  0.00    -0.061 SA
ENDROOT
BRANCH   1   6
ATOM      6  N2  <0> d           2.446  -2.787  -0.139  0.00  0.00    -0.300 N 
ATOM      7  C6  <0> d           1.268  -2.143  -0.022  0.00  0.00     0.276 C 
ATOM      8  O2  <0> d           0.236  -2.778   0.079  0.00  0.00    -0.266 OA
ATOM      9  H5  <0> d           3.275  -2.284  -0.145  0.00  0.00     0.171 HD
BRANCH   7  10
ATOM     10  C4  <0> d           1.230  -0.665  -0.016  0.00  0.00     0.133 A 
ATOM     11  N1  <0> d           0.059  -0.035  -0.004  0.00  0.00    -0.195 N 
ATOM     12  C3  <0> d          -0.017   1.280   0.002  0.00  0.00     0.127 A 
ATOM     13  O1  <0> d          -1.135  -0.797   0.004  0.00  0.00    -0.081 OA
ATOM     14  C2  <0> d           1.128   2.058  -0.004  0.00  0.00     0.020 A 
ATOM     15  C1  <0> d           2.371   1.441  -0.017  0.00  0.00     0.004 A 
ATOM     16  C5  <0> d           2.422   0.058  -0.023  0.00  0.00     0.038 A 
ENDBRANCH   7  10
ENDBRANCH   1   6
BRANCH   3  17
ATOM     17  C10 <0> d           4.533  -7.178  -0.598  0.00  0.00    -0.005 A 
ATOM     18  C15 <0> d           5.817  -6.636  -0.619  0.00  0.00     0.040 A 
ATOM     19  C14 <0> d           6.913  -7.468  -0.735  0.00  0.00     0.073 A 
ATOM     20  C13 <0> d           6.737  -8.839  -0.843  0.00  0.00     0.138 A 
ATOM     21 Cl1  <0> d           8.514  -6.795  -0.753  0.00  0.00    -0.081 Cl
ATOM     22  C12 <0> d           5.463  -9.381  -0.828  0.00  0.00     0.045 A 
ATOM     23  F1  <0> d           7.812  -9.649  -0.962  0.00  0.00    -0.204 F 
ATOM     24  C11 <0> d           4.362  -8.558  -0.706  0.00  0.00     0.017 A 
ENDBRANCH   3  17
TORSDOF 3
