REMARK  2 active torsions:
REMARK  status: ('A' for Active; 'I' for Inactive)
REMARK    1  A    between atoms: C5_5  and  C12_16 
REMARK    2  A    between atoms: C6_6  and  N2_8 
ROOT
ATOM      1  C1  <0> d          -1.075  -3.362  -1.686  0.00  0.00     0.070 C 
ATOM      2  C2  <0> d          -0.504  -2.275  -0.813  0.00  0.00     0.033 A 
ATOM      3  C3  <0> d           0.627  -2.533  -0.058  0.00  0.00     0.028 A 
ATOM      4  C4  <0> d           1.151  -1.535   0.744  0.00  0.00     0.020 A 
ATOM      5  C5  <0> d           0.511  -0.290   0.761  0.00  0.00     0.049 A 
ATOM      6  C6  <0> d          -0.632  -0.107  -0.033  0.00  0.00     0.164 A 
ATOM      7  N1  <0> d          -1.089  -1.093  -0.786  0.00  0.00    -0.233 NA
ENDROOT
BRANCH   6   8
ATOM      8  N2  <0> d          -1.286   1.124  -0.032  0.00  0.00    -0.217 N 
ATOM      9  N3  <0> d          -2.250   1.546   0.894  0.00  0.00    -0.170 NA
ATOM     10  C9  <0> d          -2.629   2.755   0.569  0.00  0.00     0.070 A 
ATOM     11  C8  <0> d          -1.928   3.144  -0.579  0.00  0.00     0.061 A 
ATOM     12  C10 <0> d          -3.650   3.585   1.303  0.00  0.00     0.074 C 
ATOM     13  C7  <0> d          -1.108   2.127  -0.932  0.00  0.00     0.054 A 
ATOM     14 Br1  <0> d          -2.097   4.800  -1.477  0.00  0.00    -0.047 Br
ATOM     15  C11 <0> d          -0.168   2.110  -2.110  0.00  0.00     0.072 C 
ENDBRANCH   6   8
BRANCH   5  16
ATOM     16  C12 <0> d           1.027   0.808   1.598  0.00  0.00     0.108 C 
ATOM     17  S1  <0> d           0.143   2.268   1.735  0.00  0.00    -0.060 SA
ATOM     18  N4  <0> d           2.195   0.663   2.255  0.00  0.00    -0.389 N 
ATOM     19  H12 <0> d           2.695  -0.164   2.177  0.00  0.00     0.157 HD
ATOM     20  H13 <0> d           2.534   1.385   2.806  0.00  0.00     0.157 HD
ENDBRANCH   5  16
TORSDOF 2
