REMARK  6 active torsions:
REMARK  status: ('A' for Active; 'I' for Inactive)
REMARK    1  A    between atoms: C2_2  and  N1_3 
REMARK    2  A    between atoms: C3_4  and  C7_10 
REMARK       I    between atoms: C7_10  and  N3_12 
REMARK    3  A    between atoms: C9_14  and  C16_22 
REMARK       I    between atoms: C16_22  and  N5_24 
REMARK    4  A    between atoms: N5_24  and  C17_25 
REMARK    5  A    between atoms: C17_25  and  C18_26 
REMARK    6  A    between atoms: C18_26  and  S1_27 
ROOT
ATOM      1  C7  <0> d           3.243  -0.405   0.206  0.00  0.00     0.273 C 
ATOM      2  O1  <0> d           4.392  -0.720   0.455  0.00  0.00    -0.266 OA
ATOM      3  N3  <0> d           2.941   0.159  -0.981  0.00  0.00    -0.345 N 
ATOM      4  C8  <0> d           1.600   0.512  -1.503  0.00  0.00     0.141 C 
ATOM      5  C9  <0> d           1.805   1.864  -2.223  0.00  0.00     0.106 C 
ATOM      6  C10 <0> d           3.300   1.892  -2.586  0.00  0.00    -0.007 C 
ATOM      7  C11 <0> d           3.876   0.571  -2.055  0.00  0.00     0.136 C 
ATOM      8  C12 <0> d           3.986   3.072  -1.905  0.00  0.00     0.039 C 
ATOM      9  C13 <0> d           5.458   3.112  -2.327  0.00  0.00     0.233 C 
ATOM     10  N4  <0> d           5.548   3.243  -3.786  0.00  0.00    -0.075 N 
ATOM     11  C14 <0> d           4.967   2.060  -4.432  0.00  0.00     0.233 C 
ATOM     12  C15 <0> d           3.475   1.975  -4.099  0.00  0.00     0.039 C 
ATOM     13  H18 <0> d           5.044   4.066  -4.080  0.00  0.00     0.277 HD
ATOM     14  H29 <0> d           6.516   3.331  -4.056  0.00  0.00     0.277 HD
ENDROOT
BRANCH   1  15
ATOM     15  C3  <0> d           2.185  -0.640   1.199  0.00  0.00     0.140 A 
ATOM     16  N1  <0> d           1.660   0.273   2.071  0.00  0.00    -0.263 N 
ATOM     17  N2  <0> d           0.757  -0.288   2.792  0.00  0.00    -0.176 NA
ATOM     18  C5  <0> d           0.614  -1.547   2.467  0.00  0.00     0.070 A 
ATOM     19  C4  <0> d           1.519  -1.831   1.440  0.00  0.00     0.070 A 
ATOM     20  C6  <0> d          -0.350  -2.521   3.093  0.00  0.00     0.074 C 
ATOM     21 Br1  <0> d           1.779  -3.487   0.565  0.00  0.00    -0.046 Br
BRANCH  16  22
ATOM     22  C2  <0> d           2.069   1.677   2.171  0.00  0.00     0.147 C 
ATOM     23  C1  <0> d           3.284   1.789   3.093  0.00  0.00     0.028 C 
ENDBRANCH  16  22
ENDBRANCH   1  15
BRANCH   5  24
ATOM     24  C16 <0> d           0.959   1.928  -3.469  0.00  0.00     0.224 C 
ATOM     25  O2  <0> d           0.638   0.906  -4.037  0.00  0.00    -0.273 OA
ATOM     26  N5  <0> d           0.559   3.122  -3.950  0.00  0.00    -0.360 N 
ATOM     27  H23 <0> d           0.877   3.942  -3.540  0.00  0.00     0.162 HD
BRANCH  26  28
ATOM     28  C17 <0> d          -0.356   3.181  -5.093  0.00  0.00     0.132 C 
BRANCH  28  29
ATOM     29  C18 <0> d          -0.649   4.643  -5.436  0.00  0.00     0.090 C 
BRANCH  29  30
ATOM     30  S1  <0> d          -1.782   4.717  -6.851  0.00  0.00    -0.181 SA
ATOM     31  H28 <0> d          -1.962   6.034  -7.055  0.00  0.00     0.101 HD
ENDBRANCH  29  30
ENDBRANCH  28  29
ENDBRANCH  26  28
ENDBRANCH   5  24
TORSDOF 6
