REMARK  4 active torsions:
REMARK  status: ('A' for Active; 'I' for Inactive)
REMARK    1  A    between atoms: C6_6  and  O1_7 
REMARK    2  A    between atoms: C7_8  and  C9_12 
REMARK    3  A    between atoms: C9_12  and  C10_14 
REMARK    4  A    between atoms: C17_22  and  O3_28 
ROOT
ATOM      1  C10 <0> d          -0.967  -2.364  -0.001  0.00  0.00     0.135 A 
ATOM      2  C11 <0> d          -2.080  -3.216   0.010  0.00  0.00     0.077 A 
ATOM      3  C12 <0> d          -1.859  -4.606  -0.005  0.00  0.00     0.007 A 
ATOM      4  C13 <0> d          -0.549  -5.077  -0.020  0.00  0.00     0.034 A 
ATOM      5  C14 <0> d           0.491  -4.164  -0.025  0.00  0.00     0.118 A 
ATOM      6  N2  <0> d           0.261  -2.867  -0.016  0.00  0.00    -0.255 NA
ATOM      7  C15 <0> d          -3.186  -5.241   0.004  0.00  0.00     0.006 A 
ATOM      8  C16 <0> d          -3.619  -6.566  -0.000  0.00  0.00     0.051 A 
ATOM      9  C17 <0> d          -4.972  -6.846   0.011  0.00  0.00     0.066 A 
ATOM     10  C18 <0> d          -5.900  -5.811   0.025  0.00  0.00     0.039 A 
ATOM     11  C19 <0> d          -5.482  -4.498   0.028  0.00  0.00     0.033 A 
ATOM     12  C20 <0> d          -4.124  -4.197   0.018  0.00  0.00     0.044 A 
ATOM     13  N3  <0> d          -3.437  -2.993   0.019  0.00  0.00    -0.353 N 
ATOM     14  H2  <0> d          -3.854  -2.117   0.028  0.00  0.00     0.166 HD
ENDROOT
BRANCH   1  15
ATOM     15  C9  <0> d          -1.161  -0.898   0.008  0.00  0.00     0.215 C 
ATOM     16  O2  <0> d          -2.286  -0.434   0.021  0.00  0.00    -0.285 OA
BRANCH  15  17
ATOM     17  C7  <0> d           0.002  -0.004   0.002  0.00  0.00     0.044 A 
ATOM     18  C4  <0> d          -0.018   1.471   0.010  0.00  0.00     0.009 A 
ATOM     19  C3  <0> d           1.327   1.874  -0.001  0.00  0.00     0.043 A 
ATOM     20  C5  <0> d          -1.033   2.423   0.030  0.00  0.00     0.051 A 
ATOM     21  C2  <0> d           1.634   3.230   0.004  0.00  0.00     0.033 A 
ATOM     22  N1  <0> d           2.102   0.730  -0.014  0.00  0.00    -0.364 N 
ATOM     23  C1  <0> d           0.623   4.166   0.019  0.00  0.00     0.039 A 
ATOM     24  C6  <0> d          -0.710   3.767   0.029  0.00  0.00     0.066 A 
ATOM     25  C8  <0> d           1.318  -0.373  -0.013  0.00  0.00     0.104 A 
ATOM     26  H1  <0> d           3.072   0.719  -0.023  0.00  0.00     0.165 HD
BRANCH  24  27
ATOM     27  O1  <0> d          -1.697   4.702   0.045  0.00  0.00    -0.361 OA
ATOM     28  H6  <0> d          -1.991   4.978  -0.834  0.00  0.00     0.217 HD
ENDBRANCH  24  27
ENDBRANCH  15  17
ENDBRANCH   1  15
BRANCH   9  29
ATOM     29  O3  <0> d          -5.397  -8.138   0.008  0.00  0.00    -0.361 OA
ATOM     30  H13 <0> d          -5.512  -8.517   0.890  0.00  0.00     0.217 HD
ENDBRANCH   9  29
TORSDOF 4
