REMARK  6 active torsions:
REMARK  status: ('A' for Active; 'I' for Inactive)
REMARK    1  A    between atoms: C3_3  and  C7_9 
REMARK    2  A    between atoms: C9_11  and  C15_19 
REMARK    3  A    between atoms: C10_12  and  O2_17 
REMARK    4  A    between atoms: C11_13  and  O1_15 
REMARK    5  A    between atoms: C15_19  and  C16_20 
REMARK    6  A    between atoms: C16_20  and  N3_21 
ROOT
ATOM      1  C7  <0> d           1.827  -1.829  -0.025  0.00  0.00    -0.019 A 
ATOM      2  C8  <0> d           1.560  -2.648  -1.119  0.00  0.00     0.022 A 
ATOM      3  C9  <0> d           2.008  -3.954  -1.130  0.00  0.00    -0.019 A 
ATOM      4  C10 <0> d           2.723  -4.453  -0.052  0.00  0.00     0.107 A 
ATOM      5  C11 <0> d           2.992  -3.638   1.045  0.00  0.00     0.102 A 
ATOM      6  C12 <0> d           2.550  -2.327   1.057  0.00  0.00     0.052 A 
ENDROOT
BRANCH   1   7
ATOM      7  C3  <0> d           1.346  -0.423  -0.013  0.00  0.00     0.024 A 
ATOM      8  C2  <0> d           0.002  -0.004   0.002  0.00  0.00     0.064 A 
ATOM      9  C1  <0> d          -1.206  -0.905   0.008  0.00  0.00     0.073 C 
ATOM     10  N2  <0> d          -0.016   1.303   0.009  0.00  0.00    -0.177 NA
ATOM     11  N1  <0> d           1.306   1.765  -0.001  0.00  0.00    -0.278 N 
ATOM     12  C4  <0> d           2.127   0.695  -0.015  0.00  0.00     0.039 A 
ATOM     13  C5  <0> d           1.724   3.169   0.002  0.00  0.00     0.179 C 
ATOM     14  C6  <0> d           3.633   0.730  -0.029  0.00  0.00     0.071 C 
ENDBRANCH   1   7
BRANCH   5  15
ATOM     15  O1  <0> d           3.694  -4.129   2.101  0.00  0.00    -0.353 OA
ATOM     16  C13 <0> d           3.933  -3.237   3.192  0.00  0.00     0.210 C 
ENDBRANCH   5  15
BRANCH   3  17
ATOM     17  C15 <0> d           1.719  -4.839  -2.315  0.00  0.00     0.068 C 
BRANCH  17  18
ATOM     18  C16 <0> d           0.456  -5.658  -2.043  0.00  0.00     0.234 C 
BRANCH  18  19
ATOM     19  N3  <0> d           0.173  -6.521  -3.198  0.00  0.00    -0.079 N 
ATOM     20  H22 <0> d          -0.735  -7.110  -3.002  0.00  0.00     0.274 HD
ATOM     21  H23 <0> d           1.023  -7.200  -3.364  0.00  0.00     0.274 HD
ATOM     22  H24 <0> d           0.021  -5.898  -4.092  0.00  0.00     0.274 HD
ENDBRANCH  18  19
ENDBRANCH  17  18
ENDBRANCH   3  17
BRANCH   4  23
ATOM     23  O2  <0> d           3.163  -5.740  -0.066  0.00  0.00    -0.353 OA
ATOM     24  C14 <0> d           4.459  -5.977  -0.619  0.00  0.00     0.210 C 
ENDBRANCH   4  23
TORSDOF 6
