REMARK  9 active torsions:
REMARK  status: ('A' for Active; 'I' for Inactive)
REMARK    1  A    between atoms: C4_6  and  C5_7 
REMARK    2  A    between atoms: C5_7  and  C6_8 
REMARK    3  A    between atoms: C5_7  and  C18_24 
REMARK    4  A    between atoms: C5_7  and  O2_28 
REMARK    5  A    between atoms: C6_8  and  C7_9 
REMARK       I    between atoms: C7_9  and  N3_11 
REMARK    6  A    between atoms: N3_11  and  C8_12 
REMARK    7  A    between atoms: C8_12  and  C9_13 
REMARK    8  A    between atoms: C9_13  and  C10_14 
REMARK    9  A    between atoms: C10_14  and  N4_15 
ROOT
ATOM      1  C7  <0> d          -0.115  -0.671   5.134  0.00  0.00     0.221 C 
ATOM      2  O1  <0> d          -0.517   0.471   5.199  0.00  0.00    -0.274 OA
ATOM      3  N3  <0> d           0.113  -1.371   6.263  0.00  0.00    -0.361 N 
ATOM      4  H8  <0> d           0.434  -2.284   6.211  0.00  0.00     0.162 HD
ENDROOT
BRANCH   1   5
ATOM      5  C6  <0> d           0.131  -1.308   3.790  0.00  0.00     0.158 C 
BRANCH   5   6
ATOM      6  C5  <0> d          -0.139  -0.285   2.684  0.00  0.00     0.224 C 
BRANCH   6   7
ATOM      7  C4  <0> d           0.728   0.928   2.901  0.00  0.00     0.149 A 
ATOM      8  N1  <0> d           0.406   2.196   2.563  0.00  0.00    -0.345 N 
ATOM      9  C1  <0> d          -0.838   2.637   1.927  0.00  0.00     0.157 C 
ATOM     10  C2  <0> d           1.456   2.992   2.932  0.00  0.00     0.111 A 
ATOM     11  C3  <0> d           2.386   2.184   3.477  0.00  0.00     0.136 A 
ATOM     12  N2  <0> d           1.916   0.928   3.442  0.00  0.00    -0.242 NA
ENDBRANCH   6   7
BRANCH   6  13
ATOM     13  C18 <0> d           0.185  -0.908   1.325  0.00  0.00     0.426 C 
ATOM     14  F1  <0> d           1.517  -1.336   1.313  0.00  0.00    -0.167 F 
ATOM     15  F2  <0> d          -0.658  -2.001   1.099  0.00  0.00    -0.167 F 
ATOM     16  F3  <0> d          -0.007   0.045   0.318  0.00  0.00    -0.167 F 
ENDBRANCH   6  13
BRANCH   6  17
ATOM     17  O2  <0> d          -1.514   0.100   2.716  0.00  0.00    -0.374 OA
ATOM     18  H20 <0> d          -1.791   0.503   3.551  0.00  0.00     0.211 HD
ENDBRANCH   6  17
ENDBRANCH   5   6
ENDBRANCH   1   5
BRANCH   3  19
ATOM     19  C8  <0> d          -0.126  -0.751   7.569  0.00  0.00     0.124 C 
BRANCH  19  20
ATOM     20  C9  <0> d           0.208  -1.752   8.677  0.00  0.00     0.040 C 
BRANCH  20  21
ATOM     21  C10 <0> d          -0.041  -1.106  10.041  0.00  0.00     0.132 C 
BRANCH  21  22
ATOM     22  N4  <0> d           0.279  -2.064  11.101  0.00  0.00    -0.340 N 
ATOM     23  C13 <0> d           1.526  -2.299  11.644  0.00  0.00     0.064 A 
ATOM     24  C12 <0> d           1.344  -3.292  12.621  0.00  0.00     0.085 A 
ATOM     25  C14 <0> d           2.792  -1.777  11.417  0.00  0.00     0.032 A 
ATOM     26  N5  <0> d           0.024  -3.611  12.619  0.00  0.00    -0.242 NA
ATOM     27  C17 <0> d           2.443  -3.743  13.356  0.00  0.00     0.034 A 
ATOM     28  C11 <0> d          -0.598  -2.893  11.730  0.00  0.00     0.210 A 
ATOM     29  C16 <0> d           3.683  -3.223  13.115  0.00  0.00     0.002 A 
ATOM     30  C15 <0> d           3.863  -2.240  12.152  0.00  0.00     0.002 A 
ENDBRANCH  21  22
ENDBRANCH  20  21
ENDBRANCH  19  20
ENDBRANCH   3  19
TORSDOF 9
