REMARK  4 active torsions:
REMARK  status: ('A' for Active; 'I' for Inactive)
REMARK    1  A    between atoms: C2_2  and  C3_3 
REMARK    2  A    between atoms: C3_3  and  C4_4 
REMARK    3  A    between atoms: C4_4  and  C8_9 
REMARK    4  A    between atoms: C8_9  and  N2_10 
ROOT
ATOM      1  N2  <0> d           0.971  -2.305  -3.829  0.00  0.00    -0.070 N 
ATOM      2  C9  <0> d          -0.281  -3.058  -3.973  0.00  0.00     0.235 C 
ATOM      3  C10 <0> d          -0.963  -2.673  -5.287  0.00  0.00     0.037 C 
ATOM      4  C11 <0> d          -0.030  -3.002  -6.455  0.00  0.00    -0.037 C 
ATOM      5  C12 <0> d           0.219  -4.511  -6.501  0.00  0.00     0.010 C 
ATOM      6  C13 <0> d           1.154  -4.838  -7.666  0.00  0.00     0.001 C 
ATOM      7  C14 <0> d           0.511  -4.386  -8.979  0.00  0.00     0.000 C 
ATOM      8  C15 <0> d           0.263  -2.877  -8.933  0.00  0.00     0.001 C 
ATOM      9  C16 <0> d          -0.672  -2.549  -7.767  0.00  0.00     0.010 C 
ATOM     10  C17 <0> d           1.300  -2.271  -6.257  0.00  0.00     0.037 C 
ATOM     11  C18 <0> d           1.899  -2.671  -4.906  0.00  0.00     0.235 C 
ATOM     12  H36 <0> d           0.775  -1.317  -3.876  0.00  0.00     0.279 HD
ENDROOT
BRANCH   1  13
ATOM     13  C8  <0> d           1.583  -2.620  -2.531  0.00  0.00     0.246 C 
BRANCH  13  14
ATOM     14  C4  <0> d           2.800  -1.720  -2.309  0.00  0.00     0.009 C 
ATOM     15  C7  <0> d           3.996  -2.225  -3.137  0.00  0.00     0.243 C 
ATOM     16  N1  <0> d           5.083  -2.538  -2.183  0.00  0.00    -0.074 N 
ATOM     17  C6  <0> d           4.413  -2.836  -0.891  0.00  0.00     0.233 C 
ATOM     18  H12 <0> d           5.696  -1.743  -2.082  0.00  0.00     0.277 HD
ATOM     19  H35 <0> d           5.603  -3.342  -2.499  0.00  0.00     0.277 HD
ATOM     20  C5  <0> d           3.266  -1.796  -0.837  0.00  0.00     0.040 C 
BRANCH  14  21
ATOM     21  C3  <0> d           2.467  -0.275  -2.687  0.00  0.00     0.012 C 
BRANCH  21  22
ATOM     22  C2  <0> d           1.293   0.216  -1.837  0.00  0.00    -0.004 C 
ATOM     23  C1  <0> d           1.035   1.696  -2.129  0.00  0.00     0.005 C 
ENDBRANCH  21  22
ENDBRANCH  14  21
ENDBRANCH  13  14
ENDBRANCH   1  13
TORSDOF 4
