REMARK  6 active torsions:
REMARK  status: ('A' for Active; 'I' for Inactive)
REMARK    1  A    between atoms: C2_2  and  C3_3 
REMARK    2  A    between atoms: C2_2  and  C12_16 
REMARK    3  A    between atoms: C2_2  and  N3_19 
REMARK    4  A    between atoms: C3_3  and  C4_4 
REMARK    5  A    between atoms: C4_4  and  S1_5 
REMARK    6  A    between atoms: S1_5  and  C5_6 
ROOT
ATOM      1  C4  <0> d           2.147  -0.118   1.266  0.00  0.00     0.085 C 
ENDROOT
BRANCH   1   2
ATOM      2  C3  <0> d           0.690  -0.588   1.246  0.00  0.00     0.060 C 
BRANCH   2   3
ATOM      3  C2  <0> d          -0.009  -0.027   0.006  0.00  0.00     0.209 C 
ATOM      4  C1  <0> d           0.034   1.502   0.044  0.00  0.00     0.058 C 
BRANCH   3   5
ATOM      5  C12 <0> d           0.694  -0.520  -1.232  0.00  0.00     0.210 C 
ATOM      6  O1  <0> d           1.829  -0.147  -1.478  0.00  0.00    -0.646 OA
ATOM      7  O2  <0> d           0.128  -1.290  -1.989  0.00  0.00    -0.646 OA
ENDBRANCH   3   5
BRANCH   3   8
ATOM      8  N3  <0> d          -1.407  -0.478  -0.013  0.00  0.00    -0.060 N 
ATOM      9  C13 <0> d          -2.123   0.098   1.134  0.00  0.00     0.268 C 
ATOM     10  H13 <0> d          -1.846  -0.176  -0.869  0.00  0.00     0.278 HD
ATOM     11  H17 <0> d          -1.437  -1.485   0.044  0.00  0.00     0.278 HD
ENDBRANCH   3   8
ENDBRANCH   2   3
ENDBRANCH   1   2
BRANCH   1  12
ATOM     12  S1  <0> d           2.976  -0.782   2.736  0.00  0.00    -0.092 SA
BRANCH  12  13
ATOM     13  C5  <0> d           4.620  -0.161   2.615  0.00  0.00     0.167 A 
ATOM     14  N2  <0> d           5.068   0.603   1.649  0.00  0.00    -0.223 NA
ATOM     15  C11 <0> d           6.375   0.899   1.870  0.00  0.00     0.086 A 
ATOM     16  C6  <0> d           6.750   0.255   3.060  0.00  0.00     0.063 A 
ATOM     17  C10 <0> d           7.317   1.661   1.173  0.00  0.00     0.034 A 
ATOM     18  N1  <0> d           5.621  -0.409   3.512  0.00  0.00    -0.333 N 
ATOM     19  C7  <0> d           8.047   0.378   3.535  0.00  0.00     0.032 A 
ATOM     20  H1  <0> d           5.554  -0.949   4.314  0.00  0.00     0.168 HD
ATOM     21  C8  <0> d           8.966   1.133   2.835  0.00  0.00     0.002 A 
ATOM     22  C9  <0> d           8.601   1.772   1.659  0.00  0.00     0.002 A 
ENDBRANCH  12  13
ENDBRANCH   1  12
TORSDOF 6
