REMARK  6 active torsions:
REMARK  status: ('A' for Active; 'I' for Inactive)
REMARK    1  A    between atoms: O1_2  and  C2_3 
REMARK    2  A    between atoms: C5_6  and  C9_11 
REMARK    3  A    between atoms: C7_8  and  O2_9 
REMARK    4  A    between atoms: C9_11  and  N1_12 
REMARK    5  A    between atoms: N1_12  and  N2_13 
REMARK    6  A    between atoms: C10_14  and  C12_19 
ROOT
ATOM      1  N2  <0> d           3.669  -2.450   6.359  0.00  0.00    -0.210 N 
ATOM      2  C10 <0> d           4.222  -1.813   7.569  0.00  0.00     0.304 A 
ATOM      3  N3  <0> d           4.651  -2.948   8.400  0.00  0.00    -0.181 NA
ATOM      4  N4  <0> d           4.395  -3.989   7.789  0.00  0.00    -0.254 N 
ATOM      5  C11 <0> d           3.810  -3.776   6.580  0.00  0.00     0.213 A 
ATOM      6  S1  <0> d           3.325  -5.008   5.495  0.00  0.00    -0.037 SA
ATOM      7  H16 <0> d           4.589  -4.873   8.139  0.00  0.00     0.191 HD
ENDROOT
BRANCH   1   8
ATOM      8  N1  <0> d           3.117  -1.822   5.235  0.00  0.00    -0.179 NA
BRANCH   8   9
ATOM      9  C9  <0> d           2.769  -2.528   4.202  0.00  0.00     0.150 C 
BRANCH   9  10
ATOM     10  C5  <0> d           2.093  -1.883   3.062  0.00  0.00    -0.014 A 
ATOM     11  C4  <0> d           1.825  -0.512   3.091  0.00  0.00     0.016 A 
ATOM     12  C3  <0> d           1.193   0.090   2.024  0.00  0.00     0.040 A 
ATOM     13  C2  <0> d           0.822  -0.663   0.919  0.00  0.00     0.101 A 
ATOM     14  C7  <0> d           1.081  -2.032   0.885  0.00  0.00     0.102 A 
ATOM     15  C6  <0> d           1.719  -2.641   1.949  0.00  0.00     0.052 A 
BRANCH  13  16
ATOM     16  O1  <0> d           0.199  -0.065  -0.131  0.00  0.00    -0.353 OA
ATOM     17  C1  <0> d          -0.036   1.341  -0.030  0.00  0.00     0.210 C 
ENDBRANCH  13  16
BRANCH  14  18
ATOM     18  O2  <0> d           0.710  -2.767  -0.197  0.00  0.00    -0.353 OA
ATOM     19  C8  <0> d           1.006  -4.165  -0.164  0.00  0.00     0.210 C 
ENDBRANCH  14  18
ENDBRANCH   9  10
ENDBRANCH   8   9
ENDBRANCH   1   8
BRANCH   2  20
ATOM     20  C12 <0> d           5.397  -0.937   7.216  0.00  0.00     0.057 A 
ATOM     21  N5  <0> d           6.365  -0.762   8.093  0.00  0.00    -0.366 N 
ATOM     22  C16 <0> d           7.415  -0.009   7.826  0.00  0.00     0.088 A 
ATOM     23  H17 <0> d           6.306  -1.201   8.956  0.00  0.00     0.165 HD
ATOM     24  C15 <0> d           7.530   0.637   6.610  0.00  0.00     0.017 A 
ATOM     25  C14 <0> d           6.528   0.481   5.664  0.00  0.00     0.003 A 
ATOM     26  C13 <0> d           5.443  -0.323   5.979  0.00  0.00     0.029 A 
ENDBRANCH   2  20
TORSDOF 6
