REMARK  8 active torsions:
REMARK  status: ('A' for Active; 'I' for Inactive)
REMARK    1  A    between atoms: C2_2  and  C4_4 
REMARK    2  A    between atoms: C4_4  and  N1_5 
REMARK    3  A    between atoms: N1_5  and  C5_6 
REMARK    4  A    between atoms: N1_5  and  C14_18 
REMARK    5  A    between atoms: C5_6  and  C6_7 
REMARK    6  A    between atoms: C5_6  and  C7_9 
REMARK    7  A    between atoms: C6_7  and  N2_8 
REMARK    8  A    between atoms: C10_12  and  O1_16 
ROOT
ATOM      1  C5  <0> d          -2.601  -1.343   0.638  0.00  0.00     0.246 C 
ENDROOT
BRANCH   1   2
ATOM      2  N1  <0> d          -1.418  -1.941   1.271  0.00  0.00    -0.057 N 
ATOM      3  H28 <0> d          -1.028  -2.643   0.659  0.00  0.00     0.281 HD
BRANCH   2   4
ATOM      4  C4  <0> d          -0.415  -0.897   1.520  0.00  0.00     0.240 C 
BRANCH   4   5
ATOM      5  C2  <0> d           0.983  -1.519   1.503  0.00  0.00     0.003 C 
ATOM      6  C1  <0> d           2.031  -0.424   1.719  0.00  0.00     0.011 C 
ATOM      7  C3  <0> d           1.093  -2.558   2.620  0.00  0.00     0.011 C 
ENDBRANCH   4   5
ENDBRANCH   2   4
BRANCH   2   8
ATOM      8  C14 <0> d          -1.805  -2.562   2.545  0.00  0.00     0.181 C 
ATOM      9  C15 <0> d          -2.347  -1.489   3.491  0.00  0.00     0.040 C 
ATOM     10  C16 <0> d          -2.887  -3.613   2.292  0.00  0.00     0.040 C 
ENDBRANCH   2   8
ENDBRANCH   1   2
BRANCH   1  11
ATOM     11  C6  <0> d          -2.203  -0.723  -0.703  0.00  0.00     0.267 C 
BRANCH  11  12
ATOM     12  N2  <0> d          -1.565  -1.743  -1.544  0.00  0.00    -0.077 N 
ATOM     13  H13 <0> d          -0.781  -2.144  -1.051  0.00  0.00     0.274 HD
ATOM     14  H14 <0> d          -2.233  -2.469  -1.759  0.00  0.00     0.274 HD
ATOM     15  H29 <0> d          -1.242  -1.319  -2.401  0.00  0.00     0.274 HD
ENDBRANCH  11  12
ENDBRANCH   1  11
BRANCH   1  16
ATOM     16  C7  <0> d          -3.165  -0.274   1.538  0.00  0.00    -0.024 A 
ATOM     17  C12 <0> d          -4.438  -0.412   2.061  0.00  0.00     0.031 A 
ATOM     18  C11 <0> d          -4.955   0.564   2.891  0.00  0.00     0.044 A 
ATOM     19  C10 <0> d          -4.200   1.689   3.192  0.00  0.00     0.085 A 
ATOM     20 Br1  <0> d          -6.693   0.370   3.612  0.00  0.00    -0.048 Br
ATOM     21  C9  <0> d          -2.925   1.828   2.662  0.00  0.00     0.039 A 
ATOM     22  C8  <0> d          -2.411   0.847   1.836  0.00  0.00     0.012 A 
BRANCH  19  23
ATOM     23  O1  <0> d          -4.708   2.653   4.004  0.00  0.00    -0.355 OA
ATOM     24  C13 <0> d          -3.874   3.783   4.270  0.00  0.00     0.210 C 
ENDBRANCH  19  23
ENDBRANCH   1  16
TORSDOF 8
