REMARK  7 active torsions:
REMARK  status: ('A' for Active; 'I' for Inactive)
REMARK    1  A    between atoms: C6_7  and  O5_32 
REMARK    2  A    between atoms: C8_9  and  O3_13 
REMARK    3  A    between atoms: O3_13  and  C11_14 
REMARK    4  A    between atoms: C11_14  and  C12_15 
REMARK       I    between atoms: C12_15  and  N1_17 
REMARK    5  A    between atoms: N1_17  and  C13_18 
REMARK    6  A    between atoms: C13_18  and  C14_19 
REMARK    7  A    between atoms: C14_19  and  N2_25 
ROOT
ATOM      1  C12 <0> d           6.462   0.141   5.315  0.00  0.00     0.241 C 
ATOM      2  O4  <0> d           5.669  -0.076   6.207  0.00  0.00    -0.271 OA
ATOM      3  N1  <0> d           7.764   0.338   5.604  0.00  0.00    -0.357 N 
ATOM      4  H10 <0> d           8.398   0.512   4.891  0.00  0.00     0.162 HD
ENDROOT
BRANCH   1   5
ATOM      5  C11 <0> d           5.992   0.192   3.884  0.00  0.00     0.278 C 
BRANCH   5   6
ATOM      6  O3  <0> d           4.584  -0.045   3.837  0.00  0.00    -0.342 OA
BRANCH   6   7
ATOM      7  C8  <0> d           3.998  -0.033   2.613  0.00  0.00     0.074 A 
ATOM      8  C7  <0> d           4.771   0.203   1.483  0.00  0.00     0.074 A 
ATOM      9  C6  <0> d           4.182   0.221   0.232  0.00  0.00     0.085 A 
ATOM     10  C5  <0> d           2.800   0.001   0.115  0.00  0.00     0.076 A 
ATOM     11  C4  <0> d           2.147   0.026  -1.199  0.00  0.00     0.168 C 
ATOM     12  C10 <0> d           2.022  -0.246   1.261  0.00  0.00     0.089 A 
ATOM     13  C3  <0> d           0.724  -0.500  -1.260  0.00  0.00     0.122 C 
ATOM     14  O1  <0> d           2.715   0.445  -2.186  0.00  0.00    -0.292 OA
ATOM     15  C2  <0> d           0.002  -0.004   0.002  0.00  0.00     0.067 C 
ATOM     16  C1  <0> d          -0.019   1.526   0.010  0.00  0.00     0.046 C 
ATOM     17  O2  <0> d           0.692  -0.477   1.158  0.00  0.00    -0.339 OA
ATOM     18  C25 <0> d          -1.433  -0.534   0.011  0.00  0.00     0.046 C 
ATOM     19  C9  <0> d           2.632  -0.257   2.503  0.00  0.00     0.074 A 
BRANCH   9  20
ATOM     20  O5  <0> d           4.933   0.449  -0.874  0.00  0.00    -0.360 OA
ATOM     21  H34 <0> d           5.006   1.383  -1.114  0.00  0.00     0.217 HD
ENDBRANCH   9  20
ENDBRANCH   6   7
ENDBRANCH   5   6
ENDBRANCH   1   5
BRANCH   3  22
ATOM     22  C13 <0> d           8.221   0.288   6.995  0.00  0.00     0.164 C 
BRANCH  22  23
ATOM     23  C14 <0> d           9.729   0.542   7.046  0.00  0.00     0.175 C 
ATOM     24  C19 <0> d          10.454  -0.532   6.232  0.00  0.00     0.043 C 
ATOM     25  C18 <0> d          10.149  -1.911   6.821  0.00  0.00     0.003 C 
ATOM     26  C17 <0> d          10.626  -1.963   8.273  0.00  0.00     0.000 C 
ATOM     27  C16 <0> d           9.901  -0.889   9.087  0.00  0.00     0.003 C 
ATOM     28  C15 <0> d          10.206   0.490   8.499  0.00  0.00     0.043 C 
BRANCH  23  29
ATOM     29  N2  <0> d          10.022   1.866   6.481  0.00  0.00     0.103 N 
ATOM     30  C23 <0> d           9.341   2.924   7.239  0.00  0.00     0.301 C 
ATOM     31  C22 <0> d           9.623   4.279   6.584  0.00  0.00     0.264 C 
ATOM     32  N3  <0> d          11.071   4.521   6.566  0.00  0.00    -0.072 N 
ATOM     33  C21 <0> d          11.736   3.469   5.785  0.00  0.00     0.264 C 
ATOM     34  C24 <0> d          11.341   5.829   5.953  0.00  0.00     0.269 C 
ATOM     35  H38 <0> d          11.426   4.513   7.510  0.00  0.00     0.279 HD
ATOM     36  C20 <0> d          11.471   2.108   6.432  0.00  0.00     0.301 C 
ENDBRANCH  23  29
ENDBRANCH  22  23
ENDBRANCH   3  22
TORSDOF 7
