REMARK  4 active torsions:
REMARK  status: ('A' for Active; 'I' for Inactive)
REMARK    1  A    between atoms: C2_2  and  N1_3 
REMARK       I    between atoms: N2_6  and  C7_9 
REMARK    2  A    between atoms: C7_9  and  C8_11 
REMARK    3  A    between atoms: N4_20  and  C16_23 
REMARK    4  A    between atoms: C16_23  and  C17_24 
ROOT
ATOM      1  C8  <0> d          -1.183   3.618   0.139  0.00  0.00     0.034 A 
ATOM      2  C9  <0> d           0.029   4.316   0.137  0.00  0.00     0.018 A 
ATOM      3  C10 <0> d           0.040   5.689   0.248  0.00  0.00     0.020 A 
ATOM      4  C11 <0> d          -1.163   6.382   0.362  0.00  0.00     0.061 A 
ATOM      5  C12 <0> d          -2.384   5.686   0.365  0.00  0.00     0.076 A 
ATOM      6  C13 <0> d          -2.390   4.306   0.248  0.00  0.00     0.050 A 
ATOM      7  N3  <0> d          -3.564   6.408   0.481  0.00  0.00    -0.220 NA
ATOM      8  C14 <0> d          -3.540   7.748   0.588  0.00  0.00     0.203 A 
ATOM      9  S1  <0> d          -5.027   8.584   0.728  0.00  0.00    -0.038 SA
ATOM     10  N4  <0> d          -2.401   8.458   0.590  0.00  0.00    -0.286 N 
ATOM     11  C15 <0> d          -1.198   7.853   0.483  0.00  0.00     0.262 A 
ATOM     12  O2  <0> d          -0.171   8.504   0.486  0.00  0.00    -0.267 OA
ENDROOT
BRANCH   1  13
ATOM     13  C7  <0> d          -1.184   2.143   0.019  0.00  0.00     0.254 C 
ATOM     14  N2  <0> d          -0.386   1.401   0.814  0.00  0.00    -0.345 N 
ATOM     15  C4  <0> d          -0.432  -0.068   0.770  0.00  0.00     0.154 C 
ATOM     16  C5  <0> d           0.557   2.041   1.743  0.00  0.00     0.154 C 
ATOM     17  C3  <0> d          -0.593  -0.593   2.200  0.00  0.00     0.254 C 
ATOM     18  N1  <0> d           0.466  -0.030   3.048  0.00  0.00    -0.068 N 
ATOM     19  C6  <0> d           0.357   1.433   3.135  0.00  0.00     0.254 C 
ATOM     20  H26 <0> d           1.432  -0.266   2.577  0.00  0.00     0.280 HD
ATOM     21  O1  <0> d          -1.904   1.599  -0.795  0.00  0.00    -0.267 OA
BRANCH  18  22
ATOM     22  C2  <0> d           0.451  -0.640   4.384  0.00  0.00     0.230 C 
ATOM     23  C1  <0> d           1.706  -0.219   5.151  0.00  0.00     0.034 C 
ENDBRANCH  18  22
ENDBRANCH   1  13
BRANCH  10  24
ATOM     24  C16 <0> d          -2.465   9.916   0.711  0.00  0.00     0.166 C 
BRANCH  24  25
ATOM     25  C17 <0> d          -2.556  10.540  -0.683  0.00  0.00     0.140 C 
ATOM     26  O3  <0> d          -3.804  10.190  -1.291  0.00  0.00    -0.384 OA
ATOM     27  C20 <0> d          -4.577  11.374  -1.543  0.00  0.00     0.168 C 
ATOM     28  C19 <0> d          -3.539  12.520  -1.645  0.00  0.00     0.029 C 
ATOM     29  C18 <0> d          -2.507  12.079  -0.572  0.00  0.00     0.035 C 
ENDBRANCH  24  25
ENDBRANCH  10  24
TORSDOF 4
