REMARK  7 active torsions:
REMARK  status: ('A' for Active; 'I' for Inactive)
REMARK    1  A    between atoms: O1_2  and  C2_3 
REMARK    2  A    between atoms: C4_5  and  C10_13 
REMARK    3  A    between atoms: C6_7  and  O3_11 
REMARK    4  A    between atoms: C7_8  and  O2_9 
REMARK    5  A    between atoms: C10_13  and  N1_14 
REMARK       I    between atoms: N1_14  and  C11_15 
REMARK    6  A    between atoms: C11_15  and  C12_17 
REMARK       I    between atoms: C12_17  and  N2_19 
REMARK    7  A    between atoms: N2_19  and  C13_20 
ROOT
ATOM      1  N1  <0> d          -5.285   0.541  -1.339  0.00  0.00    -0.349 N 
ATOM      2  C11 <0> d          -6.408   1.249  -1.576  0.00  0.00     0.309 C 
ATOM      3  O4  <0> d          -7.063   1.676  -0.648  0.00  0.00    -0.262 OA
ATOM      4  H14 <0> d          -4.761   0.200  -2.080  0.00  0.00     0.163 HD
ENDROOT
BRANCH   2   5
ATOM      5  C12 <0> d          -6.845   1.507  -2.980  0.00  0.00     0.314 C 
ATOM      6  O5  <0> d          -6.189   1.080  -3.908  0.00  0.00    -0.262 OA
ATOM      7  N2  <0> d          -7.967   2.214  -3.217  0.00  0.00    -0.317 N 
ATOM      8  H15 <0> d          -8.534   2.487  -2.479  0.00  0.00     0.169 HD
BRANCH   7   9
ATOM      9  C13 <0> d          -8.314   2.554  -4.524  0.00  0.00     0.065 A 
ATOM     10  C18 <0> d          -9.663   2.800  -4.862  0.00  0.00     0.093 A 
ATOM     11  C17 <0> d          -9.986   3.150  -6.196  0.00  0.00    -0.005 A 
ATOM     12  N3  <0> d         -10.630   2.714  -3.944  0.00  0.00    -0.258 NA
ATOM     13  C16 <0> d          -8.968   3.235  -7.159  0.00  0.00     0.014 A 
ATOM     14  C21 <0> d         -11.331   3.401  -6.528  0.00  0.00     0.015 A 
ATOM     15  C15 <0> d          -7.676   2.986  -6.807  0.00  0.00     0.003 A 
ATOM     16  C14 <0> d          -7.343   2.647  -5.499  0.00  0.00     0.032 A 
ATOM     17  C20 <0> d         -12.271   3.284  -5.544  0.00  0.00     0.020 A 
ATOM     18  C19 <0> d         -11.884   2.942  -4.251  0.00  0.00     0.117 A 
ENDBRANCH   7   9
ENDBRANCH   2   5
BRANCH   1  19
ATOM     19  C10 <0> d          -4.856   0.288   0.039  0.00  0.00     0.161 C 
BRANCH  19  20
ATOM     20  C4  <0> d          -3.583  -0.518   0.028  0.00  0.00    -0.035 A 
ATOM     21  C3  <0> d          -2.360   0.126   0.010  0.00  0.00     0.048 A 
ATOM     22  C2  <0> d          -1.186  -0.612   0.001  0.00  0.00     0.104 A 
ATOM     23  C7  <0> d          -1.240  -2.001   0.004  0.00  0.00     0.135 A 
ATOM     24  C6  <0> d          -2.472  -2.644   0.028  0.00  0.00     0.104 A 
ATOM     25  C5  <0> d          -3.641  -1.899   0.037  0.00  0.00     0.048 A 
BRANCH  22  26
ATOM     26  O1  <0> d           0.017   0.022  -0.017  0.00  0.00    -0.353 OA
ATOM     27  C1  <0> d          -0.003   1.451  -0.019  0.00  0.00     0.210 C 
ENDBRANCH  22  26
BRANCH  23  28
ATOM     28  O2  <0> d          -0.091  -2.729  -0.010  0.00  0.00    -0.351 OA
ATOM     29  C8  <0> d           0.475  -3.074   1.256  0.00  0.00     0.210 C 
ENDBRANCH  23  28
BRANCH  24  30
ATOM     30  O3  <0> d          -2.531  -4.003   0.037  0.00  0.00    -0.353 OA
ATOM     31  C9  <0> d          -3.830  -4.596   0.057  0.00  0.00     0.210 C 
ENDBRANCH  24  30
ENDBRANCH  19  20
ENDBRANCH   1  19
TORSDOF 7
