REMARK  2 active torsions:
REMARK  status: ('A' for Active; 'I' for Inactive)
REMARK    1  A    between atoms: C5_7  and  N3_11 
REMARK    2  A    between atoms: N3_11  and  C9_12 
ROOT
ATOM      1  N3  <0> d           1.021  -4.259  -1.117  0.00  0.00     0.099 N 
ATOM      2  H14 <0> d           1.341  -4.849  -1.871  0.00  0.00     0.317 HD
ENDROOT
BRANCH   1   3
ATOM      3  C5  <0> d           0.046  -3.271  -1.599  0.00  0.00     0.257 C 
ATOM      4  C3  <0> d           0.772  -2.097  -2.208  0.00  0.00     0.018 A 
ATOM      5  C2  <0> d           0.412  -1.502  -3.374  0.00  0.00     0.040 A 
ATOM      6  C4  <0> d           1.894  -1.435  -1.715  0.00  0.00     0.150 A 
ATOM      7  N1  <0> d           1.278  -0.502  -3.610  0.00  0.00    -0.278 N 
ATOM      8  C8  <0> d          -0.764  -1.931  -4.215  0.00  0.00     0.059 C 
ATOM      9  C1  <0> d           1.260   0.400  -4.764  0.00  0.00     0.179 C 
ATOM     10  N2  <0> d           2.204  -0.479  -2.557  0.00  0.00    -0.184 NA
ATOM     11  C7  <0> d          -1.677  -2.814  -3.356  0.00  0.00     0.008 C 
ATOM     12  C6  <0> d          -0.842  -3.904  -2.677  0.00  0.00     0.041 C 
ENDBRANCH   1   3
BRANCH   1  13
ATOM     13  C9  <0> d           0.460  -5.061  -0.022  0.00  0.00     0.253 C 
ATOM     14  C12 <0> d           1.269  -6.348   0.170  0.00  0.00     0.221 C 
ATOM     15  N4  <0> d           2.310  -5.960   1.165  0.00  0.00    -0.065 N 
ATOM     16  C13 <0> d           1.984  -6.830  -1.084  0.00  0.00     0.035 C 
ATOM     17  C11 <0> d           1.554  -5.205   2.177  0.00  0.00     0.237 C 
ATOM     18  C16 <0> d           2.946  -7.179   1.646  0.00  0.00     0.235 C 
ATOM     19  H27 <0> d           2.997  -5.361   0.734  0.00  0.00     0.280 HD
ATOM     20  C10 <0> d           0.606  -4.315   1.329  0.00  0.00     0.065 C 
ATOM     21  C15 <0> d           3.714  -7.807   0.465  0.00  0.00     0.028 C 
ATOM     22  C14 <0> d           2.775  -8.092  -0.707  0.00  0.00     0.004 C 
ENDBRANCH   1  13
TORSDOF 2
