REMARK  7 active torsions:
REMARK  status: ('A' for Active; 'I' for Inactive)
REMARK    1  A    between atoms: C5_5  and  N1_8 
REMARK    2  A    between atoms: N1_8  and  C8_9 
REMARK    3  A    between atoms: N2_11  and  C9_12 
REMARK    4  A    between atoms: N2_11  and  C15_19 
REMARK    5  A    between atoms: C9_12  and  C10_13 
REMARK    6  A    between atoms: C10_13  and  N4_35 
REMARK    7  A    between atoms: C15_19  and  C16_20 
ROOT
ATOM      1  C8  <0> d           0.255   4.603   2.069  0.00  0.00     0.174 C 
ATOM      2  S1  <0> d          -1.275   4.650   1.302  0.00  0.00    -0.041 SA
ATOM      3  N2  <0> d           1.368   4.385   1.340  0.00  0.00    -0.352 N 
ENDROOT
BRANCH   3   4
ATOM      4  C9  <0> d           2.677   4.345   1.996  0.00  0.00     0.153 C 
BRANCH   4   5
ATOM      5  C10 <0> d           3.278   5.752   2.022  0.00  0.00     0.254 C 
BRANCH   5   6
ATOM      6  N4  <0> d           4.607   5.692   2.669  0.00  0.00    -0.066 N 
ATOM      7  C11 <0> d           4.457   5.369   4.103  0.00  0.00     0.261 C 
ATOM      8  C12 <0> d           5.848   5.279   4.735  0.00  0.00     0.195 C 
ATOM      9  O1  <0> d           6.536   6.518   4.538  0.00  0.00    -0.388 OA
ATOM     10  C13 <0> d           6.686   6.881   3.163  0.00  0.00     0.195 C 
ATOM     11  C14 <0> d           5.302   6.987   2.516  0.00  0.00     0.261 C 
ATOM     12  H33 <0> d           5.165   4.957   2.218  0.00  0.00     0.280 HD
ENDBRANCH   5   6
ENDBRANCH   4   5
ENDBRANCH   3   4
BRANCH   3  13
ATOM     13  C15 <0> d           1.268   4.189  -0.108  0.00  0.00     0.169 C 
BRANCH  13  14
ATOM     14  C16 <0> d           1.091   2.722  -0.406  0.00  0.00     0.029 A 
ATOM     15  C24 <0> d           2.221   1.883  -0.506  0.00  0.00     0.253 A 
ATOM     16  N3  <0> d           2.104   0.570  -0.769  0.00  0.00    -0.322 N 
ATOM     17  O2  <0> d           3.332   2.361  -0.350  0.00  0.00    -0.268 OA
ATOM     18  C23 <0> d           0.867  -0.009  -0.953  0.00  0.00     0.051 A 
ATOM     19  H1  <0> d           2.902   0.022  -0.831  0.00  0.00     0.169 HD
ATOM     20  C18 <0> d          -0.292   0.784  -0.864  0.00  0.00    -0.002 A 
ATOM     21  C22 <0> d           0.745  -1.368  -1.226  0.00  0.00    -0.034 A 
ATOM     22  C17 <0> d          -0.154   2.213  -0.576  0.00  0.00     0.028 A 
ATOM     23  C19 <0> d          -1.551   0.202  -1.050  0.00  0.00    -0.050 A 
ATOM     24  C20 <0> d          -1.646  -1.135  -1.316  0.00  0.00     0.008 A 
ATOM     25  C26 <0> d          -2.796   1.045  -0.956  0.00  0.00     0.049 C 
ATOM     26  C21 <0> d          -0.504  -1.920  -1.405  0.00  0.00     0.009 A 
ATOM     27  C25 <0> d           1.976  -2.232  -1.324  0.00  0.00     0.050 C 
ENDBRANCH  13  14
ENDBRANCH   3  13
BRANCH   1  28
ATOM     28  N1  <0> d           0.347   4.783   3.401  0.00  0.00    -0.333 N 
ATOM     29  H9  <0> d           1.202   4.677   3.847  0.00  0.00     0.168 HD
BRANCH  28  30
ATOM     30  C5  <0> d          -0.790   5.123   4.141  0.00  0.00     0.034 A 
ATOM     31  C4  <0> d          -1.020   4.531   5.376  0.00  0.00     0.030 A 
ATOM     32  C3  <0> d          -2.144   4.869   6.104  0.00  0.00     0.009 A 
ATOM     33  C2  <0> d          -3.040   5.796   5.604  0.00  0.00    -0.062 A 
ATOM     34  C1  <0> d          -4.266   6.162   6.401  0.00  0.00     0.048 C 
ATOM     35  C7  <0> d          -2.814   6.388   4.375  0.00  0.00     0.009 A 
ATOM     36  C6  <0> d          -1.689   6.059   3.645  0.00  0.00     0.030 A 
ENDBRANCH  28  30
ENDBRANCH   1  28
TORSDOF 7
