REMARK  3 active torsions:
REMARK  status: ('A' for Active; 'I' for Inactive)
REMARK    1  A    between atoms: C2_2  and  C3_3 
REMARK    2  A    between atoms: C2_2  and  N2_19 
REMARK    3  A    between atoms: C8_8  and  N1_9 
ROOT
ATOM      1  C3  <0> d           0.707  -0.490  -1.238  0.00  0.00    -0.001 A 
ATOM      2  C4  <0> d           2.023  -0.904  -1.167  0.00  0.00     0.011 A 
ATOM      3  C5  <0> d           2.671  -1.351  -2.304  0.00  0.00     0.001 A 
ATOM      4  C6  <0> d           2.004  -1.384  -3.515  0.00  0.00     0.002 A 
ATOM      5  C7  <0> d           0.688  -0.971  -3.592  0.00  0.00     0.031 A 
ATOM      6  C8  <0> d           0.034  -0.527  -2.451  0.00  0.00     0.053 A 
ENDROOT
BRANCH   6   7
ATOM      7  N1  <0> d          -1.304  -0.113  -2.525  0.00  0.00    -0.252 N 
ATOM      8  C13 <0> d          -2.271  -1.021  -2.329  0.00  0.00     0.232 C 
ATOM      9  C12 <0> d          -3.727  -0.641  -2.401  0.00  0.00     0.113 C 
ATOM     10  O2  <0> d          -1.968  -2.169  -2.085  0.00  0.00    -0.273 OA
ATOM     11  C11 <0> d          -3.885   0.829  -2.001  0.00  0.00    -0.031 C 
ATOM     12  C10 <0> d          -2.980   1.680  -2.898  0.00  0.00     0.113 C 
ATOM     13  C14 <0> d          -5.342   1.258  -2.187  0.00  0.00     0.016 C 
ATOM     14  C15 <0> d          -3.475   1.011  -0.538  0.00  0.00     0.016 C 
ATOM     15  C9  <0> d          -1.565   1.175  -2.794  0.00  0.00     0.232 C 
ATOM     16  O1  <0> d          -0.645   1.947  -2.956  0.00  0.00    -0.273 OA
ENDBRANCH   6   7
BRANCH   1  17
ATOM     17  C2  <0> d           0.002  -0.004   0.002  0.00  0.00     0.216 C 
ATOM     18  C1  <0> d          -0.019   1.526   0.010  0.00  0.00     0.045 C 
BRANCH  17  19
ATOM     19  N2  <0> d           0.713  -0.491   1.192  0.00  0.00    -0.071 N 
ATOM     20  C16 <0> d          -0.040  -0.119   2.398  0.00  0.00     0.267 C 
ATOM     21  H19 <0> d           0.798  -1.495   1.145  0.00  0.00     0.277 HD
ATOM     22  H23 <0> d           1.632  -0.076   1.228  0.00  0.00     0.277 HD
ENDBRANCH  17  19
ENDBRANCH   1  17
TORSDOF 3
