REMARK  4 active torsions:
REMARK  status: ('A' for Active; 'I' for Inactive)
REMARK    1  A    between atoms: C4_4  and  S1_14 
REMARK    2  A    between atoms: C6_6  and  N1_9 
REMARK       I    between atoms: N1_9  and  C9_10 
REMARK    3  A    between atoms: C9_10  and  C10_12 
REMARK    4  A    between atoms: S1_14  and  N2_17 
ROOT
ATOM      1  C1  <0> d          -1.173   4.874   3.729  0.00  0.00     0.049 C 
ATOM      2  C2  <0> d          -1.409   3.514   3.123  0.00  0.00    -0.052 A 
ATOM      3  C3  <0> d          -0.694   3.123   2.006  0.00  0.00     0.032 A 
ATOM      4  C4  <0> d          -0.912   1.879   1.443  0.00  0.00     0.082 A 
ATOM      5  C5  <0> d          -1.838   1.019   2.002  0.00  0.00     0.055 A 
ATOM      6  C6  <0> d          -2.553   1.407   3.127  0.00  0.00     0.042 A 
ATOM      7  C7  <0> d          -2.336   2.659   3.686  0.00  0.00    -0.029 A 
ATOM      8  C8  <0> d          -3.111   3.085   4.907  0.00  0.00     0.051 C 
ENDROOT
BRANCH   4   9
ATOM      9  S1  <0> d          -0.003   1.387   0.016  0.00  0.00     0.260 S 
ATOM     10  O2  <0> d           0.006  -0.034   0.011  0.00  0.00    -0.200 OA
ATOM     11  O3  <0> d           1.192   2.156   0.011  0.00  0.00    -0.200 OA
BRANCH   9  12
ATOM     12  N2  <0> d          -0.877   1.860  -1.308  0.00  0.00    -0.315 N 
ATOM     13  C11 <0> d          -0.660   3.185  -1.894  0.00  0.00     0.162 C 
ATOM     14  C12 <0> d          -1.867   0.953  -1.894  0.00  0.00     0.162 C 
ENDBRANCH   9  12
ENDBRANCH   4   9
BRANCH   6  15
ATOM     15  N1  <0> d          -3.491   0.538   3.695  0.00  0.00    -0.326 N 
ATOM     16  C9  <0> d          -4.218  -0.279   2.907  0.00  0.00     0.235 C 
ATOM     17  O1  <0> d          -4.002  -0.320   1.714  0.00  0.00    -0.272 OA
ATOM     18  H9  <0> d          -3.619   0.524   4.657  0.00  0.00     0.169 HD
BRANCH  16  19
ATOM     19  C10 <0> d          -5.298  -1.141   3.507  0.00  0.00     0.217 C 
ATOM     20 Cl1  <0> d          -6.083  -2.113   2.208  0.00  0.00    -0.121 Cl
ENDBRANCH  16  19
ENDBRANCH   6  15
TORSDOF 4
