REMARK  6 active torsions:
REMARK  status: ('A' for Active; 'I' for Inactive)
REMARK    1  A    between atoms: C3_5  and  S2_7 
REMARK    2  A    between atoms: S2_7  and  C4_8 
REMARK    3  A    between atoms: C4_8  and  C5_9 
REMARK    4  A    between atoms: C5_9  and  C6_11 
REMARK    5  A    between atoms: C9_14  and  O3_21 
REMARK    6  A    between atoms: C10_15  and  N3_17 
REMARK       I    between atoms: N3_17  and  C12_18 
ROOT
ATOM      1  C6  <0> d          -1.572  -5.254  -0.038  0.00  0.00     0.013 A 
ATOM      2  C7  <0> d          -2.778  -4.543  -0.020  0.00  0.00     0.018 A 
ATOM      3  C8  <0> d          -3.976  -5.220  -0.011  0.00  0.00     0.040 A 
ATOM      4  C9  <0> d          -3.994  -6.609  -0.008  0.00  0.00     0.092 A 
ATOM      5  C10 <0> d          -2.796  -7.326  -0.020  0.00  0.00     0.069 A 
ATOM      6  C11 <0> d          -1.589  -6.654  -0.035  0.00  0.00     0.047 A 
ENDROOT
BRANCH   1   7
ATOM      7  C5  <0> d          -0.292  -4.534  -0.054  0.00  0.00     0.169 C 
ATOM      8  O1  <0> d           0.752  -5.152  -0.064  0.00  0.00    -0.291 OA
BRANCH   7   9
ATOM      9  C4  <0> d          -0.276  -3.027  -0.057  0.00  0.00     0.165 C 
BRANCH   9  10
ATOM     10  S2  <0> d           1.437  -2.442  -0.077  0.00  0.00    -0.093 SA
BRANCH  10  11
ATOM     11  C3  <0> d           1.166  -0.701  -0.078  0.00  0.00     0.159 A 
ATOM     12  N2  <0> d           0.031  -0.013  -0.066  0.00  0.00    -0.135 NA
ATOM     13  N1  <0> d           0.018   1.248  -0.068  0.00  0.00    -0.146 NA
ATOM     14  C2  <0> d           1.125   1.961  -0.082  0.00  0.00     0.096 A 
ATOM     15  C1  <0> d           1.313   3.457  -0.087  0.00  0.00     0.081 C 
ATOM     16  S1  <0> d           2.343   0.648  -0.094  0.00  0.00    -0.045 SA
ENDBRANCH  10  11
ENDBRANCH   9  10
ENDBRANCH   7   9
ENDBRANCH   1   7
BRANCH   5  17
ATOM     17  N3  <0> d          -2.818  -8.728  -0.017  0.00  0.00    -0.325 N 
ATOM     18  C12 <0> d          -1.764  -9.417   0.464  0.00  0.00     0.218 C 
ATOM     19  O2  <0> d          -0.841  -8.828   0.985  0.00  0.00    -0.274 OA
ATOM     20  C13 <0> d          -1.734 -10.920   0.354  0.00  0.00     0.117 C 
ATOM     21  H9  <0> d          -3.592  -9.201  -0.360  0.00  0.00     0.169 HD
ENDBRANCH   5  17
BRANCH   4  22
ATOM     22  O3  <0> d          -5.179  -7.271   0.007  0.00  0.00    -0.358 OA
ATOM     23  H13 <0> d          -5.512  -7.460   0.894  0.00  0.00     0.217 HD
ENDBRANCH   4  22
TORSDOF 6
