REMARK  5 active torsions:
REMARK  status: ('A' for Active; 'I' for Inactive)
REMARK    1  A    between atoms: C5_5  and  N1_9 
REMARK    2  A    between atoms: N1_9  and  C9_10 
REMARK    3  A    between atoms: C9_10  and  C10_11 
REMARK    4  A    between atoms: C9_10  and  N2_15 
REMARK       I    between atoms: N2_15  and  C11_16 
REMARK    5  A    between atoms: C11_16  and  C12_18 
ROOT
ATOM      1  C9  <0> d           2.512  -2.788  -0.148  0.00  0.00     0.239 C 
ENDROOT
BRANCH   1   2
ATOM      2  N1  <0> d           1.238  -2.077  -0.021  0.00  0.00    -0.365 N 
ATOM      3  H11 <0> d           0.405  -2.574  -0.007  0.00  0.00     0.162 HD
BRANCH   2   4
ATOM      4  C5  <0> d           1.222  -0.684   0.079  0.00  0.00     0.035 A 
ATOM      5  C4  <0> d           2.402   0.037  -0.056  0.00  0.00     0.030 A 
ATOM      6  C3  <0> d           2.383   1.414   0.043  0.00  0.00     0.009 A 
ATOM      7  C2  <0> d           1.192   2.076   0.277  0.00  0.00    -0.061 A 
ATOM      8  C1  <0> d           1.175   3.579   0.384  0.00  0.00     0.048 C 
ATOM      9  C7  <0> d           0.015   1.361   0.412  0.00  0.00     0.015 A 
ATOM     10  C6  <0> d           0.027  -0.016   0.313  0.00  0.00    -0.035 A 
ATOM     11  C8  <0> d          -1.255  -0.794   0.461  0.00  0.00     0.050 C 
ENDBRANCH   2   4
ENDBRANCH   1   2
BRANCH   1  12
ATOM     12  C10 <0> d           2.511  -4.006   0.778  0.00  0.00     0.225 C 
ATOM     13 Cl1  <0> d           1.159  -5.108   0.321  0.00  0.00    -0.080 Cl
ATOM     14 Cl2  <0> d           4.079  -4.881   0.623  0.00  0.00    -0.080 Cl
ATOM     15 Cl3  <0> d           2.292  -3.463   2.484  0.00  0.00    -0.080 Cl
ENDBRANCH   1  12
BRANCH   1  16
ATOM     16  N2  <0> d           2.690  -3.229  -1.534  0.00  0.00    -0.332 N 
ATOM     17  C11 <0> d           3.555  -2.584  -2.341  0.00  0.00     0.253 C 
ATOM     18  O1  <0> d           4.189  -1.636  -1.919  0.00  0.00    -0.268 OA
ATOM     19  H12 <0> d           2.184  -3.986  -1.871  0.00  0.00     0.165 HD
BRANCH  17  20
ATOM     20  C12 <0> d           3.734  -3.029  -3.739  0.00  0.00     0.032 A 
ATOM     21  C17 <0> d           4.630  -2.362  -4.577  0.00  0.00     0.018 A 
ATOM     22  C16 <0> d           4.793  -2.783  -5.880  0.00  0.00     0.020 A 
ATOM     23  C15 <0> d           4.071  -3.863  -6.358  0.00  0.00     0.011 A 
ATOM     24  C14 <0> d           3.180  -4.528  -5.532  0.00  0.00     0.020 A 
ATOM     25 Br1  <0> d           4.300  -4.433  -8.146  0.00  0.00    -0.051 Br
ATOM     26  C13 <0> d           3.013  -4.121  -4.225  0.00  0.00     0.018 A 
ENDBRANCH  17  20
ENDBRANCH   1  16
TORSDOF 5
