REMARK  6 active torsions:
REMARK  status: ('A' for Active; 'I' for Inactive)
REMARK    1  A    between atoms: C2_2  and  N1_3 
REMARK    2  A    between atoms: N1_3  and  C3_4 
REMARK       I    between atoms: N1_3  and  C5_6 
REMARK    3  A    between atoms: C5_6  and  C6_8 
REMARK    4  A    between atoms: C11_13  and  N2_14 
REMARK       I    between atoms: N2_14  and  C12_15 
REMARK       I    between atoms: C12_15  and  N3_17 
REMARK    5  A    between atoms: N3_17  and  C13_18 
REMARK    6  A    between atoms: C13_18  and  C14_19 
ROOT
ATOM      1  C6  <0> d           0.601  -1.430  -3.449  0.00  0.00     0.059 A 
ATOM      2  C7  <0> d           1.919  -1.892  -3.416  0.00  0.00     0.019 A 
ATOM      3  C8  <0> d           2.477  -2.460  -4.540  0.00  0.00     0.001 A 
ATOM      4  C9  <0> d           1.737  -2.576  -5.706  0.00  0.00     0.002 A 
ATOM      5  C10 <0> d           0.433  -2.124  -5.754  0.00  0.00     0.030 A 
ATOM      6  C11 <0> d          -0.147  -1.554  -4.629  0.00  0.00     0.052 A 
ENDROOT
BRANCH   6   7
ATOM      7  N2  <0> d          -1.464  -1.102  -4.673  0.00  0.00    -0.308 N 
ATOM      8  C12 <0> d          -1.956  -0.571  -5.809  0.00  0.00     0.321 C 
ATOM      9  O2  <0> d          -1.279  -0.561  -6.819  0.00  0.00    -0.247 OA
ATOM     10  N3  <0> d          -3.199  -0.050  -5.827  0.00  0.00    -0.337 N 
ATOM     11  H16 <0> d          -3.739  -0.058  -5.021  0.00  0.00     0.164 HD
ATOM     12  H15 <0> d          -2.027  -1.170  -3.886  0.00  0.00     0.170 HD
BRANCH  10  13
ATOM     13  C13 <0> d          -3.734   0.527  -7.062  0.00  0.00     0.191 C 
BRANCH  13  14
ATOM     14  C14 <0> d          -5.131   1.036  -6.815  0.00  0.00     0.093 A 
ATOM     15  S1  <0> d          -6.589   0.211  -6.984  0.00  0.00    -0.083 SA
ATOM     16  C16 <0> d          -7.679   1.539  -6.496  0.00  0.00     0.078 A 
ATOM     17  C15 <0> d          -6.778   2.525  -6.250  0.00  0.00     0.038 A 
ATOM     18  N4  <0> d          -5.505   2.228  -6.423  0.00  0.00    -0.249 NA
ATOM     19  C17 <0> d          -7.213   3.895  -5.798  0.00  0.00     0.071 C 
ENDBRANCH  13  14
ENDBRANCH  10  13
ENDBRANCH   6   7
BRANCH   1  20
ATOM     20  C5  <0> d          -0.002  -0.822  -2.248  0.00  0.00     0.256 C 
ATOM     21  N1  <0> d          -0.092  -1.531  -1.105  0.00  0.00    -0.349 N 
ATOM     22  O1  <0> d          -0.419   0.320  -2.289  0.00  0.00    -0.267 OA
BRANCH  21  23
ATOM     23  C2  <0> d          -0.781  -0.965   0.056  0.00  0.00     0.121 C 
ATOM     24  C1  <0> d           0.220  -0.191   0.916  0.00  0.00     0.026 C 
ENDBRANCH  21  23
BRANCH  21  25
ATOM     25  C3  <0> d           0.501  -2.869  -1.025  0.00  0.00     0.121 C 
ATOM     26  C4  <0> d          -0.563  -3.918  -1.355  0.00  0.00     0.026 C 
ENDBRANCH  21  25
ENDBRANCH   1  20
TORSDOF 6
