REMARK  4 active torsions:
REMARK  status: ('A' for Active; 'I' for Inactive)
REMARK    1  A    between atoms: C2_2  and  N1_3 
REMARK    2  A    between atoms: C4_5  and  C7_9 
REMARK    3  A    between atoms: C7_9  and  N3_10 
REMARK    4  A    between atoms: N3_10  and  C8_11 
ROOT
ATOM      1  N3  <0> d           1.691  -0.363  -5.618  0.00  0.00    -0.370 N 
ATOM      2  H11 <0> d           1.729   0.517  -5.210  0.00  0.00     0.161 HD
ENDROOT
BRANCH   1   3
ATOM      3  C7  <0> d           1.836  -1.562  -4.788  0.00  0.00     0.164 C 
BRANCH   3   4
ATOM      4  C4  <0> d           2.032  -1.156  -3.350  0.00  0.00     0.009 A 
ATOM      5  C3  <0> d           1.052  -0.967  -2.436  0.00  0.00     0.036 A 
ATOM      6  N1  <0> d           1.638  -0.614  -1.273  0.00  0.00    -0.274 N 
ATOM      7  C16 <0> d          -0.428  -1.122  -2.675  0.00  0.00     0.070 C 
ATOM      8  N2  <0> d           3.023  -0.580  -1.480  0.00  0.00    -0.177 NA
ATOM      9  C5  <0> d           3.258  -0.911  -2.724  0.00  0.00     0.061 A 
ATOM     10  C6  <0> d           4.615  -1.005  -3.372  0.00  0.00     0.073 C 
BRANCH   6  11
ATOM     11  C2  <0> d           0.947  -0.313  -0.016  0.00  0.00     0.146 C 
ATOM     12  C1  <0> d           0.615   1.180   0.039  0.00  0.00     0.028 C 
ENDBRANCH   6  11
ENDBRANCH   3   4
ENDBRANCH   1   3
BRANCH   1  13
ATOM     13  C8  <0> d           1.500  -0.485  -6.982  0.00  0.00     0.138 A 
ATOM     14  N5  <0> d           1.566  -1.671  -7.565  0.00  0.00    -0.224 NA
ATOM     15  C13 <0> d           1.384  -1.829  -8.864  0.00  0.00     0.236 A 
ATOM     16  N4  <0> d           1.135  -0.802  -9.653  0.00  0.00    -0.234 NA
ATOM     17  C12 <0> d           1.057   0.417  -9.157  0.00  0.00     0.114 A 
ATOM     18  C9  <0> d           1.234   0.664  -7.778  0.00  0.00     0.052 A 
ATOM     19  S1  <0> d           0.752   2.030  -9.828  0.00  0.00    -0.074 SA
ATOM     20  C10 <0> d           1.118   2.058  -7.387  0.00  0.00    -0.032 A 
ATOM     21  C11 <0> d           0.860   2.982  -8.325  0.00  0.00    -0.012 A 
ATOM     22  C15 <0> d           1.285   2.462  -5.945  0.00  0.00     0.050 C 
ATOM     23  C14 <0> d           0.699   4.470  -8.149  0.00  0.00     0.057 C 
ENDBRANCH   1  13
TORSDOF 4
