REMARK  5 active torsions:
REMARK  status: ('A' for Active; 'I' for Inactive)
REMARK       I    between atoms: N1_2  and  C2_3 
REMARK    1  A    between atoms: C2_3  and  C3_5 
REMARK    2  A    between atoms: C5_8  and  C7_13 
REMARK    3  A    between atoms: C8_14  and  C9_15 
REMARK    4  A    between atoms: C13_19  and  N4_21 
REMARK       I    between atoms: N4_21  and  C15_22 
REMARK    5  A    between atoms: C15_22  and  C16_24 
ROOT
ATOM      1  C9  <0> d          -2.379  -8.385  -0.635  0.00  0.00    -0.034 A 
ATOM      2  C10 <0> d          -1.177  -9.101  -0.645  0.00  0.00     0.011 A 
ATOM      3  C11 <0> d          -1.194 -10.474  -0.770  0.00  0.00     0.003 A 
ATOM      4  C12 <0> d          -2.396 -11.148  -0.885  0.00  0.00     0.029 A 
ATOM      5  C13 <0> d          -3.596 -10.448  -0.876  0.00  0.00     0.035 A 
ATOM      6  C14 <0> d          -3.593  -9.068  -0.746  0.00  0.00     0.041 A 
ENDROOT
BRANCH   1   7
ATOM      7  C8  <0> d          -2.366  -6.920  -0.502  0.00  0.00     0.015 C 
ATOM      8  C7  <0> d          -1.191  -6.262  -0.395  0.00  0.00     0.051 C 
BRANCH   8   9
ATOM      9  C5  <0> d          -1.178  -4.850  -0.267  0.00  0.00     0.130 A 
ATOM     10  N2  <0> d          -2.327  -4.192  -0.253  0.00  0.00    -0.242 NA
ATOM     11  C4  <0> d          -2.370  -2.874  -0.136  0.00  0.00     0.141 A 
ATOM     12  C3  <0> d          -1.183  -2.149  -0.022  0.00  0.00     0.117 A 
ATOM     13  C6  <0> d           0.051  -2.857  -0.042  0.00  0.00     0.264 A 
ATOM     14  N3  <0> d           0.020  -4.202  -0.159  0.00  0.00    -0.307 N 
ATOM     15  O2  <0> d           1.111  -2.264   0.049  0.00  0.00    -0.267 OA
ATOM     16  H1  <0> d           0.848  -4.707  -0.171  0.00  0.00     0.170 HD
BRANCH  12  17
ATOM     17  C2  <0> d          -1.207  -0.686   0.110  0.00  0.00     0.258 C 
ATOM     18  N1  <0> d          -0.053   0.010   0.109  0.00  0.00    -0.361 N 
ATOM     19  C1  <0> d          -0.080   1.474   0.128  0.00  0.00     0.149 C 
ATOM     20  H5  <0> d           0.796  -0.460   0.096  0.00  0.00     0.162 HD
ATOM     21  O1  <0> d          -2.269  -0.102   0.219  0.00  0.00    -0.267 OA
ENDBRANCH  12  17
ENDBRANCH   8   9
ENDBRANCH   1   7
BRANCH   5  22
ATOM     22  N4  <0> d          -4.808 -11.136  -0.994  0.00  0.00    -0.323 N 
ATOM     23  C15 <0> d          -5.837 -10.581  -1.665  0.00  0.00     0.257 C 
ATOM     24  O3  <0> d          -5.739  -9.450  -2.099  0.00  0.00    -0.267 OA
ATOM     25  H13 <0> d          -4.909 -12.013  -0.591  0.00  0.00     0.169 HD
BRANCH  23  26
ATOM     26  C16 <0> d          -7.082 -11.348  -1.874  0.00  0.00     0.054 A 
ATOM     27  C21 <0> d          -8.150 -10.776  -2.570  0.00  0.00     0.049 A 
ATOM     28  C20 <0> d          -9.309 -11.501  -2.766  0.00  0.00     0.025 A 
ATOM     29 Cl1  <0> d          -8.018  -9.160  -3.191  0.00  0.00    -0.083 Cl
ATOM     30  C19 <0> d          -9.417 -12.786  -2.266  0.00  0.00     0.002 A 
ATOM     31  C18 <0> d          -8.365 -13.356  -1.571  0.00  0.00     0.001 A 
ATOM     32  C17 <0> d          -7.199 -12.646  -1.373  0.00  0.00     0.019 A 
ENDBRANCH  23  26
ENDBRANCH   5  22
TORSDOF 5
