REMARK  5 active torsions:
REMARK  status: ('A' for Active; 'I' for Inactive)
REMARK    1  A    between atoms: C2_2  and  O1_3 
REMARK    2  A    between atoms: O1_3  and  C3_4 
REMARK    3  A    between atoms: C6_7  and  N1_10 
REMARK       I    between atoms: N1_10  and  C9_11 
REMARK    4  A    between atoms: C9_11  and  C10_13 
REMARK    5  A    between atoms: C10_13  and  N2_14 
ROOT
ATOM      1  N2  <0> d          -4.819  -8.342   0.303  0.00  0.00    -0.058 N 
ATOM      2  C11 <0> d          -4.983  -9.790   0.507  0.00  0.00     0.242 C 
ATOM      3  C12 <0> d          -6.436 -10.062   0.892  0.00  0.00     0.085 C 
ATOM      4  C13 <0> d          -7.367  -9.403  -0.100  0.00  0.00     0.023 A 
ATOM      5  C14 <0> d          -6.931  -8.436  -0.930  0.00  0.00     0.041 A 
ATOM      6  C15 <0> d          -7.829  -7.827  -1.846  0.00  0.00     0.194 A 
ATOM      7  O3  <0> d          -7.451  -6.946  -2.600  0.00  0.00    -0.287 OA
ATOM      8  C16 <0> d          -9.226  -8.287  -1.864  0.00  0.00     0.042 A 
ATOM      9  C17 <0> d         -10.166  -7.741  -2.736  0.00  0.00     0.024 A 
ATOM     10  C18 <0> d         -11.454  -8.200  -2.717  0.00  0.00    -0.061 A 
ATOM     11  C19 <0> d         -11.831  -9.205  -1.836  0.00  0.00     0.009 A 
ATOM     12  C20 <0> d         -10.917  -9.757  -0.966  0.00  0.00     0.031 A 
ATOM     13  C21 <0> d          -9.601  -9.304  -0.969  0.00  0.00     0.046 A 
ATOM     14  N3  <0> d          -8.661  -9.829  -0.116  0.00  0.00    -0.358 N 
ATOM     15  H1  <0> d          -8.929 -10.531   0.498  0.00  0.00     0.166 HD
ATOM     16  C22 <0> d         -12.472  -7.612  -3.660  0.00  0.00     0.048 C 
ATOM     17  C23 <0> d          -5.500  -7.964  -0.938  0.00  0.00     0.280 C 
ATOM     18  H26 <0> d          -5.226  -7.840   1.078  0.00  0.00     0.280 HD
ENDROOT
BRANCH   1  19
ATOM     19  C10 <0> d          -3.391  -8.017   0.200  0.00  0.00     0.337 C 
BRANCH  19  20
ATOM     20  C9  <0> d          -3.222  -6.523   0.093  0.00  0.00     0.248 C 
ATOM     21  N1  <0> d          -1.989  -5.990  -0.012  0.00  0.00    -0.326 N 
ATOM     22  H11 <0> d          -1.215  -6.569  -0.096  0.00  0.00     0.169 HD
ATOM     23  O2  <0> d          -4.196  -5.800   0.102  0.00  0.00    -0.271 OA
BRANCH  21  24
ATOM     24  C6  <0> d          -1.823  -4.598   0.001  0.00  0.00     0.034 A 
ATOM     25  C5  <0> d          -2.673  -3.805   0.759  0.00  0.00     0.032 A 
ATOM     26  C4  <0> d          -2.510  -2.434   0.771  0.00  0.00     0.039 A 
ATOM     27  C3  <0> d          -1.496  -1.849   0.025  0.00  0.00     0.068 A 
ATOM     28  C8  <0> d          -0.650  -2.641  -0.737  0.00  0.00     0.039 A 
ATOM     29  C7  <0> d          -0.809  -4.013  -0.746  0.00  0.00     0.032 A 
BRANCH  27  30
ATOM     30  O1  <0> d          -1.336  -0.499   0.037  0.00  0.00    -0.352 OA
BRANCH  30  31
ATOM     31  C2  <0> d          -2.242   0.255   0.845  0.00  0.00     0.171 C 
ATOM     32  C1  <0> d          -1.908   1.744   0.732  0.00  0.00     0.034 C 
ENDBRANCH  30  31
ENDBRANCH  27  30
ENDBRANCH  21  24
ENDBRANCH  19  20
ENDBRANCH   1  19
TORSDOF 5
