REMARK  5 active torsions:
REMARK  status: ('A' for Active; 'I' for Inactive)
REMARK    1  A    between atoms: C2_2  and  C3_3 
REMARK    2  A    between atoms: C3_3  and  C4_4 
REMARK    3  A    between atoms: C7_7  and  N1_10 
REMARK    4  A    between atoms: N1_10  and  C10_11 
REMARK    5  A    between atoms: C10_11  and  C15_19 
ROOT
ATOM      1  N1  <0> d           0.008  -5.506   3.635  0.00  0.00    -0.052 N 
ATOM      2  H18 <0> d          -0.904  -5.925   3.531  0.00  0.00     0.279 HD
ATOM      3  H27 <0> d           0.180  -4.879   2.864  0.00  0.00     0.279 HD
ENDROOT
BRANCH   1   4
ATOM      4  C7  <0> d           0.062  -4.756   4.897  0.00  0.00     0.187 C 
ATOM      5  C6  <0> d          -1.130  -3.799   4.972  0.00  0.00     0.033 C 
ATOM      6  C5  <0> d          -1.074  -3.017   6.286  0.00  0.00     0.007 C 
ATOM      7  C4  <0> d           0.228  -2.216   6.349  0.00  0.00    -0.014 C 
ATOM      8  C9  <0> d           1.419  -3.174   6.274  0.00  0.00     0.007 C 
ATOM      9  C8  <0> d           1.364  -3.955   4.960  0.00  0.00     0.033 C 
BRANCH   7  10
ATOM     10  C3  <0> d           0.284  -1.435   7.663  0.00  0.00     0.004 C 
BRANCH  10  11
ATOM     11  C2  <0> d          -0.835  -0.391   7.683  0.00  0.00    -0.004 C 
ATOM     12  C1  <0> d          -0.779   0.391   8.997  0.00  0.00     0.005 C 
ENDBRANCH  10  11
ENDBRANCH   7  10
ENDBRANCH   1   4
BRANCH   1  13
ATOM     13  C10 <0> d           1.032  -6.559   3.648  0.00  0.00     0.214 C 
ATOM     14  C14 <0> d           0.911  -7.362   4.940  0.00  0.00     0.065 C 
ATOM     15  C13 <0> d          -0.543  -7.790   5.155  0.00  0.00     0.143 C 
ATOM     16  S1  <0> d          -1.039  -8.893   3.799  0.00  0.00     0.144 S 
ATOM     17  C12 <0> d          -0.623  -7.902   2.334  0.00  0.00     0.143 C 
ATOM     18  O1  <0> d          -0.201 -10.040   3.821  0.00  0.00    -0.228 OA
ATOM     19  O2  <0> d          -2.449  -9.063   3.844  0.00  0.00    -0.228 OA
ATOM     20  C11 <0> d           0.840  -7.462   2.433  0.00  0.00     0.065 C 
BRANCH  13  21
ATOM     21  C15 <0> d           2.397  -5.925   3.584  0.00  0.00     0.210 C 
ATOM     22  O3  <0> d           2.637  -5.077   2.742  0.00  0.00    -0.646 OA
ATOM     23  O4  <0> d           3.263  -6.261   4.375  0.00  0.00    -0.646 OA
ENDBRANCH  13  21
ENDBRANCH   1  13
TORSDOF 5
