REMARK  5 active torsions:
REMARK  status: ('A' for Active; 'I' for Inactive)
REMARK    1  A    between atoms: O1_2  and  C2_3 
REMARK    2  A    between atoms: C5_6  and  C16_21 
REMARK    3  A    between atoms: C7_8  and  C8_9 
REMARK    4  A    between atoms: C8_9  and  S1_10 
REMARK    5  A    between atoms: S1_10  and  C9_11 
ROOT
ATOM      1  C2  <0> d           0.626  -0.618   1.042  0.00  0.00     0.075 A 
ATOM      2  C3  <0> d           1.202   0.139   2.051  0.00  0.00     0.038 A 
ATOM      3  C4  <0> d           1.835  -0.488   3.107  0.00  0.00     0.012 A 
ATOM      4  C5  <0> d           1.895  -1.869   3.158  0.00  0.00    -0.025 A 
ATOM      5  C6  <0> d           1.321  -2.625   2.153  0.00  0.00     0.020 A 
ATOM      6  C7  <0> d           0.682  -2.003   1.097  0.00  0.00    -0.015 A 
ENDROOT
BRANCH   4   7
ATOM      7  C16 <0> d           2.586  -2.550   4.311  0.00  0.00     0.243 C 
ATOM      8  N3  <0> d           3.798  -1.793   4.696  0.00  0.00    -0.065 N 
ATOM      9  C20 <0> d           4.507  -2.382   5.835  0.00  0.00     0.235 C 
ATOM     10  H21 <0> d           4.420  -1.749   3.903  0.00  0.00     0.278 HD
ATOM     11  H25 <0> d           3.529  -0.854   4.949  0.00  0.00     0.278 HD
ATOM     12  C19 <0> d           3.600  -2.584   7.064  0.00  0.00     0.054 C 
ATOM     13  C18 <0> d           2.426  -3.406   6.600  0.00  0.00     0.108 C 
ATOM     14  C17 <0> d           1.685  -2.557   5.526  0.00  0.00     0.140 C 
ATOM     15  N4  <0> d           1.345  -3.752   7.490  0.00  0.00    -0.380 N 
ATOM     16  N5  <0> d           0.412  -3.259   5.489  0.00  0.00    -0.377 N 
ATOM     17  C21 <0> d           0.229  -3.666   6.816  0.00  0.00     0.172 C 
ATOM     18  H23 <0> d          -0.163  -3.413   4.723  0.00  0.00     0.160 HD
ATOM     19  H24 <0> d           1.431  -4.005   8.423  0.00  0.00     0.160 HD
ENDBRANCH   4   7
BRANCH   6  20
ATOM     20  C8  <0> d           0.052  -2.828   0.005  0.00  0.00     0.123 C 
BRANCH  20  21
ATOM     21  S1  <0> d           1.272  -3.135  -1.302  0.00  0.00    -0.087 SA
BRANCH  21  22
ATOM     22  C9  <0> d           0.394  -4.098  -2.487  0.00  0.00     0.167 A 
ATOM     23  N2  <0> d          -0.858  -4.469  -2.378  0.00  0.00    -0.223 NA
ATOM     24  C15 <0> d          -1.215  -5.195  -3.469  0.00  0.00     0.086 A 
ATOM     25  C10 <0> d          -0.086  -5.277  -4.301  0.00  0.00     0.063 A 
ATOM     26  C14 <0> d          -2.404  -5.818  -3.860  0.00  0.00     0.034 A 
ATOM     27  N1  <0> d           0.919  -4.574  -3.656  0.00  0.00    -0.333 N 
ATOM     28  C11 <0> d          -0.157  -5.971  -5.498  0.00  0.00     0.032 A 
ATOM     29  H1  <0> d           1.825  -4.444  -3.975  0.00  0.00     0.168 HD
ATOM     30  C12 <0> d          -1.338  -6.580  -5.870  0.00  0.00     0.002 A 
ATOM     31  C13 <0> d          -2.456  -6.503  -5.053  0.00  0.00     0.002 A 
ENDBRANCH  21  22
ENDBRANCH  20  21
ENDBRANCH   6  20
BRANCH   1  32
ATOM     32  O1  <0> d           0.002  -0.004   0.002  0.00  0.00    -0.355 OA
ATOM     33  C1  <0> d          -0.017   1.425   0.010  0.00  0.00     0.210 C 
ENDBRANCH   1  32
TORSDOF 5
