REMARK  7 active torsions:
REMARK  status: ('A' for Active; 'I' for Inactive)
REMARK    1  A    between atoms: C2_2  and  N1_3 
REMARK    2  A    between atoms: N1_3  and  C3_4 
REMARK    3  A    between atoms: N2_6  and  C4_7 
REMARK    4  A    between atoms: N2_6  and  C10_15 
REMARK    5  A    between atoms: C4_7  and  C5_8 
REMARK    6  A    between atoms: C5_8  and  N3_9 
REMARK    7  A    between atoms: C10_15  and  C11_16 
ROOT
ATOM      1  C3  <0> d           0.022  -0.684   1.165  0.00  0.00     0.170 C 
ATOM      2  S1  <0> d           0.046  -2.396   1.156  0.00  0.00    -0.041 SA
ATOM      3  N2  <0> d           0.002  -0.004   0.002  0.00  0.00    -0.352 N 
ENDROOT
BRANCH   3   4
ATOM      4  C4  <0> d          -0.018   1.461   0.010  0.00  0.00     0.156 C 
BRANCH   4   5
ATOM      5  C5  <0> d           1.418   1.990  -0.001  0.00  0.00     0.292 C 
BRANCH   5   6
ATOM      6  N3  <0> d           1.398   3.459   0.007  0.00  0.00     0.094 N 
ATOM      7  C9  <0> d           2.744   4.003   0.236  0.00  0.00     0.298 C 
ATOM      8  C8  <0> d           2.668   5.531   0.296  0.00  0.00     0.198 C 
ATOM      9  O1  <0> d           2.084   6.022  -0.913  0.00  0.00    -0.388 OA
ATOM     10  C7  <0> d           0.771   5.513  -1.167  0.00  0.00     0.198 C 
ATOM     11  C6  <0> d           0.828   3.985  -1.242  0.00  0.00     0.298 C 
ENDBRANCH   5   6
ENDBRANCH   4   5
ENDBRANCH   3   4
BRANCH   3  12
ATOM     12  C10 <0> d          -0.000  -0.730  -1.271  0.00  0.00     0.169 C 
BRANCH  12  13
ATOM     13  C11 <0> d           1.420  -0.959  -1.720  0.00  0.00     0.029 A 
ATOM     14  C19 <0> d           2.096   0.041  -2.452  0.00  0.00     0.253 A 
ATOM     15  N4  <0> d           3.364  -0.124  -2.866  0.00  0.00    -0.322 N 
ATOM     16  O2  <0> d           1.517   1.082  -2.711  0.00  0.00    -0.268 OA
ATOM     17  C18 <0> d           4.052  -1.289  -2.599  0.00  0.00     0.051 A 
ATOM     18  H1  <0> d           3.853   0.687  -3.426  0.00  0.00     0.169 HD
ATOM     19  C13 <0> d           3.421  -2.319  -1.877  0.00  0.00    -0.002 A 
ATOM     20  C17 <0> d           5.363  -1.462  -3.032  0.00  0.00    -0.034 A 
ATOM     21  C12 <0> d           2.041  -2.128  -1.426  0.00  0.00     0.028 A 
ATOM     22  C14 <0> d           4.114  -3.503  -1.604  0.00  0.00    -0.050 A 
ATOM     23  C15 <0> d           5.400  -3.651  -2.039  0.00  0.00     0.008 A 
ATOM     24  C21 <0> d           3.444  -4.611  -0.832  0.00  0.00     0.049 C 
ATOM     25  C16 <0> d           6.026  -2.637  -2.751  0.00  0.00     0.009 A 
ATOM     26  C20 <0> d           6.054  -0.369  -3.805  0.00  0.00     0.050 C 
ENDBRANCH  12  13
ENDBRANCH   3  12
BRANCH   1  27
ATOM     27  N1  <0> d           0.024  -0.017   2.336  0.00  0.00    -0.367 N 
ATOM     28  H7  <0> d           0.009   1.083   2.342  0.00  0.00     0.161 HD
BRANCH  27  29
ATOM     29  C2  <0> d           0.046  -0.756   3.601  0.00  0.00     0.117 C 
ATOM     30  C1  <0> d           0.044   0.232   4.769  0.00  0.00     0.026 C 
ENDBRANCH  27  29
ENDBRANCH   1  27
TORSDOF 7
