REMARK  2 active torsions:
REMARK  status: ('A' for Active; 'I' for Inactive)
REMARK    1  A    between atoms: C8_9  and  C9_11 
REMARK    2  A    between atoms: C12_16  and  C13_18 
ROOT
ATOM      1  C9  <0> d           1.242  -2.859  -1.257  0.00  0.00     0.131 A 
ATOM      2  N3  <0> d           0.809  -4.102  -1.545  0.00  0.00    -0.310 N 
ATOM      3  C10 <0> d           1.253  -4.729  -2.655  0.00  0.00     0.248 A 
ATOM      4  O1  <0> d           0.870  -5.854  -2.930  0.00  0.00    -0.268 OA
ATOM      5  C11 <0> d           2.168  -4.056  -3.490  0.00  0.00     0.102 A 
ATOM      6  C12 <0> d           2.567  -2.801  -3.142  0.00  0.00     0.047 A 
ATOM      7  N4  <0> d           2.086  -2.233  -2.034  0.00  0.00    -0.237 NA
ATOM      8  H21 <0> d           0.179  -4.546  -0.956  0.00  0.00     0.170 HD
ENDROOT
BRANCH   1   9
ATOM      9  C8  <0> d           0.737  -2.173  -0.014  0.00  0.00     0.181 A 
ATOM     10  C7  <0> d          -0.773  -2.143  -0.006  0.00  0.00    -0.004 A 
ATOM     11  C2  <0> d          -1.140  -0.802   0.003  0.00  0.00     0.053 A 
ATOM     12  C6  <0> d          -1.730  -3.133  -0.007  0.00  0.00     0.011 A 
ATOM     13  N1  <0> d           0.002  -0.004   0.002  0.00  0.00    -0.316 N 
ATOM     14  C3  <0> d          -2.492  -0.470   0.012  0.00  0.00     0.031 A 
ATOM     15  C1  <0> d          -0.018   1.461   0.010  0.00  0.00     0.171 C 
ATOM     16  N2  <0> d           1.139  -0.754  -0.013  0.00  0.00    -0.222 NA
ATOM     17  H10 <0> d           1.721  -0.545   0.784  0.00  0.00     0.148 HD
ATOM     18  C4  <0> d          -3.449  -1.464   0.012  0.00  0.00     0.002 A 
ATOM     19  C5  <0> d          -3.072  -2.795   0.003  0.00  0.00     0.001 A 
ENDBRANCH   1   9
BRANCH   6  20
ATOM     20  C13 <0> d           3.544  -2.051  -4.011  0.00  0.00     0.063 C 
ATOM     21  C17 <0> d           2.899  -0.753  -4.503  0.00  0.00     0.243 C 
ATOM     22  N5  <0> d           3.850  -0.020  -5.346  0.00  0.00    -0.074 N 
ATOM     23  C16 <0> d           5.024   0.367  -4.555  0.00  0.00     0.232 C 
ATOM     24  H18 <0> d           3.405   0.809  -5.712  0.00  0.00     0.277 HD
ATOM     25  H22 <0> d           4.141  -0.608  -6.113  0.00  0.00     0.277 HD
ATOM     26  C15 <0> d           5.750  -0.888  -4.066  0.00  0.00     0.028 C 
ATOM     27  C14 <0> d           4.798  -1.717  -3.199  0.00  0.00     0.014 C 
ENDBRANCH   6  20
TORSDOF 2
