REMARK  3 active torsions:
REMARK  status: ('A' for Active; 'I' for Inactive)
REMARK    1  A    between atoms: C2_2  and  C3_3 
REMARK    2  A    between atoms: C2_2  and  O1_15 
REMARK    3  A    between atoms: C4_7  and  C5_9 
ROOT
ATOM      1  C3  <0> d           0.731  -0.503   1.223  0.00  0.00     0.150 A 
ATOM      2  N1  <0> d           0.193  -0.697   2.439  0.00  0.00    -0.261 N 
ATOM      3  H2  <0> d          -0.729  -0.543   2.698  0.00  0.00     0.190 HD
ATOM      4  N2  <0> d           1.231  -1.165   3.261  0.00  0.00    -0.157 NA
ATOM      5  C4  <0> d           2.304  -1.226   2.517  0.00  0.00     0.152 A 
ATOM      6  N3  <0> d           1.996  -0.830   1.282  0.00  0.00    -0.214 NA
ENDROOT
BRANCH   5   7
ATOM      7  C5  <0> d           3.666  -1.676   2.979  0.00  0.00     0.059 C 
ATOM      8  C10 <0> d           4.148  -0.765   4.109  0.00  0.00     0.012 C 
ATOM      9  C9  <0> d           5.530  -1.222   4.578  0.00  0.00     0.001 C 
ATOM     10  C8  <0> d           5.447  -2.663   5.085  0.00  0.00     0.000 C 
ATOM     11  C7  <0> d           4.965  -3.574   3.954  0.00  0.00     0.001 C 
ATOM     12  C6  <0> d           3.582  -3.117   3.485  0.00  0.00     0.012 C 
ENDBRANCH   5   7
BRANCH   1  13
ATOM     13  C2  <0> d           0.002  -0.004   0.002  0.00  0.00     0.185 C 
ATOM     14  C1  <0> d          -0.019   1.526   0.010  0.00  0.00     0.048 C 
BRANCH  13  15
ATOM     15  O1  <0> d          -1.339  -0.499   0.012  0.00  0.00    -0.388 OA
ATOM     16  H17 <0> d          -1.853  -0.225   0.784  0.00  0.00     0.210 HD
ENDBRANCH  13  15
ENDBRANCH   1  13
TORSDOF 3
