REMARK  6 active torsions:
REMARK  status: ('A' for Active; 'I' for Inactive)
REMARK    1  A    between atoms: C2_2  and  C3_3 
REMARK    2  A    between atoms: C2_2  and  S2_20 
REMARK    3  A    between atoms: C6_9  and  C9_14 
REMARK    4  A    between atoms: S2_20  and  C15_21 
REMARK    5  A    between atoms: C15_21  and  C16_22 
REMARK    6  A    between atoms: C16_22  and  C17_23 
REMARK       I    between atoms: C17_23  and  N3_25 
REMARK       I    between atoms: N3_25  and  C18_26 
REMARK       I    between atoms: C18_26  and  N4_28 
ROOT
ATOM      1  C3  <0> d           0.731  -0.503   1.223  0.00  0.00     0.121 A 
ATOM      2  N1  <0> d           2.053  -0.799   1.136  0.00  0.00    -0.310 N 
ATOM      3  H2  <0> d           2.511  -0.685   0.289  0.00  0.00     0.170 HD
ATOM      4  C4  <0> d           2.741  -1.247   2.203  0.00  0.00     0.260 A 
ATOM      5  O1  <0> d           3.928  -1.508   2.109  0.00  0.00    -0.267 OA
ATOM      6  C5  <0> d           2.057  -1.413   3.450  0.00  0.00     0.079 A 
ATOM      7  C6  <0> d           2.575  -1.876   4.731  0.00  0.00    -0.001 A 
ATOM      8  C7  <0> d           1.729  -1.951   5.787  0.00  0.00     0.065 A 
ATOM      9  S1  <0> d           0.175  -1.398   5.111  0.00  0.00    -0.080 SA
ATOM     10  C8  <0> d           0.692  -1.082   3.443  0.00  0.00     0.116 A 
ATOM     11  N2  <0> d           0.081  -0.639   2.348  0.00  0.00    -0.226 NA
ENDROOT
BRANCH   1  12
ATOM     12  C2  <0> d           0.002  -0.004   0.002  0.00  0.00     0.113 C 
ATOM     13  C1  <0> d          -0.019   1.526   0.010  0.00  0.00     0.029 C 
BRANCH  12  14
ATOM     14  S2  <0> d           0.851  -0.589  -1.490  0.00  0.00    -0.156 SA
BRANCH  14  15
ATOM     15  C15 <0> d          -0.220  -0.041  -2.848  0.00  0.00     0.084 C 
BRANCH  15  16
ATOM     16  C16 <0> d           0.387  -0.475  -4.184  0.00  0.00     0.113 C 
BRANCH  16  17
ATOM     17  C17 <0> d          -0.503  -0.020  -5.311  0.00  0.00     0.226 C 
ATOM     18  O2  <0> d          -1.522   0.591  -5.071  0.00  0.00    -0.273 OA
ATOM     19  N3  <0> d          -0.166  -0.292  -6.588  0.00  0.00    -0.279 N 
ATOM     20  C18 <0> d          -0.962   0.115  -7.596  0.00  0.00     0.322 C 
ATOM     21  H16 <0> d           0.649  -0.781  -6.780  0.00  0.00     0.173 HD
ATOM     22  O3  <0> d          -1.983   0.728  -7.355  0.00  0.00    -0.247 OA
ATOM     23  N4  <0> d          -0.625  -0.157  -8.873  0.00  0.00    -0.347 N 
ATOM     24  C19 <0> d          -1.490   0.285  -9.969  0.00  0.00     0.151 C 
ATOM     25  H17 <0> d           0.191  -0.646  -9.065  0.00  0.00     0.163 HD
ENDBRANCH  16  17
ENDBRANCH  15  16
ENDBRANCH  14  15
ENDBRANCH  12  14
ENDBRANCH   1  12
BRANCH   7  26
ATOM     26  C9  <0> d           4.000  -2.258   4.877  0.00  0.00    -0.024 A 
ATOM     27  C14 <0> d           4.761  -1.737   5.922  0.00  0.00     0.012 A 
ATOM     28  C13 <0> d           6.086  -2.100   6.055  0.00  0.00     0.001 A 
ATOM     29  C12 <0> d           6.661  -2.971   5.148  0.00  0.00     0.000 A 
ATOM     30  C11 <0> d           5.912  -3.487   4.106  0.00  0.00     0.001 A 
ATOM     31  C10 <0> d           4.585  -3.136   3.965  0.00  0.00     0.012 A 
ENDBRANCH   7  26
TORSDOF 6
