REMARK  4 active torsions:
REMARK  status: ('A' for Active; 'I' for Inactive)
REMARK    1  A    between atoms: C5_5  and  N1_8 
REMARK    2  A    between atoms: C12_14  and  C16_21 
REMARK    3  A    between atoms: C19_24  and  O3_29 
REMARK    4  A    between atoms: C20_25  and  O2_27 
ROOT
ATOM      1  N1  <0> d           0.059  -4.172  -0.021  0.00  0.00    -0.217 N 
ATOM      2  C8  <0> d           0.787  -4.975   0.829  0.00  0.00     0.142 A 
ATOM      3  C9  <0> d           0.521  -6.255   0.487  0.00  0.00     0.032 A 
ATOM      4  C10 <0> d          -0.386  -6.233  -0.594  0.00  0.00     0.063 A 
ATOM      5  N2  <0> d          -0.662  -4.995  -0.887  0.00  0.00    -0.170 NA
ATOM      6  C11 <0> d          -0.948  -7.446  -1.290  0.00  0.00     0.073 C 
ATOM      7  C12 <0> d           1.030  -7.536   1.070  0.00  0.00     0.119 C 
ATOM      8  S1  <0> d           1.312  -7.448   2.841  0.00  0.00    -0.141 SA
ATOM      9  C13 <0> d           2.690  -6.316   3.069  0.00  0.00     0.136 C 
ATOM     10  C14 <0> d           2.346  -4.916   2.743  0.00  0.00     0.236 C 
ATOM     11  O1  <0> d           2.841  -4.085   3.475  0.00  0.00    -0.272 OA
ATOM     12  N3  <0> d           1.598  -4.433   1.796  0.00  0.00    -0.310 N 
ATOM     13  C15 <0> d           3.145  -6.382   4.528  0.00  0.00     0.031 C 
ATOM     14  H13 <0> d           1.618  -3.464   1.765  0.00  0.00     0.170 HD
ENDROOT
BRANCH   7  15
ATOM     15  C16 <0> d           0.026  -8.625   0.796  0.00  0.00    -0.037 A 
ATOM     16  C21 <0> d           0.395  -9.735   0.059  0.00  0.00     0.048 A 
ATOM     17  C20 <0> d          -0.526 -10.739  -0.190  0.00  0.00     0.101 A 
ATOM     18  C19 <0> d          -1.825 -10.623   0.295  0.00  0.00     0.099 A 
ATOM     19  C18 <0> d          -2.191  -9.506   1.028  0.00  0.00     0.040 A 
ATOM     20  C17 <0> d          -1.265  -8.509   1.277  0.00  0.00     0.011 A 
BRANCH  17  21
ATOM     21  O2  <0> d          -0.163 -11.834  -0.910  0.00  0.00    -0.353 OA
ATOM     22  C22 <0> d           1.187 -11.886  -1.375  0.00  0.00     0.210 C 
ENDBRANCH  17  21
BRANCH  18  23
ATOM     23  O3  <0> d          -2.735 -11.604   0.050  0.00  0.00    -0.358 OA
ATOM     24  H23 <0> d          -3.239 -11.479  -0.766  0.00  0.00     0.217 HD
ENDBRANCH  18  23
ENDBRANCH   7  15
BRANCH   1  25
ATOM     25  C5  <0> d           0.040  -2.771  -0.013  0.00  0.00     0.060 A 
ATOM     26  C4  <0> d           1.226  -2.060   0.118  0.00  0.00     0.032 A 
ATOM     27  C3  <0> d           1.204  -0.679   0.125  0.00  0.00     0.009 A 
ATOM     28  C2  <0> d           0.004  -0.004   0.001  0.00  0.00    -0.062 A 
ATOM     29  C1  <0> d          -0.016   1.503   0.008  0.00  0.00     0.048 C 
ATOM     30  C7  <0> d          -1.179  -0.709  -0.125  0.00  0.00     0.009 A 
ATOM     31  C6  <0> d          -1.164  -2.090  -0.137  0.00  0.00     0.032 A 
ENDBRANCH   1  25
TORSDOF 4
