REMARK  7 active torsions:
REMARK  status: ('A' for Active; 'I' for Inactive)
REMARK    1  A    between atoms: O1_2  and  C2_3 
REMARK    2  A    between atoms: C2_3  and  C3_4 
REMARK    3  A    between atoms: C3_4  and  S1_5 
REMARK    4  A    between atoms: S1_5  and  C4_7 
REMARK    5  A    between atoms: C4_7  and  C5_8 
REMARK    6  A    between atoms: C5_8  and  N1_9 
REMARK    7  A    between atoms: C7_11  and  N2_16 
ROOT
ATOM      1  N1  <0> d           1.926  -6.822   3.069  0.00  0.00    -0.322 N 
ATOM      2  C6  <0> d           0.855  -7.500   3.561  0.00  0.00     0.123 A 
ATOM      3  C7  <0> d           0.733  -8.839   3.362  0.00  0.00     0.041 A 
ATOM      4  C8  <0> d           1.722  -9.531   2.641  0.00  0.00     0.036 A 
ATOM      5  C9  <0> d           2.793  -8.845   2.151  0.00  0.00     0.077 A 
ATOM      6  C10 <0> d           2.885  -7.460   2.371  0.00  0.00     0.247 A 
ATOM      7  O3  <0> d           3.837  -6.835   1.932  0.00  0.00    -0.268 OA
ENDROOT
BRANCH   1   8
ATOM      8  C5  <0> d           2.036  -5.379   3.296  0.00  0.00     0.144 C 
BRANCH   8   9
ATOM      9  C4  <0> d           1.349  -4.629   2.153  0.00  0.00     0.129 C 
BRANCH   9  10
ATOM     10  S1  <0> d           1.485  -2.842   2.434  0.00  0.00     0.018 S 
ATOM     11  O2  <0> d           2.854  -2.462   2.414  0.00  0.00    -0.258 OA
BRANCH  10  12
ATOM     12  C3  <0> d           0.633  -2.108   1.011  0.00  0.00     0.135 C 
BRANCH  12  13
ATOM     13  C2  <0> d           0.673  -0.582   1.123  0.00  0.00     0.179 C 
BRANCH  13  14
ATOM     14  O1  <0> d           0.002  -0.004   0.002  0.00  0.00    -0.395 OA
ATOM     15  C1  <0> d          -0.017   1.425   0.010  0.00  0.00     0.201 C 
ENDBRANCH  13  14
ENDBRANCH  12  13
ENDBRANCH  10  12
ENDBRANCH   9  10
ENDBRANCH   8   9
ENDBRANCH   1   8
BRANCH   3  16
ATOM     16  N2  <0> d          -0.376  -9.528   3.874  0.00  0.00    -0.398 N 
ATOM     17  H15 <0> d          -1.058  -9.049   4.372  0.00  0.00     0.156 HD
ATOM     18  H16 <0> d          -0.462 -10.484   3.732  0.00  0.00     0.156 HD
ENDBRANCH   3  16
TORSDOF 7
