REMARK  12 active torsions:
REMARK  status: ('A' for Active; 'I' for Inactive)
REMARK    1  A    between atoms: C2_2  and  C4_4 
REMARK    2  A    between atoms: C4_4  and  N1_5 
REMARK    3  A    between atoms: C5_6  and  N5_29 
REMARK    4  A    between atoms: C6_7  and  N3_14 
REMARK    5  A    between atoms: N3_14  and  C9_15 
REMARK    6  A    between atoms: N3_14  and  C12_19 
REMARK    7  A    between atoms: C9_15  and  C10_16 
REMARK    8  A    between atoms: C10_16  and  O3_17 
REMARK    9  A    between atoms: C12_19  and  C13_20 
REMARK       I    between atoms: C13_20  and  N4_22 
REMARK   10  A    between atoms: N4_22  and  C14_23 
REMARK   11  A    between atoms: C14_23  and  C15_24 
REMARK   12  A    between atoms: C15_24  and  C16_25 
ROOT
ATOM      1  N1  <0> d           1.700  -0.295   3.641  0.00  0.00    -0.283 N 
ATOM      2  C5  <0> d           1.372   0.871   4.295  0.00  0.00     0.138 A 
ATOM      3  C6  <0> d           0.099   1.361   4.194  0.00  0.00     0.144 A 
ATOM      4  C7  <0> d          -0.844   0.658   3.423  0.00  0.00     0.279 A 
ATOM      5  O1  <0> d          -1.985   1.076   3.318  0.00  0.00    -0.265 OA
ATOM      6  N2  <0> d          -0.478  -0.480   2.800  0.00  0.00    -0.273 N 
ATOM      7  H1  <0> d          -1.127  -0.966   2.268  0.00  0.00     0.173 HD
ATOM      8  C8  <0> d           0.779  -0.945   2.906  0.00  0.00     0.331 A 
ATOM      9  O2  <0> d           1.088  -1.972   2.331  0.00  0.00    -0.246 OA
ENDROOT
BRANCH   3  10
ATOM     10  N3  <0> d          -0.264   2.557   4.856  0.00  0.00    -0.363 N 
BRANCH  10  11
ATOM     11  C9  <0> d          -1.236   2.522   5.951  0.00  0.00     0.150 C 
BRANCH  11  12
ATOM     12  C10 <0> d          -0.520   2.175   7.258  0.00  0.00     0.186 C 
BRANCH  12  13
ATOM     13  O3  <0> d           0.391   3.223   7.594  0.00  0.00    -0.394 OA
ATOM     14  C11 <0> d           1.116   2.997   8.805  0.00  0.00     0.201 C 
ENDBRANCH  12  13
ENDBRANCH  11  12
ENDBRANCH  10  11
BRANCH  10  15
ATOM     15  C12 <0> d           0.332   3.831   4.446  0.00  0.00     0.226 C 
BRANCH  15  16
ATOM     16  C13 <0> d          -0.586   4.526   3.473  0.00  0.00     0.235 C 
ATOM     17  O4  <0> d          -1.635   4.007   3.154  0.00  0.00    -0.272 OA
ATOM     18  N4  <0> d          -0.242   5.723   2.958  0.00  0.00    -0.360 N 
ATOM     19  H20 <0> d           0.597   6.137   3.214  0.00  0.00     0.162 HD
BRANCH  18  20
ATOM     20  C14 <0> d          -1.134   6.397   2.013  0.00  0.00     0.123 C 
BRANCH  20  21
ATOM     21  C15 <0> d          -0.511   7.728   1.585  0.00  0.00     0.028 C 
BRANCH  21  22
ATOM     22  C16 <0> d          -1.444   8.433   0.597  0.00  0.00    -0.050 C 
ATOM     23  C17 <0> d          -2.794   8.694   1.268  0.00  0.00     0.014 C 
ATOM     24  C18 <0> d          -0.821   9.763   0.169  0.00  0.00     0.014 C 
ATOM     25  C19 <0> d          -1.648   7.546  -0.633  0.00  0.00     0.014 C 
ENDBRANCH  21  22
ENDBRANCH  20  21
ENDBRANCH  18  20
ENDBRANCH  15  16
ENDBRANCH  10  15
ENDBRANCH   3  10
BRANCH   2  26
ATOM     26  N5  <0> d           2.316   1.537   5.043  0.00  0.00    -0.383 N 
ATOM     27  H34 <0> d           3.189   1.140   5.187  0.00  0.00     0.157 HD
ATOM     28  H35 <0> d           2.108   2.404   5.425  0.00  0.00     0.157 HD
ENDBRANCH   2  26
BRANCH   1  29
ATOM     29  C4  <0> d           3.061  -0.829   3.742  0.00  0.00     0.139 C 
BRANCH  29  30
ATOM     30  C2  <0> d           3.921  -0.249   2.617  0.00  0.00    -0.004 C 
ATOM     31  C1  <0> d           4.063   1.262   2.811  0.00  0.00     0.011 C 
ATOM     32  C3  <0> d           5.305  -0.899   2.646  0.00  0.00     0.011 C 
ENDBRANCH  29  30
ENDBRANCH   1  29
TORSDOF 12
