REMARK  4 active torsions:
REMARK  status: ('A' for Active; 'I' for Inactive)
REMARK    1  A    between atoms: C13_15  and  C14_17 
REMARK    2  A    between atoms: C14_17  and  C15_18 
REMARK    3  A    between atoms: C15_18  and  C16_19 
REMARK    4  A    between atoms: N3_24  and  C19_27 
ROOT
ATOM      1  C1  <0> d          -0.018   1.503   0.010  0.00  0.00     0.049 C 
ATOM      2  C2  <0> d           0.002  -0.004   0.002  0.00  0.00    -0.054 A 
ATOM      3  C3  <0> d           0.006  -0.686  -1.201  0.00  0.00     0.008 A 
ATOM      4  C4  <0> d           0.024  -2.069  -1.209  0.00  0.00     0.013 A 
ATOM      5  C5  <0> d           0.038  -2.765  -0.021  0.00  0.00     0.018 A 
ATOM      6  C6  <0> d           0.036  -2.090   1.196  0.00  0.00     0.050 A 
ATOM      7  C7  <0> d           0.023  -0.697   1.195  0.00  0.00    -0.029 A 
ATOM      8  C8  <0> d           0.025   0.056   2.500  0.00  0.00     0.051 C 
ATOM      9  N1  <0> d           0.055  -3.001   2.254  0.00  0.00    -0.324 N 
ATOM     10  C9  <0> d           0.067  -4.278   1.825  0.00  0.00     0.267 A 
ATOM     11  O1  <0> d           0.084  -5.274   2.516  0.00  0.00    -0.270 OA
ATOM     12  C10 <0> d           0.056  -4.228   0.321  0.00  0.00     0.279 A 
ATOM     13  C11 <0> d           1.283  -4.930  -0.272  0.00  0.00     0.147 A 
ATOM     14  C12 <0> d           0.758  -5.610  -1.567  0.00  0.00     0.128 A 
ATOM     15  C13 <0> d          -0.740  -5.241  -1.628  0.00  0.00     0.237 C 
ATOM     16  N2  <0> d          -1.119  -4.927  -0.231  0.00  0.00     0.113 N 
ATOM     17  C17 <0> d           1.505  -4.888  -2.666  0.00  0.00     0.234 A 
ATOM     18  O4  <0> d           1.395  -5.113  -3.853  0.00  0.00    -0.272 OA
ATOM     19  N3  <0> d           2.307  -3.963  -2.126  0.00  0.00    -0.283 N 
ATOM     20  C18 <0> d           2.268  -3.900  -0.775  0.00  0.00     0.235 A 
ATOM     21  O5  <0> d           2.910  -3.145  -0.077  0.00  0.00    -0.272 OA
ATOM     22  H12 <0> d           0.059  -2.744   3.190  0.00  0.00     0.169 HD
ATOM     23  H13 <0> d          -1.308  -5.776   0.281  0.00  0.00     0.318 HD
ENDROOT
BRANCH  15  24
ATOM     24  C14 <0> d          -1.557  -6.416  -2.169  0.00  0.00     0.047 C 
BRANCH  24  25
ATOM     25  C15 <0> d          -3.016  -5.989  -2.338  0.00  0.00     0.115 C 
BRANCH  25  26
ATOM     26  C16 <0> d          -3.820  -7.147  -2.871  0.00  0.00     0.172 C 
ATOM     27  O2  <0> d          -3.276  -8.215  -3.095  0.00  0.00    -0.648 OA
ATOM     28  O3  <0> d          -5.014  -7.016  -3.078  0.00  0.00    -0.648 OA
ENDBRANCH  25  26
ENDBRANCH  24  25
ENDBRANCH  15  24
BRANCH  19  29
ATOM     29  C19 <0> d           3.165  -3.091  -2.931  0.00  0.00     0.096 C 
ATOM     30  C23 <0> d           4.154  -3.936  -3.752  0.00  0.00     0.026 C 
ATOM     31  C22 <0> d           3.868  -3.631  -5.237  0.00  0.00     0.002 C 
ATOM     32  C21 <0> d           3.197  -2.236  -5.215  0.00  0.00     0.002 C 
ATOM     33  C20 <0> d           2.312  -2.301  -3.946  0.00  0.00     0.026 C 
ENDBRANCH  19  29
TORSDOF 4
