REMARK  2 active torsions:
REMARK  status: ('A' for Active; 'I' for Inactive)
REMARK    1  A    between atoms: C8_10  and  C11_13 
REMARK    2  A    between atoms: C11_13  and  C12_14 
ROOT
ATOM      1  C1  <0> d           2.396   0.040  -0.024  0.00  0.00     0.047 A 
ATOM      2  C2  <0> d           1.207  -0.674  -0.017  0.00  0.00    -0.045 A 
ATOM      3  C3  <0> d           0.002  -0.004   0.002  0.00  0.00    -0.018 A 
ATOM      4  C4  <0> d          -0.017   1.384   0.010  0.00  0.00     0.049 A 
ATOM      5  C5  <0> d           1.166   2.101   0.002  0.00  0.00     0.105 A 
ATOM      6  C6  <0> d           2.383   1.423  -0.014  0.00  0.00     0.105 A 
ATOM      7  O1  <0> d           3.393   2.341  -0.017  0.00  0.00    -0.323 OA
ATOM      8  C7  <0> d           2.791   3.578   0.409  0.00  0.00     0.352 C 
ATOM      9  O2  <0> d           1.414   3.443   0.008  0.00  0.00    -0.323 OA
ATOM     10  C8  <0> d          -1.314  -0.737   0.022  0.00  0.00     0.223 C 
ATOM     11  C9  <0> d          -0.069  -2.767   0.397  0.00  0.00     0.237 C 
ATOM     12  C10 <0> d           1.275  -2.179  -0.034  0.00  0.00     0.066 C 
ATOM     13  N1  <0> d          -1.135  -2.133  -0.401  0.00  0.00    -0.066 N 
ATOM     14  H16 <0> d          -0.877  -2.157  -1.395  0.00  0.00     0.278 HD
ATOM     15  H17 <0> d          -2.014  -2.645  -0.263  0.00  0.00     0.278 HD
ENDROOT
BRANCH  10  16
ATOM     16  C11 <0> d          -2.291  -0.046  -0.931  0.00  0.00     0.078 C 
BRANCH  16  17
ATOM     17  C12 <0> d          -3.645  -0.700  -0.823  0.00  0.00    -0.036 A 
ATOM     18  C17 <0> d          -3.894  -1.885  -1.490  0.00  0.00     0.020 A 
ATOM     19  C16 <0> d          -5.133  -2.491  -1.390  0.00  0.00     0.059 A 
ATOM     20 Br1  <0> d          -2.535  -2.683  -2.536  0.00  0.00    -0.050 Br
ATOM     21  C15 <0> d          -6.132  -1.905  -0.630  0.00  0.00     0.106 A 
ATOM     22  C14 <0> d          -5.882  -0.708   0.038  0.00  0.00     0.105 A 
ATOM     23  O3  <0> d          -7.418  -2.286  -0.376  0.00  0.00    -0.323 OA
ATOM     24  C13 <0> d          -4.637  -0.110  -0.062  0.00  0.00     0.048 A 
ATOM     25  O4  <0> d          -7.012  -0.340   0.709  0.00  0.00    -0.323 OA
ATOM     26  C18 <0> d          -7.823  -1.528   0.778  0.00  0.00     0.352 C 
ENDBRANCH  16  17
ENDBRANCH  10  16
TORSDOF 2
