REMARK  4 active torsions:
REMARK  status: ('A' for Active; 'I' for Inactive)
REMARK    1  A    between atoms: N1_4  and  C13_17 
REMARK    2  A    between atoms: C4_5  and  C5_6 
REMARK       I    between atoms: C5_6  and  N2_8 
REMARK    3  A    between atoms: N2_8  and  C6_9 
REMARK    4  A    between atoms: C12_15  and  N3_16 
ROOT
ATOM      1  C5  <0> d          -1.312  -0.857   0.024  0.00  0.00     0.268 C 
ATOM      2  O1  <0> d          -2.405  -0.327  -0.049  0.00  0.00    -0.266 OA
ATOM      3  N2  <0> d          -1.219  -2.198   0.125  0.00  0.00    -0.349 N 
ATOM      4  H5  <0> d          -0.354  -2.616   0.258  0.00  0.00     0.163 HD
ENDROOT
BRANCH   3   5
ATOM      5  C6  <0> d          -2.425  -3.025   0.033  0.00  0.00     0.115 C 
ATOM      6  C12 <0> d          -2.189  -4.335   0.808  0.00  0.00     0.206 C 
ATOM      7  C11 <0> d          -1.374  -5.328   0.030  0.00  0.00     0.035 C 
ATOM      8  C10 <0> d          -2.337  -6.277  -0.713  0.00  0.00     0.002 C 
ATOM      9  C9  <0> d          -2.867  -5.686  -1.932  0.00  0.00     0.000 C 
ATOM     10  C8  <0> d          -3.697  -4.416  -1.657  0.00  0.00     0.002 C 
ATOM     11  C7  <0> d          -2.752  -3.263  -1.453  0.00  0.00     0.027 C 
BRANCH   6  12
ATOM     12  N3  <0> d          -1.488  -4.027   2.061  0.00  0.00    -0.073 N 
ATOM     13  H16 <0> d          -2.050  -3.398   2.616  0.00  0.00     0.274 HD
ATOM     14  H17 <0> d          -1.329  -4.879   2.577  0.00  0.00     0.274 HD
ATOM     15  H23 <0> d          -0.603  -3.590   1.853  0.00  0.00     0.274 HD
ENDBRANCH   6  12
ENDBRANCH   3   5
BRANCH   1  16
ATOM     16  C4  <0> d          -0.096  -0.038   0.003  0.00  0.00     0.104 A 
ATOM     17  C1  <0> d           1.202  -0.505  -0.021  0.00  0.00     0.056 A 
ATOM     18  C2  <0> d           2.041   0.614  -0.036  0.00  0.00     0.029 A 
ATOM     19  C3  <0> d           1.259   1.720  -0.022  0.00  0.00     0.111 A 
ATOM     20 Br1  <0> d           3.932   0.587  -0.071  0.00  0.00    -0.050 Br
ATOM     21  N1  <0> d          -0.042   1.338   0.002  0.00  0.00    -0.346 N 
BRANCH  21  22
ATOM     22  C13 <0> d          -1.197   2.238   0.023  0.00  0.00     0.090 A 
ATOM     23  C15 <0> d          -1.385   3.117   1.261  0.00  0.00     0.028 A 
ATOM     24  C14 <0> d          -0.923   3.741  -0.057  0.00  0.00     0.028 A 
ENDBRANCH  21  22
ENDBRANCH   1  16
TORSDOF 4
