REMARK  8 active torsions:
REMARK  status: ('A' for Active; 'I' for Inactive)
REMARK    1  A    between atoms: N1_2  and  C2_3 
REMARK    2  A    between atoms: N1_2  and  C4_6 
REMARK    3  A    between atoms: C2_3  and  C3_4 
REMARK    4  A    between atoms: C3_4  and  O1_5 
REMARK    5  A    between atoms: C4_6  and  C5_7 
REMARK    6  A    between atoms: C8_11  and  O4_20 
REMARK    7  A    between atoms: N2_13  and  C10_14 
REMARK    8  A    between atoms: C10_14  and  C11_15 
ROOT
ATOM      1  C5  <0> d          -0.494  -0.279  -2.515  0.00  0.00     0.043 A 
ATOM      2  C6  <0> d          -0.234   0.417  -3.645  0.00  0.00     0.084 A 
ATOM      3  C7  <0> d          -1.260   0.591  -4.601  0.00  0.00     0.208 A 
ATOM      4  O2  <0> d          -1.053   1.216  -5.631  0.00  0.00    -0.285 OA
ATOM      5  C8  <0> d          -2.535   0.028  -4.340  0.00  0.00     0.131 A 
ATOM      6  C9  <0> d          -2.731  -0.658  -3.189  0.00  0.00     0.131 A 
ATOM      7  N2  <0> d          -1.720  -0.811  -2.294  0.00  0.00    -0.353 N 
ENDROOT
BRANCH   1   8
ATOM      8  C4  <0> d           0.596  -0.469  -1.491  0.00  0.00     0.329 C 
BRANCH   8   9
ATOM      9  N1  <0> d           1.428  -1.619  -1.869  0.00  0.00     0.091 N 
ATOM     10  C1  <0> d           0.680  -2.876  -1.736  0.00  0.00     0.310 C 
BRANCH   9  11
ATOM     11  C2  <0> d           2.665  -1.656  -1.079  0.00  0.00     0.298 C 
BRANCH  11  12
ATOM     12  C3  <0> d           3.668  -2.601  -1.744  0.00  0.00     0.194 C 
BRANCH  12  13
ATOM     13  O1  <0> d           4.019  -2.092  -3.033  0.00  0.00    -0.399 OA
ATOM     14  H9  <0> d           4.592  -2.679  -3.544  0.00  0.00     0.209 HD
ENDBRANCH  12  13
ENDBRANCH  11  12
ENDBRANCH   9  11
ENDBRANCH   8   9
ENDBRANCH   1   8
BRANCH   7  15
ATOM     15  C10 <0> d          -1.962  -1.564  -1.061  0.00  0.00     0.160 C 
BRANCH  15  16
ATOM     16  C11 <0> d          -2.589  -0.640  -0.015  0.00  0.00     0.139 C 
ATOM     17  O3  <0> d          -1.717   0.469   0.258  0.00  0.00    -0.384 OA
ATOM     18  C14 <0> d          -1.780   0.809   1.649  0.00  0.00     0.168 C 
ATOM     19  C13 <0> d          -2.743  -0.187   2.330  0.00  0.00     0.029 C 
ATOM     20  C12 <0> d          -2.738  -1.382   1.337  0.00  0.00     0.035 C 
ENDBRANCH  15  16
ENDBRANCH   7  15
BRANCH   5  21
ATOM     21  O4  <0> d          -3.549   0.174  -5.236  0.00  0.00    -0.356 OA
ATOM     22  H22 <0> d          -3.308   0.680  -6.024  0.00  0.00     0.218 HD
ENDBRANCH   5  21
TORSDOF 8
