REMARK  2 active torsions:
REMARK  status: ('A' for Active; 'I' for Inactive)
REMARK    1  A    between atoms: C2_2  and  N1_3 
REMARK    2  A    between atoms: N1_3  and  C3_4 
ROOT
ATOM      1  C3  <0> d          -1.467  -1.978   0.053  0.00  0.00     0.221 C 
ATOM      2  C4  <0> d          -2.912  -2.380  -0.184  0.00  0.00     0.057 C 
ATOM      3  C5  <0> d          -3.010  -3.913  -0.210  0.00  0.00     0.112 C 
ATOM      4  S1  <0> d          -2.757  -4.488   1.497  0.00  0.00     0.179 S 
ATOM      5  O1  <0> d          -2.300  -5.833   1.500  0.00  0.00    -0.222 OA
ATOM      6  O2  <0> d          -3.846  -4.088   2.318  0.00  0.00    -0.222 OA
ATOM      7  C6  <0> d          -1.381  -3.538   2.065  0.00  0.00     0.068 A 
ATOM      8  C7  <0> d          -0.910  -2.456   1.361  0.00  0.00    -0.006 A 
ATOM      9  C8  <0> d           0.168  -1.741   1.879  0.00  0.00     0.018 A 
ATOM     10  C9  <0> d           0.763  -2.107   3.069  0.00  0.00    -0.051 A 
ATOM     11  C10 <0> d           0.285  -3.201   3.765  0.00  0.00    -0.050 A 
ATOM     12  C11 <0> d          -0.780  -3.911   3.258  0.00  0.00     0.031 A 
ATOM     13  C12 <0> d           1.099  -3.404   5.025  0.00  0.00     0.039 C 
ATOM     14  C13 <0> d           2.390  -2.587   4.808  0.00  0.00     0.009 C 
ATOM     15  C14 <0> d           1.929  -1.496   3.818  0.00  0.00     0.039 C 
ATOM     16  C15 <0> d          -4.393  -4.339  -0.707  0.00  0.00     0.026 C 
ENDROOT
BRANCH   1  17
ATOM     17  N1  <0> d          -1.376  -0.512   0.012  0.00  0.00    -0.067 N 
ATOM     18  H8  <0> d          -0.422  -0.230   0.179  0.00  0.00     0.277 HD
ATOM     19  H22 <0> d          -1.972  -0.119   0.725  0.00  0.00     0.277 HD
BRANCH  17  20
ATOM     20  C2  <0> d          -1.806  -0.031  -1.307  0.00  0.00     0.228 C 
ATOM     21  C1  <0> d          -1.586   1.480  -1.395  0.00  0.00     0.034 C 
ENDBRANCH  17  20
ENDBRANCH   1  17
TORSDOF 2
