REMARK  6 active torsions:
REMARK  status: ('A' for Active; 'I' for Inactive)
REMARK    1  A    between atoms: C2_2  and  N1_5 
REMARK    2  A    between atoms: C5_6  and  C6_10 
REMARK    3  A    between atoms: C6_10  and  C7_11 
REMARK    4  A    between atoms: C6_10  and  N6_31 
REMARK    5  A    between atoms: C11_15  and  O3_25 
REMARK    6  A    between atoms: C12_16  and  O2_23 
ROOT
ATOM      1  C7  <0> d          -3.479   2.997  -0.323  0.00  0.00     0.049 A 
ATOM      2  C8  <0> d          -2.332   3.719  -0.408  0.00  0.00     0.029 A 
ATOM      3  C9  <0> d          -1.071   3.007  -0.606  0.00  0.00    -0.006 A 
ATOM      4  C10 <0> d           0.141   3.701  -0.717  0.00  0.00     0.053 A 
ATOM      5  C11 <0> d           1.313   3.002  -0.902  0.00  0.00     0.102 A 
ATOM      6  C12 <0> d           1.296   1.605  -0.981  0.00  0.00     0.103 A 
ATOM      7  C13 <0> d           0.105   0.910  -0.873  0.00  0.00     0.070 A 
ATOM      8  C14 <0> d          -1.086   1.601  -0.690  0.00  0.00     0.048 A 
ATOM      9  N5  <0> d          -2.286   0.926  -0.586  0.00  0.00    -0.322 N 
ATOM     10  H2  <0> d          -2.296  -0.072  -0.643  0.00  0.00     0.169 HD
ATOM     11  C15 <0> d          -3.441   1.591  -0.410  0.00  0.00     0.254 A 
ATOM     12  O1  <0> d          -4.481   0.962  -0.322  0.00  0.00    -0.268 OA
ENDROOT
BRANCH   1  13
ATOM     13  C6  <0> d          -4.796   3.701  -0.125  0.00  0.00     0.299 C 
BRANCH  13  14
ATOM     14  C5  <0> d          -5.671   3.481  -1.333  0.00  0.00     0.184 A 
ATOM     15  N1  <0> d          -6.010   4.397  -2.258  0.00  0.00    -0.223 N 
ATOM     16  N4  <0> d          -6.765   3.806  -3.120  0.00  0.00    -0.043 NA
ATOM     17  N3  <0> d          -6.907   2.574  -2.772  0.00  0.00    -0.023 NA
ATOM     18  N2  <0> d          -6.244   2.357  -1.689  0.00  0.00    -0.111 NA
BRANCH  15  19
ATOM     19  C2  <0> d          -5.598   5.803  -2.281  0.00  0.00     0.048 C 
ATOM     20  C1  <0> d          -4.071   5.888  -2.293  0.00  0.00     0.040 C 
ATOM     21  C3  <0> d          -6.156   6.477  -3.537  0.00  0.00     0.040 C 
ATOM     22  C4  <0> d          -6.139   6.514  -1.038  0.00  0.00     0.040 C 
ENDBRANCH  15  19
ENDBRANCH  13  14
BRANCH  13  23
ATOM     23  N6  <0> d          -5.475   3.166   1.093  0.00  0.00    -0.056 N 
ATOM     24  C18 <0> d          -4.605   3.313   2.271  0.00  0.00     0.236 C 
ATOM     25  C19 <0> d          -5.615   3.208   3.442  0.00  0.00     0.029 C 
ATOM     26  C20 <0> d          -6.856   3.950   2.895  0.00  0.00     0.029 C 
ATOM     27  C21 <0> d          -6.705   3.913   1.363  0.00  0.00     0.236 C 
ATOM     28  H29 <0> d          -5.697   2.175   0.947  0.00  0.00     0.281 HD
ENDBRANCH  13  23
ENDBRANCH   1  13
BRANCH   5  29
ATOM     29  O3  <0> d           2.492   3.672  -1.010  0.00  0.00    -0.353 OA
ATOM     30  C17 <0> d           2.438   5.097  -0.921  0.00  0.00     0.210 C 
ENDBRANCH   5  29
BRANCH   6  31
ATOM     31  O2  <0> d           2.458   0.926  -1.165  0.00  0.00    -0.353 OA
ATOM     32  C16 <0> d           2.372  -0.498  -1.237  0.00  0.00     0.210 C 
ENDBRANCH   6  31
TORSDOF 6
