REMARK  5 active torsions:
REMARK  status: ('A' for Active; 'I' for Inactive)
REMARK    1  A    between atoms: C5_6  and  C6_7 
REMARK       I    between atoms: C6_7  and  N2_9 
REMARK    2  A    between atoms: N2_9  and  C8_11 
REMARK    3  A    between atoms: C8_11  and  C9_12 
REMARK    4  A    between atoms: C9_12  and  C10_13 
REMARK    5  A    between atoms: C11_16  and  C12_18 
ROOT
ATOM      1  C10 <0> d           1.935   1.954   5.567  0.00  0.00     0.131 A 
ATOM      2  N3  <0> d           1.108   2.265   6.497  0.00  0.00    -0.118 NA
ATOM      3  O2  <0> d           1.791   2.691   7.662  0.00  0.00    -0.226 OA
ATOM      4  C11 <0> d           3.193   2.613   7.359  0.00  0.00     0.281 A 
ATOM      5  N4  <0> d           3.238   2.119   5.973  0.00  0.00    -0.346 N 
ATOM      6  H16 <0> d           4.034   1.945   5.447  0.00  0.00     0.163 HD
ENDROOT
BRANCH   1   7
ATOM      7  C9  <0> d           1.529   1.462   4.201  0.00  0.00     0.100 C 
BRANCH   7   8
ATOM      8  C8  <0> d           0.002   1.406   4.113  0.00  0.00     0.133 C 
BRANCH   8   9
ATOM      9  N2  <0> d          -0.393   0.929   2.785  0.00  0.00    -0.351 N 
ATOM     10  C6  <0> d          -0.557  -0.391   2.565  0.00  0.00     0.270 C 
ATOM     11  O1  <0> d          -0.514  -1.173   3.497  0.00  0.00    -0.266 OA
ATOM     12  C7  <0> d          -0.610   1.885   1.697  0.00  0.00     0.153 C 
BRANCH  10  13
ATOM     13  C5  <0> d          -0.788  -0.884   1.204  0.00  0.00     0.102 A 
ATOM     14  N1  <0> d          -0.842  -2.204   0.814  0.00  0.00    -0.357 N 
ATOM     15  C1  <0> d          -0.678  -3.362   1.696  0.00  0.00     0.156 C 
ATOM     16  C2  <0> d          -1.078  -2.252  -0.519  0.00  0.00     0.091 A 
ATOM     17  C3  <0> d          -1.170  -0.988  -0.995  0.00  0.00     0.020 A 
ATOM     18  C4  <0> d          -0.986  -0.111   0.079  0.00  0.00     0.037 A 
ENDBRANCH  10  13
ENDBRANCH   8   9
ENDBRANCH   7   8
ENDBRANCH   1   7
BRANCH   4  19
ATOM     19  C12 <0> d           3.840   3.995   7.463  0.00  0.00     0.157 A 
ATOM     20  N5  <0> d           3.735   4.500   8.837  0.00  0.00    -0.377 N 
ATOM     21  C19 <0> d           4.947   4.685   9.306  0.00  0.00     0.038 A 
ATOM     22  H21 <0> d           2.909   4.669   9.316  0.00  0.00     0.160 HD
ATOM     23  C14 <0> d           5.954   4.320   8.285  0.00  0.00    -0.010 A 
ATOM     24  C18 <0> d           5.412   5.153  10.566  0.00  0.00     0.031 A 
ATOM     25  C13 <0> d           5.320   3.901   7.166  0.00  0.00     0.016 A 
ATOM     26  C15 <0> d           7.374   4.461   8.629  0.00  0.00     0.037 A 
ATOM     27  C16 <0> d           7.710   4.917   9.858  0.00  0.00     0.035 A 
ATOM     28  C17 <0> d           6.736   5.257  10.809  0.00  0.00     0.026 A 
ATOM     29 Cl1  <0> d           9.388   5.085  10.269  0.00  0.00    -0.084 Cl
ENDBRANCH   4  19
TORSDOF 5
