REMARK  6 active torsions:
REMARK  status: ('A' for Active; 'I' for Inactive)
REMARK    1  A    between atoms: C4_5  and  N3_21 
REMARK    2  A    between atoms: C5_6  and  C6_7 
REMARK    3  A    between atoms: C6_7  and  O2_9 
REMARK    4  A    between atoms: O2_9  and  C7_10 
REMARK    5  A    between atoms: C7_10  and  C9_12 
REMARK       I    between atoms: C9_12  and  N1_14 
REMARK       I    between atoms: N1_14  and  C10_15 
REMARK       I    between atoms: C10_15  and  N2_17 
REMARK    6  A    between atoms: N2_17  and  C11_18 
REMARK       I    between atoms: N3_21  and  C14_22 
ROOT
ATOM      1  C6  <0> d          -2.968   1.588   0.070  0.00  0.00     0.297 C 
ATOM      2  O1  <0> d          -3.474   0.499  -0.125  0.00  0.00    -0.259 OA
ENDROOT
BRANCH   1   3
ATOM      3  C5  <0> d          -2.142   1.809   1.260  0.00  0.00     0.080 A 
ATOM      4  C2  <0> d          -0.718   1.572   1.248  0.00  0.00    -0.030 A 
ATOM      5  C1  <0> d          -0.013   1.086   0.008  0.00  0.00     0.050 C 
ATOM      6  C3  <0> d          -0.047   1.809   2.389  0.00  0.00    -0.012 A 
ATOM      7  S1  <0> d          -1.320   2.350   3.510  0.00  0.00    -0.076 SA
ATOM      8  C16 <0> d           1.428   1.654   2.655  0.00  0.00     0.057 C 
ATOM      9  C4  <0> d          -2.692   2.252   2.458  0.00  0.00     0.093 A 
BRANCH   9  10
ATOM     10  N3  <0> d          -4.017   2.549   2.740  0.00  0.00    -0.321 N 
ATOM     11  C14 <0> d          -4.364   2.975   3.970  0.00  0.00     0.218 C 
ATOM     12  O5  <0> d          -3.518   3.099   4.830  0.00  0.00    -0.274 OA
ATOM     13  C15 <0> d          -5.804   3.298   4.277  0.00  0.00     0.117 C 
ATOM     14  H17 <0> d          -4.693   2.450   2.052  0.00  0.00     0.169 HD
ENDBRANCH   9  10
ENDBRANCH   1   3
BRANCH   1  15
ATOM     15  O2  <0> d          -3.167   2.592  -0.808  0.00  0.00    -0.303 OA
BRANCH  15  16
ATOM     16  C7  <0> d          -3.996   2.301  -1.964  0.00  0.00     0.220 C 
ATOM     17  C8  <0> d          -5.457   2.611  -1.635  0.00  0.00     0.050 C 
BRANCH  16  18
ATOM     18  C9  <0> d          -3.552   3.151  -3.127  0.00  0.00     0.254 C 
ATOM     19  O3  <0> d          -2.629   3.925  -2.994  0.00  0.00    -0.270 OA
ATOM     20  N1  <0> d          -4.182   3.051  -4.314  0.00  0.00    -0.277 N 
ATOM     21  C10 <0> d          -3.785   3.811  -5.354  0.00  0.00     0.323 C 
ATOM     22  H8  <0> d          -4.921   2.432  -4.420  0.00  0.00     0.173 HD
ATOM     23  O4  <0> d          -2.860   4.587  -5.221  0.00  0.00    -0.247 OA
ATOM     24  N2  <0> d          -4.415   3.711  -6.541  0.00  0.00    -0.339 N 
ATOM     25  H9  <0> d          -5.154   3.092  -6.647  0.00  0.00     0.164 HD
BRANCH  24  26
ATOM     26  C11 <0> d          -3.984   4.537  -7.671  0.00  0.00     0.078 C 
ATOM     27  C12 <0> d          -2.825   3.848  -8.394  0.00  0.00     0.032 C 
ATOM     28  C13 <0> d          -5.152   4.723  -8.642  0.00  0.00     0.032 C 
ENDBRANCH  24  26
ENDBRANCH  16  18
ENDBRANCH  15  16
ENDBRANCH   1  15
TORSDOF 6
