REMARK  5 active torsions:
REMARK  status: ('A' for Active; 'I' for Inactive)
REMARK    1  A    between atoms: N1_5  and  C5_7 
REMARK    2  A    between atoms: C5_7  and  C6_8 
REMARK       I    between atoms: C6_8  and  N3_10 
REMARK    3  A    between atoms: N3_10  and  C7_11 
REMARK    4  A    between atoms: C7_11  and  C8_12 
REMARK    5  A    between atoms: C7_11  and  C14_19 
ROOT
ATOM      1  C7  <0> d           3.135  -5.127   2.830  0.00  0.00     0.187 C 
ENDROOT
BRANCH   1   2
ATOM      2  N3  <0> d           1.747  -4.751   2.550  0.00  0.00    -0.344 N 
ATOM      3  C6  <0> d           1.482  -3.682   1.773  0.00  0.00     0.238 C 
ATOM      4  O1  <0> d           2.393  -3.031   1.306  0.00  0.00    -0.272 OA
ATOM      5  H8  <0> d           1.019  -5.271   2.923  0.00  0.00     0.163 HD
BRANCH   3   6
ATOM      6  C5  <0> d           0.055  -3.295   1.485  0.00  0.00     0.253 C 
BRANCH   6   7
ATOM      7  N1  <0> d           0.034  -2.109   0.625  0.00  0.00    -0.265 N 
ATOM      8  C4  <0> d           0.028  -2.107  -0.725  0.00  0.00     0.029 A 
ATOM      9  C3  <0> d           0.008  -0.818  -1.135  0.00  0.00     0.055 A 
ATOM     10  C18 <0> d           0.040  -3.323  -1.615  0.00  0.00     0.070 C 
ATOM     11  C2  <0> d           0.002  -0.004   0.002  0.00  0.00     0.053 A 
ATOM     12  C1  <0> d          -0.018   1.503   0.010  0.00  0.00     0.072 C 
ATOM     13  N2  <0> d           0.023  -0.777   1.058  0.00  0.00    -0.177 NA
ENDBRANCH   6   7
ENDBRANCH   3   6
ENDBRANCH   1   2
BRANCH   1  14
ATOM     14  C8  <0> d           3.202  -6.597   3.155  0.00  0.00    -0.028 A 
ATOM     15  C13 <0> d           4.247  -7.364   2.675  0.00  0.00     0.012 A 
ATOM     16  C12 <0> d           4.311  -8.711   2.976  0.00  0.00     0.043 A 
ATOM     17  C11 <0> d           3.323  -9.295   3.750  0.00  0.00     0.116 A 
ATOM     18  C10 <0> d           2.274  -8.527   4.226  0.00  0.00     0.043 A 
ATOM     19  F1  <0> d           3.382 -10.613   4.041  0.00  0.00    -0.206 F 
ATOM     20  C9  <0> d           2.214  -7.178   3.928  0.00  0.00     0.012 A 
ENDBRANCH   1  14
BRANCH   1  21
ATOM     21  C14 <0> d           3.645  -4.330   4.003  0.00  0.00     0.133 A 
ATOM     22  N5  <0> d           4.845  -3.716   4.076  0.00  0.00    -0.346 N 
ATOM     23  C16 <0> d           4.914  -3.105   5.298  0.00  0.00     0.111 A 
ATOM     24  C17 <0> d           5.880  -3.704   3.038  0.00  0.00     0.157 C 
ATOM     25  C15 <0> d           3.758  -3.373   5.934  0.00  0.00     0.136 A 
ATOM     26  N4  <0> d           3.001  -4.123   5.119  0.00  0.00    -0.243 NA
ENDBRANCH   1  21
TORSDOF 5
