REMARK  7 active torsions:
REMARK  status: ('A' for Active; 'I' for Inactive)
REMARK    1  A    between atoms: C2_2  and  C3_3 
REMARK    2  A    between atoms: C2_2  and  N3_20 
REMARK    3  A    between atoms: C3_3  and  C4_4 
REMARK    4  A    between atoms: C3_3  and  N1_11 
REMARK    5  A    between atoms: N1_11  and  C11_13 
REMARK    6  A    between atoms: C11_13  and  C12_14 
REMARK       I    between atoms: C12_14  and  N2_16 
REMARK    7  A    between atoms: N2_16  and  C13_17 
ROOT
ATOM      1  C3  <0> d           0.643  -0.615   1.225  0.00  0.00     0.285 C 
ENDROOT
BRANCH   1   2
ATOM      2  C2  <0> d          -0.179  -0.238  -0.009  0.00  0.00     0.217 C 
ATOM      3  C1  <0> d           0.572  -0.664  -1.272  0.00  0.00     0.042 C 
BRANCH   2   4
ATOM      4  N3  <0> d          -1.479  -0.921   0.041  0.00  0.00    -0.073 N 
ATOM      5  H23 <0> d          -1.334  -1.919   0.056  0.00  0.00     0.274 HD
ATOM      6  H24 <0> d          -1.974  -0.640   0.874  0.00  0.00     0.274 HD
ATOM      7  H25 <0> d          -2.022  -0.672  -0.772  0.00  0.00     0.274 HD
ENDBRANCH   2   4
ENDBRANCH   1   2
BRANCH   1   8
ATOM      8  C4  <0> d           0.887  -2.102   1.230  0.00  0.00    -0.022 A 
ATOM      9  C9  <0> d           2.099  -2.606   0.797  0.00  0.00     0.028 A 
ATOM     10  C8  <0> d           2.324  -3.970   0.807  0.00  0.00     0.011 A 
ATOM     11  C7  <0> d           1.333  -4.832   1.241  0.00  0.00     0.019 A 
ATOM     12 Br1  <0> d           3.986  -4.659   0.223  0.00  0.00    -0.051 Br
ATOM     13  C6  <0> d           0.119  -4.328   1.669  0.00  0.00     0.002 A 
ATOM     14  C5  <0> d          -0.104  -2.964   1.663  0.00  0.00     0.009 A 
ENDBRANCH   1   8
BRANCH   1  15
ATOM     15  N1  <0> d          -0.092  -0.235   2.438  0.00  0.00     0.104 N 
ATOM     16  C10 <0> d           0.608  -0.697   3.644  0.00  0.00     0.311 C 
BRANCH  15  17
ATOM     17  C11 <0> d          -0.318   1.216   2.484  0.00  0.00     0.375 C 
BRANCH  17  18
ATOM     18  C12 <0> d          -1.389   1.526   3.498  0.00  0.00     0.246 C 
ATOM     19  O1  <0> d          -1.912   0.627   4.122  0.00  0.00    -0.272 OA
ATOM     20  N2  <0> d          -1.764   2.802   3.713  0.00  0.00    -0.356 N 
ATOM     21  H15 <0> d          -1.345   3.521   3.214  0.00  0.00     0.162 HD
BRANCH  20  22
ATOM     22  C13 <0> d          -2.805   3.104   4.699  0.00  0.00     0.076 C 
ATOM     23  C14 <0> d          -2.626   4.535   5.207  0.00  0.00     0.032 C 
ATOM     24  C15 <0> d          -4.182   2.962   4.046  0.00  0.00     0.032 C 
ENDBRANCH  20  22
ENDBRANCH  17  18
ENDBRANCH  15  17
ENDBRANCH   1  15
TORSDOF 7
