REMARK  8 active torsions:
REMARK  status: ('A' for Active; 'I' for Inactive)
REMARK    1  A    between atoms: C2_2  and  N3_18 
REMARK    2  A    between atoms: C5_5  and  N1_8 
REMARK       I    between atoms: N1_8  and  C7_9 
REMARK    3  A    between atoms: C7_9  and  C8_11 
REMARK    4  A    between atoms: C8_11  and  N2_12 
REMARK    5  A    between atoms: N2_12  and  C9_13 
REMARK    6  A    between atoms: C9_13  and  C10_14 
REMARK    7  A    between atoms: C10_14  and  C11_15 
REMARK    8  A    between atoms: C11_15  and  O2_16 
ROOT
ATOM      1  N1  <0> d           1.238  -2.080  -0.021  0.00  0.00    -0.323 N 
ATOM      2  C7  <0> d           0.156  -2.774   0.385  0.00  0.00     0.247 C 
ATOM      3  O1  <0> d          -0.867  -2.189   0.670  0.00  0.00    -0.271 OA
ATOM      4  H3  <0> d           2.033  -2.551  -0.319  0.00  0.00     0.169 HD
ENDROOT
BRANCH   1   5
ATOM      5  C5  <0> d           1.215  -0.681  -0.014  0.00  0.00     0.070 A 
ATOM      6  C4  <0> d           1.604   0.016   1.124  0.00  0.00     0.041 A 
ATOM      7  C3  <0> d           1.581   1.398   1.128  0.00  0.00     0.057 A 
ATOM      8 Br2  <0> d           2.166  -0.926   2.664  0.00  0.00    -0.049 Br
ATOM      9  C2  <0> d           1.171   2.087   0.001  0.00  0.00     0.105 A 
ATOM     10  C1  <0> d           0.783   1.397  -1.132  0.00  0.00     0.057 A 
ATOM     11  C6  <0> d           0.804   0.015  -1.143  0.00  0.00     0.041 A 
ATOM     12 Br1  <0> d           0.272  -0.927  -2.694  0.00  0.00    -0.049 Br
BRANCH   9  13
ATOM     13  N3  <0> d           1.147   3.567   0.009  0.00  0.00    -0.116 N 
ATOM     14  O3  <0> d           0.789   4.171  -0.975  0.00  0.00    -0.532 OA
ATOM     15  O4  <0> d           1.486   4.172   1.000  0.00  0.00    -0.532 OA
ENDBRANCH   9  13
ENDBRANCH   1   5
BRANCH   2  16
ATOM     16  C8  <0> d           0.218  -4.277   0.483  0.00  0.00     0.334 C 
BRANCH  16  17
ATOM     17  N2  <0> d          -1.078  -4.791   0.944  0.00  0.00    -0.067 N 
ATOM     18  H6  <0> d          -1.290  -4.403   1.851  0.00  0.00     0.277 HD
ATOM     19  H14 <0> d          -1.798  -4.527   0.288  0.00  0.00     0.277 HD
BRANCH  17  20
ATOM     20  C9  <0> d          -1.018  -6.256   1.041  0.00  0.00     0.235 C 
BRANCH  20  21
ATOM     21  C10 <0> d          -2.368  -6.792   1.521  0.00  0.00     0.053 C 
BRANCH  21  22
ATOM     22  C11 <0> d          -2.305  -8.317   1.621  0.00  0.00     0.165 C 
BRANCH  22  23
ATOM     23  O2  <0> d          -3.566  -8.817   2.070  0.00  0.00    -0.401 OA
ATOM     24  H13 <0> d          -3.599  -9.780   2.157  0.00  0.00     0.209 HD
ENDBRANCH  22  23
ENDBRANCH  21  22
ENDBRANCH  20  21
ENDBRANCH  17  20
ENDBRANCH  16  17
ENDBRANCH   2  16
TORSDOF 8
