REMARK  6 active torsions:
REMARK  status: ('A' for Active; 'I' for Inactive)
REMARK    1  A    between atoms: C3_3  and  C6_12 
REMARK    2  A    between atoms: C6_12  and  C7_13 
REMARK    3  A    between atoms: C7_13  and  C8_14 
REMARK       I    between atoms: C8_14  and  N3_16 
REMARK    4  A    between atoms: N3_16  and  C9_17 
REMARK    5  A    between atoms: C9_17  and  C10_18 
REMARK    6  A    between atoms: C10_18  and  N4_21 
ROOT
ATOM      1  C8  <0> d          -7.203   0.834  -0.486  0.00  0.00     0.217 C 
ATOM      2  O3  <0> d          -6.210   1.222   0.091  0.00  0.00    -0.274 OA
ATOM      3  N3  <0> d          -7.362   1.089  -1.800  0.00  0.00    -0.359 N 
ATOM      4  H12 <0> d          -8.157   0.778  -2.262  0.00  0.00     0.162 HD
ENDROOT
BRANCH   1   5
ATOM      5  C7  <0> d          -8.260   0.066   0.266  0.00  0.00     0.107 C 
BRANCH   5   6
ATOM      6  C6  <0> d          -7.837  -0.085   1.728  0.00  0.00     0.055 C 
BRANCH   6   7
ATOM      7  C3  <0> d          -8.893  -0.852   2.480  0.00  0.00     0.033 A 
ATOM      8  C2  <0> d          -8.780  -2.187   2.649  0.00  0.00     0.021 A 
ATOM      9  C1  <0> d          -7.592  -2.923   2.083  0.00  0.00     0.069 C 
ATOM     10  N2  <0> d          -9.750  -2.869   3.330  0.00  0.00    -0.312 N 
ATOM     11  C5  <0> d         -10.812  -2.221   3.843  0.00  0.00     0.327 A 
ATOM     12  H2  <0> d          -9.671  -3.829   3.447  0.00  0.00     0.170 HD
ATOM     13  N1  <0> d         -10.951  -0.891   3.689  0.00  0.00    -0.275 N 
ATOM     14  O2  <0> d         -11.661  -2.846   4.449  0.00  0.00    -0.247 OA
ATOM     15  C4  <0> d         -10.018  -0.183   3.020  0.00  0.00     0.257 A 
ATOM     16  H1  <0> d         -11.724  -0.440   4.062  0.00  0.00     0.173 HD
ATOM     17  O1  <0> d         -10.143   1.020   2.881  0.00  0.00    -0.267 OA
ENDBRANCH   6   7
ENDBRANCH   5   6
ENDBRANCH   1   5
BRANCH   3  18
ATOM     18  C9  <0> d          -6.335   1.835  -2.531  0.00  0.00     0.161 C 
BRANCH  18  19
ATOM     19  C10 <0> d          -6.694   1.873  -4.018  0.00  0.00     0.136 C 
ATOM     20  C11 <0> d          -7.981   2.677  -4.211  0.00  0.00     0.048 C 
ATOM     21  C12 <0> d          -5.557   2.535  -4.800  0.00  0.00     0.048 C 
BRANCH  19  22
ATOM     22  N4  <0> d          -6.894   0.503  -4.509  0.00  0.00    -0.061 N 
ATOM     23  C17 <0> d          -7.204   0.540  -5.943  0.00  0.00     0.240 C 
ATOM     24  C16 <0> d          -7.493  -0.877  -6.443  0.00  0.00     0.008 C 
ATOM     25  C15 <0> d          -6.261  -1.757  -6.207  0.00  0.00     0.011 C 
ATOM     26  C18 <0> d          -8.687  -1.456  -5.680  0.00  0.00     0.011 C 
ATOM     27  C14 <0> d          -5.903  -1.728  -4.719  0.00  0.00     0.008 C 
ATOM     28  C13 <0> d          -5.673  -0.279  -4.283  0.00  0.00     0.240 C 
ATOM     29  C19 <0> d          -4.628  -2.541  -4.484  0.00  0.00     0.011 C 
ATOM     30  H33 <0> d          -7.661   0.077  -4.011  0.00  0.00     0.281 HD
ENDBRANCH  19  22
ENDBRANCH  18  19
ENDBRANCH   3  18
TORSDOF 6
