REMARK  3 active torsions:
REMARK  status: ('A' for Active; 'I' for Inactive)
REMARK    1  A    between atoms: C4_5  and  N2_7 
REMARK    2  A    between atoms: N2_7  and  C5_8 
REMARK    3  A    between atoms: C5_8  and  C6_9 
ROOT
ATOM      1  N2  <0> d           3.794  -1.198   0.940  0.00  0.00    -0.371 N 
ATOM      2  H8  <0> d           4.542  -1.320   0.334  0.00  0.00     0.161 HD
ENDROOT
BRANCH   1   3
ATOM      3  C4  <0> d           2.540  -0.933   0.440  0.00  0.00     0.136 C 
ATOM      4  N1  <0> d           2.198  -0.817  -0.811  0.00  0.00    -0.370 N 
ATOM      5  C3  <0> d           0.822  -0.558  -1.195  0.00  0.00     0.137 C 
ATOM      6  H17 <0> d           2.875  -0.905  -1.499  0.00  0.00     0.161 HD
ATOM      7  C2  <0> d           0.002  -0.004   0.002  0.00  0.00     0.069 C 
ATOM      8  C1  <0> d          -0.019   1.526   0.010  0.00  0.00     0.023 C 
ATOM      9  S1  <0> d           1.036  -0.677   1.372  0.00  0.00    -0.088 SA
ENDBRANCH   1   3
BRANCH   1  10
ATOM     10  C5  <0> d           4.001  -1.295   2.387  0.00  0.00     0.127 C 
BRANCH  10  11
ATOM     11  C6  <0> d           5.474  -1.594   2.672  0.00  0.00     0.018 C 
ATOM     12  C9  <0> d           5.663  -1.844   4.188  0.00  0.00     0.146 C 
ATOM     13  S2  <0> d           7.365  -1.219   4.492  0.00  0.00     0.144 S 
ATOM     14  C8  <0> d           7.764  -0.590   2.807  0.00  0.00     0.141 C 
ATOM     15  O1  <0> d           7.300  -0.121   5.392  0.00  0.00    -0.228 OA
ATOM     16  O2  <0> d           8.216  -2.317   4.789  0.00  0.00    -0.228 OA
ATOM     17  C7  <0> d           6.333  -0.399   2.228  0.00  0.00     0.022 C 
ENDBRANCH  10  11
ENDBRANCH   1  10
TORSDOF 3
