REMARK  4 active torsions:
REMARK  status: ('A' for Active; 'I' for Inactive)
REMARK    1  A    between atoms: C2_2  and  N1_3 
REMARK    2  A    between atoms: C9_10  and  N2_12 
REMARK    3  A    between atoms: N2_12  and  S1_13 
REMARK    4  A    between atoms: S1_13  and  C11_16 
ROOT
ATOM      1  S1  <0> d          -4.766  -1.988   4.949  0.00  0.00     0.263 S 
ATOM      2  O1  <0> d          -5.890  -2.118   5.809  0.00  0.00    -0.200 OA
ATOM      3  O2  <0> d          -4.592  -2.799   3.796  0.00  0.00    -0.200 OA
ENDROOT
BRANCH   1   4
ATOM      4  N2  <0> d          -4.747  -0.415   4.430  0.00  0.00    -0.281 N 
ATOM      5  H12 <0> d          -5.441   0.198   4.717  0.00  0.00     0.179 HD
BRANCH   4   6
ATOM      6  C9  <0> d          -3.729   0.028   3.578  0.00  0.00     0.043 A 
ATOM      7  C8  <0> d          -3.349  -0.751   2.486  0.00  0.00     0.032 A 
ATOM      8  C7  <0> d          -2.350  -0.329   1.638  0.00  0.00     0.033 A 
ATOM      9  C6  <0> d          -1.709   0.883   1.867  0.00  0.00     0.045 A 
ATOM     10  N1  <0> d          -0.698   1.558   1.213  0.00  0.00    -0.350 N 
ATOM     11  C5  <0> d          -2.089   1.672   2.967  0.00  0.00    -0.005 A 
ATOM     12  C3  <0> d          -0.428   2.732   1.862  0.00  0.00     0.009 A 
ATOM     13  C4  <0> d          -1.237   2.863   2.926  0.00  0.00     0.038 A 
ATOM     14  C19 <0> d           0.619   3.731   1.443  0.00  0.00     0.068 C 
ATOM     15  C10 <0> d          -3.104   1.236   3.821  0.00  0.00     0.043 A 
BRANCH  10  16
ATOM     16  C2  <0> d          -0.013   1.086   0.008  0.00  0.00     0.124 C 
ATOM     17  C1  <0> d          -0.753   1.593  -1.232  0.00  0.00     0.027 C 
ENDBRANCH  10  16
ENDBRANCH   4   6
ENDBRANCH   1   4
BRANCH   1  18
ATOM     18  C11 <0> d          -3.336  -2.223   5.951  0.00  0.00     0.081 A 
ATOM     19  C16 <0> d          -3.403  -1.988   7.308  0.00  0.00     0.044 A 
ATOM     20  C15 <0> d          -2.269  -2.176   8.095  0.00  0.00     0.060 A 
ATOM     21  C14 <0> d          -1.067  -2.604   7.504  0.00  0.00     0.052 A 
ATOM     22  C17 <0> d          -2.286  -1.940   9.549  0.00  0.00     0.261 A 
ATOM     23  C13 <0> d          -1.018  -2.835   6.138  0.00  0.00     0.032 A 
ATOM     24  N4  <0> d           0.047  -2.783   8.312  0.00  0.00    -0.308 N 
ATOM     25  C12 <0> d          -2.151  -2.650   5.371  0.00  0.00     0.027 A 
ATOM     26  C18 <0> d          -0.022  -2.554   9.635  0.00  0.00     0.327 A 
ATOM     27  H2  <0> d           0.909  -3.087   7.907  0.00  0.00     0.170 HD
ATOM     28  N3  <0> d          -1.146  -2.145  10.244  0.00  0.00    -0.275 N 
ATOM     29  O4  <0> d           0.976  -2.724  10.308  0.00  0.00    -0.247 OA
ATOM     30  H1  <0> d          -1.139  -1.989  11.232  0.00  0.00     0.173 HD
ATOM     31  O3  <0> d          -3.300  -1.569  10.109  0.00  0.00    -0.267 OA
ENDBRANCH   1  18
TORSDOF 4
