REMARK  7 active torsions:
REMARK  status: ('A' for Active; 'I' for Inactive)
REMARK    1  A    between atoms: C2_2  and  N1_3 
REMARK    2  A    between atoms: N1_3  and  C3_4 
REMARK    3  A    between atoms: C3_4  and  C4_5 
REMARK    4  A    between atoms: C7_8  and  C8_10 
REMARK    5  A    between atoms: C8_10  and  N2_11 
REMARK    6  A    between atoms: N2_11  and  C10_13 
REMARK    7  A    between atoms: C10_13  and  C11_14 
ROOT
ATOM      1  C8  <0> d           4.452  -3.508   4.219  0.00  0.00     0.299 C 
ENDROOT
BRANCH   1   2
ATOM      2  C7  <0> d           3.079  -3.132   3.725  0.00  0.00     0.079 A 
ATOM      3  C6  <0> d           1.944  -3.174   4.446  0.00  0.00     0.037 A 
ATOM      4  C5  <0> d           0.901  -2.740   3.595  0.00  0.00     0.037 A 
ATOM      5  C4  <0> d           1.461  -2.459   2.405  0.00  0.00     0.079 A 
ATOM      6  O1  <0> d           2.779  -2.704   2.487  0.00  0.00    -0.316 OA
BRANCH   5   7
ATOM      7  C3  <0> d           0.733  -1.960   1.184  0.00  0.00     0.296 C 
BRANCH   7   8
ATOM      8  N1  <0> d           0.713  -0.491   1.192  0.00  0.00    -0.070 N 
ATOM      9  H6  <0> d           1.659  -0.141   1.185  0.00  0.00     0.277 HD
ATOM     10  H23 <0> d           0.240  -0.165   2.022  0.00  0.00     0.277 HD
BRANCH   8  11
ATOM     11  C2  <0> d           0.002  -0.004   0.002  0.00  0.00     0.228 C 
ATOM     12  C1  <0> d          -0.019   1.526   0.010  0.00  0.00     0.034 C 
ENDBRANCH   8  11
ENDBRANCH   7   8
ENDBRANCH   5   7
ENDBRANCH   1   2
BRANCH   1  13
ATOM     13  N2  <0> d           4.687  -4.937   3.972  0.00  0.00    -0.065 N 
ATOM     14  C9  <0> d           3.752  -5.733   4.778  0.00  0.00     0.270 C 
ATOM     15  H22 <0> d           4.543  -5.137   2.994  0.00  0.00     0.280 HD
BRANCH  13  16
ATOM     16  C10 <0> d           6.067  -5.277   4.344  0.00  0.00     0.273 C 
BRANCH  16  17
ATOM     17  C11 <0> d           6.347  -6.711   3.977  0.00  0.00    -0.033 A 
ATOM     18  C16 <0> d           6.853  -7.019   2.728  0.00  0.00     0.010 A 
ATOM     19  C15 <0> d           7.114  -8.334   2.393  0.00  0.00     0.019 A 
ATOM     20  C14 <0> d           6.860  -9.344   3.303  0.00  0.00     0.011 A 
ATOM     21  C13 <0> d           6.349  -9.036   4.551  0.00  0.00     0.019 A 
ATOM     22 Br1  <0> d           7.211 -11.144   2.843  0.00  0.00    -0.051 Br
ATOM     23  C12 <0> d           6.093  -7.720   4.888  0.00  0.00     0.010 A 
ENDBRANCH  16  17
ENDBRANCH  13  16
ENDBRANCH   1  13
TORSDOF 7
