REMARK  4 active torsions:
REMARK  status: ('A' for Active; 'I' for Inactive)
REMARK    1  A    between atoms: N1_2  and  C3_4 
REMARK    2  A    between atoms: N2_7  and  C7_9 
REMARK    3  A    between atoms: C7_9  and  C8_10 
REMARK    4  A    between atoms: C9_12  and  N5_19 
ROOT
ATOM      1  C8  <0> d           4.987  -2.054  -2.630  0.00  0.00     0.157 A 
ATOM      2  N3  <0> d           4.960  -3.374  -2.572  0.00  0.00    -0.214 NA
ATOM      3  C9  <0> d           5.601  -4.130  -3.448  0.00  0.00     0.136 A 
ATOM      4  C10 <0> d           6.345  -3.508  -4.488  0.00  0.00     0.046 A 
ATOM      5  C11 <0> d           7.125  -4.106  -5.558  0.00  0.00     0.025 A 
ATOM      6  C12 <0> d           7.750  -3.309  -6.437  0.00  0.00     0.053 A 
ATOM      7  S1  <0> d           7.330  -1.667  -5.882  0.00  0.00    -0.081 SA
ATOM      8  C13 <0> d           6.326  -2.096  -4.485  0.00  0.00     0.113 A 
ATOM      9  N4  <0> d           5.654  -1.420  -3.574  0.00  0.00    -0.223 NA
ENDROOT
BRANCH   1  10
ATOM     10  C7  <0> d           4.232  -1.256  -1.598  0.00  0.00     0.352 C 
BRANCH  10  11
ATOM     11  N2  <0> d           2.862  -1.015  -2.071  0.00  0.00     0.097 N 
ATOM     12  C5  <0> d           2.077  -2.264  -2.074  0.00  0.00     0.275 C 
ATOM     13  C4  <0> d           0.832  -2.023  -1.196  0.00  0.00     0.065 C 
ATOM     14  C3  <0> d           0.690  -0.478  -1.207  0.00  0.00     0.217 C 
ATOM     15  C6  <0> d           2.171  -0.027  -1.215  0.00  0.00     0.306 C 
BRANCH  14  16
ATOM     16  N1  <0> d           0.002  -0.004   0.002  0.00  0.00    -0.073 N 
ATOM     17  C1  <0> d          -0.018   1.465   0.010  0.00  0.00     0.269 C 
ATOM     18  C2  <0> d          -1.376  -0.512   0.012  0.00  0.00     0.269 C 
ATOM     19  H20 <0> d           0.490  -0.338   0.820  0.00  0.00     0.279 HD
ENDBRANCH  14  16
ENDBRANCH  10  11
ENDBRANCH   1  10
BRANCH   3  20
ATOM     20  N5  <0> d           5.549  -5.509  -3.352  0.00  0.00    -0.383 N 
ATOM     21  H18 <0> d           5.040  -5.927  -2.640  0.00  0.00     0.157 HD
ATOM     22  H19 <0> d           6.022  -6.058  -3.998  0.00  0.00     0.157 HD
ENDBRANCH   3  20
TORSDOF 4
