REMARK  5 active torsions:
REMARK  status: ('A' for Active; 'I' for Inactive)
REMARK    1  A    between atoms: C2_2  and  C3_3 
REMARK    2  A    between atoms: C3_3  and  C4_4 
REMARK    3  A    between atoms: C3_3  and  N1_7 
REMARK       I    between atoms: N1_7  and  C7_8 
REMARK    4  A    between atoms: C7_8  and  C8_10 
REMARK    5  A    between atoms: N2_14  and  C12_16 
ROOT
ATOM      1  C8  <0> d           4.314   0.445   2.231  0.00  0.00     0.104 C 
ATOM      2  C9  <0> d           5.164  -0.621   1.501  0.00  0.00     0.118 C 
ATOM      3  C10 <0> d           6.479  -0.624   2.249  0.00  0.00     0.221 C 
ATOM      4  O2  <0> d           7.511  -1.107   1.836  0.00  0.00    -0.273 OA
ATOM      5  N2  <0> d           6.336  -0.012   3.437  0.00  0.00    -0.346 N 
ATOM      6  C11 <0> d           4.958   0.454   3.635  0.00  0.00     0.141 C 
ENDROOT
BRANCH   1   7
ATOM      7  C7  <0> d           2.869   0.026   2.303  0.00  0.00     0.224 C 
ATOM      8  N1  <0> d           2.148  -0.104   1.172  0.00  0.00    -0.356 N 
ATOM      9  H16 <0> d           2.559   0.072   0.311  0.00  0.00     0.162 HD
ATOM     10  O1  <0> d           2.354  -0.193   3.379  0.00  0.00    -0.273 OA
BRANCH   8  11
ATOM     11  C3  <0> d           0.742  -0.511   1.242  0.00  0.00     0.087 C 
BRANCH  11  12
ATOM     12  C2  <0> d           0.002  -0.004   0.002  0.00  0.00     0.021 C 
ATOM     13  C1  <0> d          -0.019   1.526   0.010  0.00  0.00     0.007 C 
ENDBRANCH  11  12
BRANCH  11  14
ATOM     14  C4  <0> d           0.655  -2.037   1.299  0.00  0.00     0.000 C 
ATOM     15  C5  <0> d           1.395  -2.544   2.538  0.00  0.00     0.011 C 
ATOM     16  C6  <0> d          -0.812  -2.462   1.372  0.00  0.00     0.011 C 
ENDBRANCH  11  14
ENDBRANCH   8  11
ENDBRANCH   1   7
BRANCH   5  17
ATOM     17  C12 <0> d           7.417   0.168   4.409  0.00  0.00     0.102 C 
ATOM     18  C15 <0> d           7.971  -1.219   4.842  0.00  0.00     0.165 C 
ATOM     19  S1  <0> d           9.614  -0.732   5.516  0.00  0.00     0.146 S 
ATOM     20  C14 <0> d           9.827   0.882   4.660  0.00  0.00     0.142 C 
ATOM     21  O3  <0> d          10.597  -1.641   5.040  0.00  0.00    -0.228 OA
ATOM     22  O4  <0> d           9.493  -0.502   6.913  0.00  0.00    -0.228 OA
ATOM     23  C13 <0> d           8.566   0.962   3.767  0.00  0.00     0.041 C 
ENDBRANCH   5  17
TORSDOF 5
