REMARK  7 active torsions:
REMARK  status: ('A' for Active; 'I' for Inactive)
REMARK    1  A    between atoms: C2_2  and  C3_3 
REMARK    2  A    between atoms: C3_3  and  C4_4 
REMARK    3  A    between atoms: C4_4  and  C5_5 
REMARK    4  A    between atoms: N1_8  and  C8_12 
REMARK    5  A    between atoms: C8_12  and  C9_13 
REMARK       I    between atoms: C9_13  and  N3_15 
REMARK    6  A    between atoms: N3_15  and  C10_16 
REMARK    7  A    between atoms: C13_19  and  C16_22 
REMARK       I    between atoms: C16_22  and  N4_24 
ROOT
ATOM      1  C9  <0> d           1.669  -6.175   5.207  0.00  0.00     0.240 C 
ATOM      2  O3  <0> d           2.538  -5.388   5.514  0.00  0.00    -0.271 OA
ATOM      3  N3  <0> d           1.756  -7.462   5.598  0.00  0.00    -0.326 N 
ATOM      4  H14 <0> d           1.029  -8.076   5.411  0.00  0.00     0.169 HD
ENDROOT
BRANCH   1   5
ATOM      5  C8  <0> d           0.491  -5.715   4.386  0.00  0.00     0.240 C 
BRANCH   5   6
ATOM      6  N1  <0> d           0.629  -4.287   4.091  0.00  0.00    -0.260 N 
ATOM      7  C6  <0> d           1.256  -3.796   3.004  0.00  0.00     0.251 A 
ATOM      8  C5  <0> d           1.151  -2.288   3.117  0.00  0.00     0.179 A 
ATOM      9  O1  <0> d           1.792  -4.428   2.119  0.00  0.00    -0.271 OA
ATOM     10  N2  <0> d           0.409  -2.086   4.373  0.00  0.00    -0.329 N 
ATOM     11  C7  <0> d           0.149  -3.309   4.868  0.00  0.00     0.326 A 
ATOM     12  H11 <0> d           0.157  -1.236   4.767  0.00  0.00     0.165 HD
ATOM     13  O2  <0> d          -0.454  -3.505   5.905  0.00  0.00    -0.247 OA
BRANCH   8  14
ATOM     14  C4  <0> d           0.373  -1.712   1.933  0.00  0.00     0.035 C 
BRANCH  14  15
ATOM     15  C3  <0> d           0.296  -0.189   2.065  0.00  0.00     0.002 C 
BRANCH  15  16
ATOM     16  C2  <0> d          -0.482   0.387   0.880  0.00  0.00    -0.004 C 
ATOM     17  C1  <0> d          -0.558   1.909   1.012  0.00  0.00     0.005 C 
ENDBRANCH  15  16
ENDBRANCH  14  15
ENDBRANCH   8  14
ENDBRANCH   5   6
ENDBRANCH   1   5
BRANCH   3  18
ATOM     18  C10 <0> d           2.892  -7.910   6.272  0.00  0.00     0.034 A 
ATOM     19  C15 <0> d           3.365  -9.200   6.053  0.00  0.00     0.030 A 
ATOM     20  C14 <0> d           4.488  -9.644   6.713  0.00  0.00     0.019 A 
ATOM     21  C13 <0> d           5.148  -8.801   7.611  0.00  0.00     0.032 A 
ATOM     22  C12 <0> d           4.668  -7.508   7.832  0.00  0.00     0.019 A 
ATOM     23  C11 <0> d           3.546  -7.068   7.166  0.00  0.00     0.030 A 
BRANCH  21  24
ATOM     24  C16 <0> d           6.350  -9.275   8.324  0.00  0.00     0.253 C 
ATOM     25  O4  <0> d           6.468 -10.453   8.602  0.00  0.00    -0.267 OA
ATOM     26  N4  <0> d           7.318  -8.403   8.668  0.00  0.00    -0.357 N 
ATOM     27  C17 <0> d           8.454  -8.850   9.477  0.00  0.00     0.152 C 
ATOM     28  C18 <0> d           7.235  -7.007   8.231  0.00  0.00     0.152 C 
ENDBRANCH  21  24
ENDBRANCH   3  18
TORSDOF 7
