REMARK  6 active torsions:
REMARK  status: ('A' for Active; 'I' for Inactive)
REMARK    1  A    between atoms: C3_3  and  N2_16 
REMARK    2  A    between atoms: C6_6  and  C7_7 
REMARK    3  A    between atoms: C7_7  and  C8_8 
REMARK    4  A    between atoms: C7_7  and  O1_15 
REMARK    5  A    between atoms: C8_8  and  S1_9 
REMARK    6  A    between atoms: S1_9  and  C9_10 
ROOT
ATOM      1  C7  <0> d          -1.294  -0.774   0.011  0.00  0.00     0.160 C 
ENDROOT
BRANCH   1   2
ATOM      2  C6  <0> d           0.002  -0.004   0.002  0.00  0.00    -0.029 A 
ATOM      3  C1  <0> d          -0.017   1.379   0.010  0.00  0.00     0.012 A 
ATOM      4  C2  <0> d           1.169   2.087   0.002  0.00  0.00     0.029 A 
ATOM      5  C3  <0> d           2.381   1.409  -0.013  0.00  0.00     0.025 A 
ATOM      6  C4  <0> d           2.396   0.020  -0.021  0.00  0.00     0.029 A 
ATOM      7  C5  <0> d           1.207  -0.682  -0.013  0.00  0.00     0.012 A 
BRANCH   5   8
ATOM      8  N2  <0> d           3.582   2.122  -0.021  0.00  0.00    -0.399 N 
ATOM      9  H11 <0> d           3.570   3.092  -0.016  0.00  0.00     0.156 HD
ATOM     10  H12 <0> d           4.428   1.647  -0.032  0.00  0.00     0.156 HD
ENDBRANCH   5   8
ENDBRANCH   1   2
BRANCH   1  11
ATOM     11  C8  <0> d          -1.618  -1.242  -1.409  0.00  0.00     0.118 C 
BRANCH  11  12
ATOM     12  S1  <0> d          -3.248  -2.039  -1.425  0.00  0.00    -0.100 SA
BRANCH  12  13
ATOM     13  C9  <0> d          -3.472  -2.515  -3.107  0.00  0.00     0.134 A 
ATOM     14  S2  <0> d          -4.785  -3.306  -3.803  0.00  0.00    -0.074 SA
ATOM     15  C11 <0> d          -4.173  -3.372  -5.479  0.00  0.00     0.071 A 
ATOM     16  C10 <0> d          -2.971  -2.763  -5.334  0.00  0.00     0.126 A 
ATOM     17  N1  <0> d          -2.652  -2.344  -4.122  0.00  0.00    -0.246 NA
ENDBRANCH  12  13
ENDBRANCH  11  12
ENDBRANCH   1  11
BRANCH   1  18
ATOM     18  O1  <0> d          -1.168  -1.909   0.869  0.00  0.00    -0.390 OA
ATOM     19  H10 <0> d          -0.471  -2.526   0.606  0.00  0.00     0.210 HD
ENDBRANCH   1  18
TORSDOF 6
