REMARK  5 active torsions:
REMARK  status: ('A' for Active; 'I' for Inactive)
REMARK    1  A    between atoms: C4_4  and  C7_8 
REMARK    2  A    between atoms: C7_8  and  N1_10 
REMARK    3  A    between atoms: N1_10  and  S1_11 
REMARK    4  A    between atoms: S1_11  and  C9_14 
REMARK    5  A    between atoms: C9_14  and  C10_15 
ROOT
ATOM      1  S1  <0> d          -3.619  -4.188   1.375  0.00  0.00     0.229 S 
ATOM      2  O2  <0> d          -4.872  -3.572   1.639  0.00  0.00    -0.206 OA
ATOM      3  O3  <0> d          -3.548  -5.393   0.626  0.00  0.00    -0.206 OA
ENDROOT
BRANCH   1   4
ATOM      4  N1  <0> d          -2.786  -3.079   0.471  0.00  0.00    -0.310 N 
ATOM      5  H13 <0> d          -3.190  -2.223   0.259  0.00  0.00     0.172 HD
BRANCH   4   6
ATOM      6  C7  <0> d          -1.437  -3.390  -0.009  0.00  0.00     0.124 C 
ATOM      7  C8  <0> d          -1.518  -3.946  -1.432  0.00  0.00     0.038 C 
BRANCH   6   8
ATOM      8  C4  <0> d          -0.601  -2.136  -0.007  0.00  0.00    -0.004 A 
ATOM      9  C3  <0> d          -1.078  -0.805   0.003  0.00  0.00     0.044 A 
ATOM     10  C2  <0> d           0.002  -0.004   0.002  0.00  0.00     0.050 A 
ATOM     11  C1  <0> d          -0.018   1.503   0.010  0.00  0.00     0.076 C 
ATOM     12  O1  <0> d           1.102  -0.775  -0.013  0.00  0.00    -0.320 OA
ATOM     13  C5  <0> d           0.742  -2.069  -0.013  0.00  0.00     0.058 A 
ATOM     14  C6  <0> d           1.684  -3.245  -0.023  0.00  0.00     0.077 C 
ENDBRANCH   6   8
ENDBRANCH   4   6
ENDBRANCH   1   4
BRANCH   1  15
ATOM     15  C9  <0> d          -2.666  -4.349   2.910  0.00  0.00     0.196 C 
BRANCH  15  16
ATOM     16  C10 <0> d          -3.351  -5.359   3.832  0.00  0.00     0.201 C 
ATOM     17  N2  <0> d          -3.317  -6.689   3.211  0.00  0.00    -0.070 N 
ATOM     18  C14 <0> d          -4.039  -7.651   4.053  0.00  0.00     0.232 C 
ATOM     19  H24 <0> d          -3.753  -6.646   2.302  0.00  0.00     0.277 HD
ATOM     20  H25 <0> d          -2.358  -6.986   3.108  0.00  0.00     0.277 HD
ATOM     21  C13 <0> d          -3.333  -7.781   5.404  0.00  0.00     0.027 C 
ATOM     22  C12 <0> d          -3.308  -6.414   6.095  0.00  0.00     0.004 C 
ATOM     23  C11 <0> d          -2.619  -5.402   5.175  0.00  0.00     0.034 C 
ENDBRANCH  15  16
ENDBRANCH   1  15
TORSDOF 5
