REMARK  7 active torsions:
REMARK  status: ('A' for Active; 'I' for Inactive)
REMARK    1  A    between atoms: C3_3  and  C8_11 
REMARK    2  A    between atoms: N1_5  and  C5_7 
REMARK    3  A    between atoms: C5_7  and  C6_8 
REMARK    4  A    between atoms: C6_8  and  O1_9 
REMARK    5  A    between atoms: C8_11  and  N3_12 
REMARK    6  A    between atoms: N3_12  and  C9_13 
REMARK    7  A    between atoms: C9_13  and  C10_14 
ROOT
ATOM      1  C10 <0> d           2.798   0.475  -4.923  0.00  0.00     0.025 C 
ATOM      2  C11 <0> d           3.498  -0.882  -4.930  0.00  0.00     0.021 C 
ATOM      3  C12 <0> d           3.989  -1.254  -6.346  0.00  0.00     0.053 C 
ATOM      4  C13 <0> d           2.756  -1.177  -7.233  0.00  0.00    -0.043 A 
ATOM      5  C14 <0> d           2.275  -2.207  -7.990  0.00  0.00     0.008 A 
ATOM      6  C15 <0> d           1.135  -1.999  -8.756  0.00  0.00     0.001 A 
ATOM      7  C16 <0> d           0.502  -0.770  -8.750  0.00  0.00     0.001 A 
ATOM      8  C17 <0> d           0.998   0.273  -7.978  0.00  0.00     0.008 A 
ATOM      9  C18 <0> d           2.118   0.061  -7.227  0.00  0.00    -0.042 A 
ATOM     10  C19 <0> d           2.775   1.101  -6.334  0.00  0.00     0.058 C 
ATOM     11  C20 <0> d           4.228   1.145  -6.780  0.00  0.00    -0.042 A 
ATOM     12  C21 <0> d           4.866  -0.091  -6.786  0.00  0.00    -0.043 A 
ATOM     13  C22 <0> d           6.174  -0.201  -7.165  0.00  0.00     0.008 A 
ATOM     14  C23 <0> d           6.859   0.946  -7.544  0.00  0.00     0.001 A 
ATOM     15  C24 <0> d           6.226   2.175  -7.537  0.00  0.00     0.001 A 
ATOM     16  C25 <0> d           4.895   2.277  -7.152  0.00  0.00     0.008 A 
ENDROOT
BRANCH   1  17
ATOM     17  C9  <0> d           1.360   0.294  -4.432  0.00  0.00     0.238 C 
BRANCH  17  18
ATOM     18  N3  <0> d           1.374  -0.169  -3.038  0.00  0.00    -0.071 N 
ATOM     19  H15 <0> d           1.843   0.513  -2.461  0.00  0.00     0.277 HD
ATOM     20  H30 <0> d           1.863  -1.050  -2.981  0.00  0.00     0.277 HD
BRANCH  18  21
ATOM     21  C8  <0> d          -0.006  -0.343  -2.566  0.00  0.00     0.274 C 
BRANCH  21  22
ATOM     22  C3  <0> d           0.008  -0.818  -1.135  0.00  0.00     0.017 A 
ATOM     23  C2  <0> d           0.002  -0.004   0.002  0.00  0.00     0.061 A 
ATOM     24  C1  <0> d          -0.018   1.503   0.010  0.00  0.00     0.073 C 
ATOM     25  N2  <0> d           0.023  -0.777   1.058  0.00  0.00    -0.177 NA
ATOM     26  N1  <0> d           0.034  -2.109   0.625  0.00  0.00    -0.272 N 
ATOM     27  C4  <0> d           0.028  -2.107  -0.725  0.00  0.00     0.036 A 
ATOM     28  C7  <0> d           0.040  -3.323  -1.615  0.00  0.00     0.070 C 
BRANCH  26  29
ATOM     29  C5  <0> d           0.055  -3.295   1.485  0.00  0.00     0.177 C 
BRANCH  29  30
ATOM     30  C6  <0> d           1.504  -3.688   1.777  0.00  0.00     0.185 C 
BRANCH  30  31
ATOM     31  O1  <0> d           1.524  -4.844   2.616  0.00  0.00    -0.399 OA
ATOM     32  H9  <0> d           2.413  -5.150   2.843  0.00  0.00     0.209 HD
ENDBRANCH  30  31
ENDBRANCH  29  30
ENDBRANCH  26  29
ENDBRANCH  21  22
ENDBRANCH  18  21
ENDBRANCH  17  18
ENDBRANCH   1  17
TORSDOF 7
