REMARK  6 active torsions:
REMARK  status: ('A' for Active; 'I' for Inactive)
REMARK    1  A    between atoms: C2_2  and  N1_3 
REMARK    2  A    between atoms: C3_4  and  C6_9 
REMARK    3  A    between atoms: C7_12  and  S1_15 
REMARK    4  A    between atoms: S1_15  and  C9_16 
REMARK    5  A    between atoms: C9_16  and  C10_17 
REMARK       I    between atoms: C10_17  and  N6_19 
REMARK    6  A    between atoms: N6_19  and  N7_20 
ROOT
ATOM      1  C6  <0> d           1.569   3.046   2.751  0.00  0.00     0.183 A 
ATOM      2  N3  <0> d           1.282   3.764   1.689  0.00  0.00    -0.127 NA
ATOM      3  N4  <0> d           1.982   4.843   1.687  0.00  0.00    -0.122 NA
ATOM      4  C7  <0> d           2.765   4.875   2.742  0.00  0.00     0.191 A 
ATOM      5  N5  <0> d           2.531   3.734   3.456  0.00  0.00    -0.310 N 
ATOM      6  C8  <0> d           3.171   3.328   4.710  0.00  0.00     0.160 C 
ENDROOT
BRANCH   4   7
ATOM      7  S1  <0> d           3.906   6.152   3.157  0.00  0.00    -0.081 SA
BRANCH   7   8
ATOM      8  C9  <0> d           3.639   7.277   1.764  0.00  0.00     0.186 C 
BRANCH   8   9
ATOM      9  C10 <0> d           4.535   8.480   1.910  0.00  0.00     0.241 C 
ATOM     10  O1  <0> d           5.282   8.567   2.862  0.00  0.00    -0.271 OA
ATOM     11  N6  <0> d           4.508   9.457   0.983  0.00  0.00    -0.293 N 
ATOM     12  H12 <0> d           3.911   9.387   0.222  0.00  0.00     0.183 HD
BRANCH  11  13
ATOM     13  N7  <0> d           5.321  10.547   1.115  0.00  0.00    -0.247 NA
ATOM     14  H13 <0> d           6.288  10.270   1.194  0.00  0.00     0.143 HD
ATOM     15  H14 <0> d           5.190  11.191   0.349  0.00  0.00     0.143 HD
ENDBRANCH  11  13
ENDBRANCH   8   9
ENDBRANCH   7   8
ENDBRANCH   4   7
BRANCH   1  16
ATOM     16  C3  <0> d           0.979   1.746   3.116  0.00  0.00     0.119 A 
ATOM     17  N1  <0> d          -0.348   1.423   3.092  0.00  0.00    -0.265 N 
ATOM     18  N2  <0> d          -0.471   0.095   3.518  0.00  0.00    -0.183 NA
ATOM     19  C5  <0> d           0.721  -0.377   3.781  0.00  0.00     0.160 A 
ATOM     20  C4  <0> d           1.661   0.627   3.546  0.00  0.00     0.062 A 
ATOM     21 Br1  <0> d           3.532   0.480   3.776  0.00  0.00    -0.047 Br
BRANCH  17  22
ATOM     22  C2  <0> d          -1.446   2.308   2.697  0.00  0.00     0.147 C 
ATOM     23  C1  <0> d          -1.696   2.173   1.194  0.00  0.00     0.028 C 
ENDBRANCH  17  22
ENDBRANCH   1  16
TORSDOF 6
