REMARK  2 active torsions:
REMARK  status: ('A' for Active; 'I' for Inactive)
REMARK    1  A    between atoms: C5_6  and  C8_10 
REMARK    2  A    between atoms: N4_17  and  C13_20 
ROOT
ATOM      1  C8  <0> d           3.469  -2.831  -1.286  0.00  0.00     0.041 C 
ATOM      2  C9  <0> d           4.352  -3.850  -1.186  0.00  0.00     0.088 A 
ATOM      3  C10 <0> d           4.958  -4.470  -2.385  0.00  0.00     0.220 A 
ATOM      4  O1  <0> d           4.645  -4.033  -3.621  0.00  0.00    -0.169 OA
ATOM      5  N3  <0> d           5.812  -5.461  -2.214  0.00  0.00    -0.165 NA
ATOM      6  C11 <0> d           6.141  -5.914  -1.005  0.00  0.00     0.358 A 
ATOM      7  O2  <0> d           6.938  -6.832  -0.934  0.00  0.00    -0.244 OA
ATOM      8  N4  <0> d           5.647  -5.417   0.138  0.00  0.00    -0.228 N 
ATOM      9  C12 <0> d           4.764  -4.395   0.131  0.00  0.00     0.271 A 
ATOM     10  O3  <0> d           4.319  -3.941   1.167  0.00  0.00    -0.266 OA
ENDROOT
BRANCH   1  11
ATOM     11  C5  <0> d           2.820  -2.272  -0.045  0.00  0.00     0.207 A 
ATOM     12  N1  <0> d           3.292  -0.903   0.197  0.00  0.00    -0.364 N 
ATOM     13  C4  <0> d           2.254  -0.119   0.155  0.00  0.00     0.056 A 
ATOM     14  H11 <0> d           4.210  -0.632   0.358  0.00  0.00     0.162 HD
ATOM     15  C3  <0> d           2.091   1.332   0.321  0.00  0.00     0.031 A 
ATOM     16  C6  <0> d           1.035  -0.928  -0.117  0.00  0.00     0.056 A 
ATOM     17  C2  <0> d           0.863   1.879   0.222  0.00  0.00     0.002 A 
ATOM     18  C1  <0> d          -0.289   1.114  -0.036  0.00  0.00     0.002 A 
ATOM     19  C7  <0> d          -0.251  -0.223  -0.203  0.00  0.00     0.031 A 
ATOM     20  N2  <0> d           1.367  -2.182  -0.234  0.00  0.00    -0.364 N 
ATOM     21  H12 <0> d           0.764  -2.920  -0.413  0.00  0.00     0.162 HD
ENDBRANCH   1  11
BRANCH   8  22
ATOM     22  C13 <0> d           6.057  -5.964   1.361  0.00  0.00     0.047 A 
ATOM     23  C18 <0> d           7.389  -5.888   1.745  0.00  0.00     0.031 A 
ATOM     24  C17 <0> d           7.790  -6.424   2.953  0.00  0.00     0.021 A 
ATOM     25  C16 <0> d           6.868  -7.045   3.776  0.00  0.00     0.011 A 
ATOM     26  C15 <0> d           5.540  -7.127   3.393  0.00  0.00     0.021 A 
ATOM     27 Br1  <0> d           7.422  -7.783   5.426  0.00  0.00    -0.051 Br
ATOM     28  C14 <0> d           5.133  -6.588   2.189  0.00  0.00     0.031 A 
ENDBRANCH   8  22
TORSDOF 2
