REMARK  7 active torsions:
REMARK  status: ('A' for Active; 'I' for Inactive)
REMARK    1  A    between atoms: C2_2  and  C3_3 
REMARK    2  A    between atoms: C3_3  and  O1_4 
REMARK    3  A    between atoms: O1_4  and  C4_5 
REMARK    4  A    between atoms: C7_8  and  C10_11 
REMARK    5  A    between atoms: C12_13  and  C19_28 
REMARK    6  A    between atoms: N3_20  and  C15_21 
REMARK    7  A    between atoms: C24_33  and  O5_34 
ROOT
ATOM      1  C10 <0> d           5.506  -4.817   1.671  0.00  0.00     0.159 A 
ATOM      2  C11 <0> d           6.565  -4.455   2.676  0.00  0.00     0.034 A 
ATOM      3  C12 <0> d           7.465  -3.493   3.146  0.00  0.00     0.101 A 
ATOM      4  N1  <0> d           8.097  -4.014   4.179  0.00  0.00    -0.173 NA
ATOM      5  N2  <0> d           7.684  -5.210   4.409  0.00  0.00    -0.272 N 
ATOM      6  H2  <0> d           8.008  -5.784   5.121  0.00  0.00     0.189 HD
ATOM      7  C13 <0> d           6.721  -5.551   3.502  0.00  0.00     0.129 A 
ATOM      8  C14 <0> d           5.798  -6.603   3.061  0.00  0.00     0.273 A 
ATOM      9  O2  <0> d           5.691  -7.697   3.583  0.00  0.00    -0.266 OA
ATOM     10  N3  <0> d           5.088  -6.187   1.995  0.00  0.00    -0.328 N 
ENDROOT
BRANCH   1  11
ATOM     11  C7  <0> d           4.335  -3.876   1.788  0.00  0.00    -0.030 A 
ATOM     12  C6  <0> d           3.530  -3.913   2.912  0.00  0.00     0.012 A 
ATOM     13  C5  <0> d           2.456  -3.050   3.022  0.00  0.00     0.037 A 
ATOM     14  C4  <0> d           2.186  -2.147   2.004  0.00  0.00     0.069 A 
ATOM     15  C9  <0> d           2.992  -2.117   0.875  0.00  0.00     0.037 A 
ATOM     16  C8  <0> d           4.068  -2.977   0.773  0.00  0.00     0.012 A 
BRANCH  14  17
ATOM     17  O1  <0> d           1.130  -1.298   2.110  0.00  0.00    -0.348 OA
BRANCH  17  18
ATOM     18  C3  <0> d           0.344  -1.386   3.300  0.00  0.00     0.202 C 
BRANCH  18  19
ATOM     19  C2  <0> d          -0.773  -0.376   3.239  0.00  0.00    -0.011 C 
ATOM     20  C1  <0> d          -1.990  -0.724   3.580  0.00  0.00     0.009 C 
ENDBRANCH  18  19
ENDBRANCH  17  18
ENDBRANCH  14  17
ENDBRANCH   1  11
BRANCH  10  21
ATOM     21  C15 <0> d           4.071  -6.966   1.283  0.00  0.00     0.103 C 
ATOM     22  C18 <0> d           4.710  -8.262   0.708  0.00  0.00     0.165 C 
ATOM     23  S1  <0> d           3.205  -9.290   0.441  0.00  0.00     0.146 S 
ATOM     24  C17 <0> d           2.053  -8.451   1.603  0.00  0.00     0.142 C 
ATOM     25  O3  <0> d           2.742  -9.097  -0.889  0.00  0.00    -0.228 OA
ATOM     26  O4  <0> d           3.455 -10.608   0.909  0.00  0.00    -0.228 OA
ATOM     27  C16 <0> d           2.953  -7.374   2.256  0.00  0.00     0.041 C 
ENDBRANCH  10  21
BRANCH   3  28
ATOM     28  C19 <0> d           7.673  -2.135   2.583  0.00  0.00     0.030 A 
ATOM     29  C24 <0> d           8.515  -1.228   3.232  0.00  0.00     0.078 A 
ATOM     30  C23 <0> d           8.709   0.036   2.697  0.00  0.00     0.039 A 
ATOM     31  C22 <0> d           8.060   0.401   1.532  0.00  0.00     0.026 A 
ATOM     32  C21 <0> d           7.220  -0.493   0.891  0.00  0.00     0.035 A 
ATOM     33  C20 <0> d           7.024  -1.758   1.410  0.00  0.00     0.040 A 
ATOM     34 Cl1  <0> d           6.411  -0.023  -0.572  0.00  0.00    -0.084 Cl
BRANCH  29  35
ATOM     35  O5  <0> d           9.148  -1.586   4.380  0.00  0.00    -0.360 OA
ATOM     36  H22 <0> d          10.016  -1.990   4.241  0.00  0.00     0.217 HD
ENDBRANCH  29  35
ENDBRANCH   3  28
TORSDOF 7
