REMARK  4 active torsions:
REMARK  status: ('A' for Active; 'I' for Inactive)
REMARK    1  A    between atoms: C2_2  and  C3_3 
REMARK    2  A    between atoms: C6_6  and  N2_16 
REMARK    3  A    between atoms: C7_7  and  N1_9 
REMARK    4  A    between atoms: N2_16  and  C15_17 
ROOT
ATOM      1  C3  <0> d           1.337  -0.556   0.913  0.00  0.00    -0.013 C 
ATOM      2  C4  <0> d           2.698  -0.152   1.483  0.00  0.00     0.007 C 
ATOM      3  C5  <0> d           2.781  -0.575   2.952  0.00  0.00     0.035 C 
ATOM      4  C6  <0> d           2.614  -2.092   3.056  0.00  0.00     0.216 C 
ATOM      5  C7  <0> d           1.253  -2.496   2.486  0.00  0.00     0.220 C 
ATOM      6  C8  <0> d           1.170  -2.073   1.017  0.00  0.00     0.040 C 
ENDROOT
BRANCH   5   7
ATOM      7  N1  <0> d           1.093  -3.952   2.586  0.00  0.00    -0.057 N 
ATOM      8  C12 <0> d          -0.338  -4.287   2.699  0.00  0.00     0.121 C 
ATOM      9  C11 <0> d          -0.690  -5.203   1.507  0.00  0.00     0.040 C 
ATOM     10  C13 <0> d          -1.178  -3.010   2.640  0.00  0.00     0.046 C 
ATOM     11  C14 <0> d          -0.598  -5.024   4.015  0.00  0.00     0.046 C 
ATOM     12  C10 <0> d           0.686  -5.795   1.104  0.00  0.00     0.030 C 
ATOM     13  C9  <0> d           1.633  -4.597   1.370  0.00  0.00     0.236 C 
ATOM     14  H34 <0> d           1.587  -4.294   3.397  0.00  0.00     0.281 HD
ENDBRANCH   5   7
BRANCH   4  15
ATOM     15  N2  <0> d           2.694  -2.497   4.466  0.00  0.00    -0.069 N 
ATOM     16  H27 <0> d           2.022  -1.972   5.005  0.00  0.00     0.277 HD
ATOM     17  H33 <0> d           2.493  -3.483   4.544  0.00  0.00     0.277 HD
BRANCH  15  18
ATOM     18  C15 <0> d           4.046  -2.232   4.976  0.00  0.00     0.228 C 
ATOM     19  C16 <0> d           4.129  -2.654   6.444  0.00  0.00     0.034 C 
ENDBRANCH  15  18
ENDBRANCH   4  15
BRANCH   1  20
ATOM     20  C2  <0> d           1.254  -0.134  -0.555  0.00  0.00     0.000 C 
ATOM     21  C1  <0> d           1.295   1.393  -0.650  0.00  0.00     0.005 C 
ENDBRANCH   1  20
TORSDOF 4
