REMARK  3 active torsions:
REMARK  status: ('A' for Active; 'I' for Inactive)
REMARK    1  A    between atoms: C3_3  and  C7_8 
REMARK    2  A    between atoms: C7_8  and  C8_9 
REMARK    3  A    between atoms: C7_8  and  N2_19 
ROOT
ATOM      1  C7  <0> d           2.492   1.042  -0.016  0.00  0.00     0.249 C 
ENDROOT
BRANCH   1   2
ATOM      2  C3  <0> d           2.822   0.574   1.378  0.00  0.00    -0.022 A 
ATOM      3  C2  <0> d           3.720   1.285   2.151  0.00  0.00     0.009 A 
ATOM      4  C1  <0> d           4.023   0.856   3.430  0.00  0.00     0.002 A 
ATOM      5  C6  <0> d           3.429  -0.284   3.936  0.00  0.00     0.019 A 
ATOM      6  C5  <0> d           2.530  -0.997   3.163  0.00  0.00     0.011 A 
ATOM      7  C4  <0> d           2.223  -0.564   1.885  0.00  0.00     0.028 A 
ATOM      8 Br1  <0> d           1.716  -2.558   3.854  0.00  0.00    -0.051 Br
ENDBRANCH   1   2
BRANCH   1   9
ATOM      9  C8  <0> d           1.178   1.780   0.000  0.00  0.00    -0.023 A 
ATOM     10  C13 <0> d           1.159   3.163   0.008  0.00  0.00     0.019 A 
ATOM     11  C12 <0> d          -0.043   3.834   0.023  0.00  0.00    -0.022 A 
ATOM     12  C11 <0> d          -1.245   3.139   0.031  0.00  0.00     0.041 A 
ATOM     13  C14 <0> d          -0.401   5.302   0.034  0.00  0.00     0.144 A 
ATOM     14  C10 <0> d          -1.219   1.745   0.017  0.00  0.00     0.031 A 
ATOM     15  N1  <0> d          -2.318   4.030   0.046  0.00  0.00    -0.326 N 
ATOM     16  C9  <0> d          -0.013   1.076   0.008  0.00  0.00     0.012 A 
ATOM     17  C15 <0> d          -1.915   5.312   0.049  0.00  0.00     0.226 A 
ATOM     18  H11 <0> d          -3.350   3.649   0.053  0.00  0.00     0.169 HD
ATOM     19  O1  <0> d          -2.629   6.292   0.061  0.00  0.00    -0.273 OA
ENDBRANCH   1   9
BRANCH   1  20
ATOM     20  N2  <0> d           2.391  -0.119  -0.911  0.00  0.00    -0.067 N 
ATOM     21  H12 <0> d           2.150   0.223  -1.928  0.00  0.00     0.275 HD
ATOM     22  H13 <0> d           1.597  -0.790  -0.552  0.00  0.00     0.275 HD
ATOM     23  H14 <0> d           3.350  -0.657  -0.922  0.00  0.00     0.275 HD
ENDBRANCH   1  20
TORSDOF 3
