REMARK  5 active torsions:
REMARK  status: ('A' for Active; 'I' for Inactive)
REMARK    1  A    between atoms: C6_8  and  N2_13 
REMARK       I    between atoms: N2_13  and  C10_14 
REMARK    2  A    between atoms: C10_14  and  C11_16 
REMARK    3  A    between atoms: C11_16  and  N3_19 
REMARK    4  A    between atoms: N3_19  and  S1_20 
REMARK    5  A    between atoms: S1_20  and  C14_23 
ROOT
ATOM      1  N2  <0> d           1.498   2.067  -0.616  0.00  0.00    -0.325 N 
ATOM      2  C10 <0> d           0.272   1.619  -0.281  0.00  0.00     0.250 C 
ATOM      3  O3  <0> d          -0.677   2.374  -0.308  0.00  0.00    -0.270 OA
ATOM      4  H9  <0> d           2.370   1.402  -0.526  0.00  0.00     0.169 HD
ENDROOT
BRANCH   1   5
ATOM      5  C6  <0> d           1.663   3.378  -1.079  0.00  0.00     0.037 A 
ATOM      6  C5  <0> d           2.630   3.661  -2.035  0.00  0.00     0.062 A 
ATOM      7  C4  <0> d           2.785   4.958  -2.493  0.00  0.00     0.070 A 
ATOM      8  N1  <0> d           3.751   5.263  -3.463  0.00  0.00    -0.323 N 
ATOM      9  C9  <0> d           1.981   5.978  -1.987  0.00  0.00     0.096 A 
ATOM     10  C3  <0> d           4.100   6.553  -3.656  0.00  0.00     0.251 C 
ATOM     11  H5  <0> d           4.222   4.470  -4.063  0.00  0.00     0.169 HD
ATOM     12  C2  <0> d           3.478   7.632  -2.806  0.00  0.00     0.217 C 
ATOM     13  O1  <0> d           4.911   6.843  -4.511  0.00  0.00    -0.270 OA
ATOM     14  C1  <0> d           4.316   7.829  -1.541  0.00  0.00     0.050 C 
ATOM     15  O2  <0> d           2.149   7.250  -2.442  0.00  0.00    -0.335 OA
ATOM     16  C8  <0> d           1.022   5.693  -1.031  0.00  0.00     0.041 A 
ATOM     17  C7  <0> d           0.863   4.397  -0.578  0.00  0.00     0.032 A 
ENDBRANCH   1   5
BRANCH   2  18
ATOM     18  C11 <0> d           0.079   0.179   0.121  0.00  0.00     0.114 C 
ATOM     19  C12 <0> d           0.384   0.021   1.612  0.00  0.00     0.049 C 
ATOM     20  C13 <0> d          -1.368  -0.236  -0.151  0.00  0.00     0.049 C 
BRANCH  18  21
ATOM     21  N3  <0> d           0.985  -0.670  -0.655  0.00  0.00    -0.297 N 
ATOM     22  H16 <0> d           1.990  -0.898  -0.271  0.00  0.00     0.173 HD
BRANCH  21  23
ATOM     23  S1  <0> d           0.602  -1.084  -2.212  0.00  0.00     0.266 S 
ATOM     24  O4  <0> d           1.719  -1.793  -2.731  0.00  0.00    -0.200 OA
ATOM     25  O5  <0> d          -0.704  -1.642  -2.174  0.00  0.00    -0.200 OA
BRANCH  23  26
ATOM     26  C14 <0> d           0.483   0.413  -3.135  0.00  0.00     0.119 A 
ATOM     27  S2  <0> d          -0.928   1.482  -3.365  0.00  0.00    -0.088 SA
ATOM     28  C17 <0> d          -0.148   2.708  -4.403  0.00  0.00     0.051 A 
ATOM     29  C16 <0> d           1.115   2.228  -4.503  0.00  0.00     0.009 A 
ATOM     30  C15 <0> d           1.440   1.054  -3.848  0.00  0.00     0.033 A 
ENDBRANCH  23  26
ENDBRANCH  21  23
ENDBRANCH  18  21
ENDBRANCH   2  18
TORSDOF 5
