REMARK  5 active torsions:
REMARK  status: ('A' for Active; 'I' for Inactive)
REMARK    1  A    between atoms: N1_5  and  C7_8 
REMARK    2  A    between atoms: C7_8  and  C9_10 
REMARK    3  A    between atoms: C9_10  and  N2_11 
REMARK       I    between atoms: N2_11  and  C10_12 
REMARK    4  A    between atoms: C10_12  and  C11_14 
REMARK    5  A    between atoms: C11_14  and  N3_17 
REMARK       I    between atoms: N3_17  and  C14_18 
REMARK       I    between atoms: C14_18  and  N4_20 
ROOT
ATOM      1  N2  <0> d          -2.996  -3.977   0.450  0.00  0.00    -0.357 N 
ATOM      2  C10 <0> d          -4.328  -4.179   0.438  0.00  0.00     0.245 C 
ATOM      3  O1  <0> d          -4.868  -4.719   1.381  0.00  0.00    -0.271 OA
ATOM      4  H19 <0> d          -2.564  -3.545  -0.304  0.00  0.00     0.162 HD
ENDROOT
BRANCH   1   5
ATOM      5  C9  <0> d          -2.199  -4.408   1.601  0.00  0.00     0.155 C 
BRANCH   5   6
ATOM      6  C7  <0> d          -0.753  -3.942   1.424  0.00  0.00     0.202 C 
ATOM      7  C8  <0> d           0.052  -4.288   2.679  0.00  0.00     0.042 C 
BRANCH   6   8
ATOM      8  N1  <0> d          -0.729  -2.488   1.213  0.00  0.00    -0.066 N 
ATOM      9  C4  <0> d           0.642  -2.062   0.909  0.00  0.00     0.235 C 
ATOM     10  C3  <0> d           0.659  -0.562   0.608  0.00  0.00     0.032 C 
ATOM     11  C2  <0> d           0.143   0.204   1.830  0.00  0.00    -0.015 C 
ATOM     12  C1  <0> d           0.083   1.699   1.509  0.00  0.00     0.010 C 
ATOM     13  C6  <0> d          -1.258  -0.301   2.183  0.00  0.00     0.032 C 
ATOM     14  C5  <0> d          -1.204  -1.811   2.425  0.00  0.00     0.235 C 
ATOM     15  H31 <0> d          -1.332  -2.253   0.439  0.00  0.00     0.280 HD
ENDBRANCH   6   8
ENDBRANCH   5   6
ENDBRANCH   1   5
BRANCH   2  16
ATOM     16  C11 <0> d          -5.147  -3.736  -0.746  0.00  0.00     0.108 C 
ATOM     17  C12 <0> d          -5.120  -4.824  -1.821  0.00  0.00     0.049 C 
ATOM     18  C13 <0> d          -6.592  -3.492  -0.304  0.00  0.00     0.049 C 
BRANCH  16  19
ATOM     19  N3  <0> d          -4.587  -2.497  -1.291  0.00  0.00    -0.326 N 
ATOM     20  C14 <0> d          -5.161  -1.911  -2.361  0.00  0.00     0.316 C 
ATOM     21  O2  <0> d          -6.143  -2.411  -2.874  0.00  0.00    -0.247 OA
ATOM     22  N4  <0> d          -4.645  -0.771  -2.862  0.00  0.00    -0.347 N 
ATOM     23  C15 <0> d          -5.268  -0.134  -4.025  0.00  0.00     0.151 C 
ATOM     24  H27 <0> d          -3.862  -0.372  -2.452  0.00  0.00     0.163 HD
ATOM     25  H26 <0> d          -3.804  -2.097  -0.881  0.00  0.00     0.165 HD
ENDBRANCH  16  19
ENDBRANCH   2  16
TORSDOF 5
