REMARK  3 active torsions:
REMARK  status: ('A' for Active; 'I' for Inactive)
REMARK    1  A    between atoms: C17_19  and  N2_21 
REMARK    2  A    between atoms: N3_24  and  C19_25 
REMARK    3  A    between atoms: C19_25  and  C20_26 
ROOT
ATOM      1  C1  <0> d           1.386   6.902  -2.565  0.00  0.00     0.015 C 
ATOM      2  C2  <0> d           2.888   6.782  -2.833  0.00  0.00    -0.036 C 
ATOM      3  C3  <0> d           3.652   6.915  -1.511  0.00  0.00     0.067 C 
ATOM      4  C4  <0> d           3.277   5.742  -0.629  0.00  0.00     0.027 A 
ATOM      5  C5  <0> d           2.871   4.554  -1.159  0.00  0.00     0.039 A 
ATOM      6  C6  <0> d           2.777   4.314  -2.538  0.00  0.00     0.160 C 
ATOM      7  O1  <0> d           2.384   3.246  -2.962  0.00  0.00    -0.293 OA
ATOM      8  C7  <0> d           3.180   5.427  -3.480  0.00  0.00     0.092 C 
ATOM      9  C8  <0> d           2.579   3.653  -0.000  0.00  0.00     0.149 A 
ATOM     10  C9  <0> d           1.150   3.189   0.009  0.00  0.00    -0.016 A 
ATOM     11  C10 <0> d          -0.057   3.850   0.024  0.00  0.00     0.010 A 
ATOM     12  C11 <0> d          -1.241   3.133   0.032  0.00  0.00     0.001 A 
ATOM     13  C12 <0> d          -1.215   1.749   0.017  0.00  0.00     0.001 A 
ATOM     14  C13 <0> d          -0.013   1.076   0.008  0.00  0.00     0.015 A 
ATOM     15  C14 <0> d           1.188   1.792   0.000  0.00  0.00     0.008 A 
ATOM     16  C15 <0> d           2.595   1.344  -0.017  0.00  0.00     0.117 A 
ATOM     17  C16 <0> d           3.429   2.413  -0.019  0.00  0.00     0.101 A 
ATOM     18  N1  <0> d           4.689   1.951  -0.036  0.00  0.00    -0.208 NA
ATOM     19  C17 <0> d           4.658   0.639  -0.043  0.00  0.00     0.245 A 
ATOM     20  O2  <0> d           3.378   0.236  -0.031  0.00  0.00    -0.275 OA
ATOM     21  C18 <0> d           2.884   4.504   1.211  0.00  0.00     0.249 A 
ATOM     22  O3  <0> d           2.790   4.179   2.375  0.00  0.00    -0.271 OA
ATOM     23  N3  <0> d           3.283   5.701   0.729  0.00  0.00    -0.316 N 
ATOM     24  C22 <0> d           3.323   7.898  -3.785  0.00  0.00     0.015 C 
ENDROOT
BRANCH  23  25
ATOM     25  C19 <0> d           3.678   6.829   1.576  0.00  0.00     0.158 C 
BRANCH  25  26
ATOM     26  C20 <0> d           5.159   6.759   1.847  0.00  0.00    -0.017 C 
ATOM     27  C21 <0> d           5.926   7.783   1.564  0.00  0.00     0.008 C 
ENDBRANCH  25  26
ENDBRANCH  23  25
BRANCH  19  28
ATOM     28  N2  <0> d           5.760  -0.190  -0.060  0.00  0.00    -0.363 N 
ATOM     29  H12 <0> d           5.627  -1.281  -0.065  0.00  0.00     0.159 HD
ATOM     30  H13 <0> d           6.772   0.241  -0.069  0.00  0.00     0.159 HD
ENDBRANCH  19  28
TORSDOF 3
