REMARK  7 active torsions:
REMARK  status: ('A' for Active; 'I' for Inactive)
REMARK    1  A    between atoms: C3_5  and  N4_12 
REMARK    2  A    between atoms: C4_6  and  N3_11 
REMARK    3  A    between atoms: C5_8  and  O2_9 
REMARK    4  A    between atoms: N4_12  and  C7_13 
REMARK    5  A    between atoms: C8_14  and  O6_21 
REMARK    6  A    between atoms: C9_15  and  O5_20 
REMARK    7  A    between atoms: C10_16  and  O4_19 
ROOT
ATOM      1  N4  <0> d           3.497   1.722   1.299  0.00  0.00    -0.256 NA
ATOM      2  H13 <0> d           3.807   1.985   0.375  0.00  0.00     0.130 HD
ENDROOT
BRANCH   1   3
ATOM      3  C3  <0> d           4.400   0.819   1.897  0.00  0.00     0.125 A 
ATOM      4  C2  <0> d           4.604  -0.457   1.352  0.00  0.00     0.275 A 
ATOM      5  N1  <0> d           5.478  -1.290   1.955  0.00  0.00    -0.281 N 
ATOM      6  O1  <0> d           4.002  -0.808   0.348  0.00  0.00    -0.266 OA
ATOM      7  C1  <0> d           5.709  -2.628   1.406  0.00  0.00     0.163 C 
ATOM      8  C5  <0> d           6.143  -0.891   3.071  0.00  0.00     0.252 A 
ATOM      9  N2  <0> d           5.959   0.301   3.590  0.00  0.00    -0.189 NA
ATOM     10  C4  <0> d           5.110   1.176   3.036  0.00  0.00     0.152 A 
BRANCH   8  11
ATOM     11  O2  <0> d           7.012  -1.740   3.660  0.00  0.00    -0.325 OA
ATOM     12  C6  <0> d           7.685  -1.271   4.830  0.00  0.00     0.213 C 
ENDBRANCH   8  11
BRANCH  10  13
ATOM     13  N3  <0> d           4.938   2.430   3.599  0.00  0.00    -0.382 N 
ATOM     14  H11 <0> d           4.268   3.034   3.242  0.00  0.00     0.157 HD
ATOM     15  H12 <0> d           5.488   2.704   4.350  0.00  0.00     0.157 HD
ENDBRANCH  10  13
ENDBRANCH   1   3
BRANCH   1  16
ATOM     16  C7  <0> d           2.140   1.161   1.258  0.00  0.00     0.230 C 
ATOM     17  O3  <0> d           1.402   1.615   2.395  0.00  0.00    -0.366 OA
ATOM     18  C11 <0> d           0.070   1.104   2.468  0.00  0.00     0.204 C 
ATOM     19  C10 <0> d          -0.718   1.560   1.237  0.00  0.00     0.173 C 
ATOM     20  C9  <0> d           0.002   1.079  -0.027  0.00  0.00     0.181 C 
ATOM     21  C8  <0> d           1.436   1.619  -0.021  0.00  0.00     0.193 C 
BRANCH  19  22
ATOM     22  O4  <0> d          -0.802   2.986   1.225  0.00  0.00    -0.391 OA
ATOM     23  H16 <0> d          -1.247   3.361   1.998  0.00  0.00     0.210 HD
ENDBRANCH  19  22
BRANCH  20  24
ATOM     24  O5  <0> d          -0.685   1.561  -1.183  0.00  0.00    -0.390 OA
ATOM     25  H17 <0> d          -1.602   1.260  -1.250  0.00  0.00     0.210 HD
ENDBRANCH  20  24
BRANCH  21  26
ATOM     26  O6  <0> d           2.139   1.117  -1.159  0.00  0.00    -0.389 OA
ATOM     27  H18 <0> d           3.056   1.420  -1.220  0.00  0.00     0.210 HD
ENDBRANCH  21  26
ENDBRANCH   1  16
TORSDOF 7
