REMARK  5 active torsions:
REMARK  status: ('A' for Active; 'I' for Inactive)
REMARK    1  A    between atoms: C7_7  and  C8_8 
REMARK    2  A    between atoms: C8_8  and  C9_9 
REMARK    3  A    between atoms: C9_9  and  N1_10 
REMARK       I    between atoms: N1_10  and  C10_11 
REMARK    4  A    between atoms: C10_11  and  C11_13 
REMARK       I    between atoms: N2_15  and  C19_23 
REMARK    5  A    between atoms: C19_23  and  C20_25 
ROOT
ATOM      1  C11 <0> d          -2.564   2.262   6.018  0.00  0.00     0.106 C 
ATOM      2  C12 <0> d          -1.717   3.550   5.917  0.00  0.00     0.141 C 
ATOM      3  N2  <0> d          -2.693   4.615   5.586  0.00  0.00    -0.345 N 
ATOM      4  C13 <0> d          -3.887   4.287   6.401  0.00  0.00     0.136 C 
ATOM      5  C14 <0> d          -3.987   2.749   6.339  0.00  0.00    -0.007 C 
ATOM      6  C15 <0> d          -4.444   2.195   7.685  0.00  0.00     0.039 C 
ATOM      7  C16 <0> d          -5.882   2.646   7.956  0.00  0.00     0.233 C 
ATOM      8  N3  <0> d          -6.758   2.162   6.882  0.00  0.00    -0.075 N 
ATOM      9  C17 <0> d          -6.370   2.773   5.605  0.00  0.00     0.233 C 
ATOM     10  C18 <0> d          -4.952   2.328   5.235  0.00  0.00     0.039 C 
ATOM     11  C19 <0> d          -2.531   5.650   4.737  0.00  0.00     0.272 C 
ATOM     12  O2  <0> d          -1.524   5.730   4.062  0.00  0.00    -0.266 OA
ATOM     13  H22 <0> d          -6.679   1.158   6.812  0.00  0.00     0.277 HD
ATOM     14  H33 <0> d          -7.714   2.407   7.094  0.00  0.00     0.277 HD
ENDROOT
BRANCH   1  15
ATOM     15  C10 <0> d          -2.548   1.519   4.707  0.00  0.00     0.224 C 
ATOM     16  N1  <0> d          -2.656   0.176   4.692  0.00  0.00    -0.360 N 
ATOM     17  H13 <0> d          -2.744  -0.313   5.525  0.00  0.00     0.162 HD
ATOM     18  O1  <0> d          -2.437   2.130   3.665  0.00  0.00    -0.273 OA
BRANCH  16  19
ATOM     19  C9  <0> d          -2.640  -0.546   3.418  0.00  0.00     0.127 C 
BRANCH  19  20
ATOM     20  C8  <0> d          -2.777  -2.047   3.680  0.00  0.00     0.058 C 
BRANCH  20  21
ATOM     21  C7  <0> d          -2.761  -2.791   2.369  0.00  0.00    -0.051 A 
ATOM     22  C2  <0> d          -1.557  -3.137   1.786  0.00  0.00    -0.056 A 
ATOM     23  C1  <0> d          -0.260  -2.772   2.462  0.00  0.00     0.049 C 
ATOM     24  C3  <0> d          -1.542  -3.824   0.587  0.00  0.00     0.007 A 
ATOM     25  C4  <0> d          -2.731  -4.159  -0.033  0.00  0.00     0.001 A 
ATOM     26  C5  <0> d          -3.936  -3.807   0.547  0.00  0.00     0.001 A 
ATOM     27  C6  <0> d          -3.951  -3.122   1.748  0.00  0.00     0.007 A 
ENDBRANCH  20  21
ENDBRANCH  19  20
ENDBRANCH  16  19
ENDBRANCH   1  15
BRANCH  11  28
ATOM     28  C20 <0> d          -3.582   6.689   4.627  0.00  0.00     0.125 A 
ATOM     29  N4  <0> d          -4.620   6.646   5.440  0.00  0.00    -0.243 NA
ATOM     30  C28 <0> d          -5.586   7.562   5.380  0.00  0.00     0.068 A 
ATOM     31  C23 <0> d          -5.515   8.604   4.420  0.00  0.00    -0.007 A 
ATOM     32  C27 <0> d          -6.688   7.512   6.255  0.00  0.00     0.032 A 
ATOM     33  C22 <0> d          -4.414   8.657   3.544  0.00  0.00     0.016 A 
ATOM     34  C24 <0> d          -6.540   9.562   4.360  0.00  0.00     0.014 A 
ATOM     35  C21 <0> d          -3.453   7.694   3.656  0.00  0.00     0.038 A 
ATOM     36  C25 <0> d          -7.590   9.480   5.223  0.00  0.00     0.001 A 
ATOM     37  C26 <0> d          -7.662   8.457   6.167  0.00  0.00     0.002 A 
ENDBRANCH  11  28
TORSDOF 5
