REMARK  4 active torsions:
REMARK  status: ('A' for Active; 'I' for Inactive)
REMARK    1  A    between atoms: O1_2  and  C2_3 
REMARK    2  A    between atoms: C5_6  and  S1_11 
REMARK    3  A    between atoms: C7_8  and  O2_9 
REMARK    4  A    between atoms: S1_11  and  N1_14 
ROOT
ATOM      1  N1  <0> d           4.214  -2.822  -4.186  0.00  0.00    -0.305 N 
ATOM      2  C9  <0> d           5.294  -1.854  -4.435  0.00  0.00     0.137 C 
ATOM      3  C10 <0> d           6.598  -2.464  -3.874  0.00  0.00     0.046 C 
ATOM      4  C11 <0> d           6.082  -3.507  -2.869  0.00  0.00     0.088 A 
ATOM      5  C12 <0> d           4.785  -4.008  -3.515  0.00  0.00     0.159 C 
ATOM      6  C13 <0> d           7.070  -4.611  -2.646  0.00  0.00    -0.012 A 
ATOM      7  C14 <0> d           7.681  -5.525  -3.475  0.00  0.00     0.011 A 
ATOM      8  C15 <0> d           8.574  -6.445  -2.954  0.00  0.00     0.001 A 
ATOM      9  C16 <0> d           8.851  -6.445  -1.599  0.00  0.00     0.002 A 
ATOM     10  C17 <0> d           8.241  -5.532  -0.764  0.00  0.00     0.030 A 
ATOM     11  C18 <0> d           7.341  -4.602  -1.280  0.00  0.00     0.042 A 
ATOM     12  N2  <0> d           6.606  -3.596  -0.647  0.00  0.00    -0.326 N 
ATOM     13  C19 <0> d           5.838  -2.906  -1.516  0.00  0.00     0.237 A 
ATOM     14  O5  <0> d           5.097  -1.983  -1.254  0.00  0.00    -0.272 OA
ATOM     15  H20 <0> d           6.643  -3.415   0.305  0.00  0.00     0.169 HD
ENDROOT
BRANCH   1  16
ATOM     16  S1  <0> d           2.621  -2.613  -4.585  0.00  0.00     0.261 S 
ATOM     17  O3  <0> d           2.056  -3.913  -4.693  0.00  0.00    -0.200 OA
ATOM     18  O4  <0> d           2.589  -1.678  -5.654  0.00  0.00    -0.200 OA
BRANCH  16  19
ATOM     19  C5  <0> d           1.837  -1.836  -3.212  0.00  0.00     0.082 A 
ATOM     20  C4  <0> d           1.787  -0.456  -3.137  0.00  0.00     0.028 A 
ATOM     21  C3  <0> d           1.173   0.159  -2.062  0.00  0.00     0.041 A 
ATOM     22  C2  <0> d           0.606  -0.608  -1.056  0.00  0.00     0.101 A 
ATOM     23  C7  <0> d           0.662  -1.996  -1.129  0.00  0.00     0.102 A 
ATOM     24  C6  <0> d           1.273  -2.606  -2.212  0.00  0.00     0.065 A 
BRANCH  22  25
ATOM     25  O1  <0> d           0.002  -0.004   0.002  0.00  0.00    -0.353 OA
ATOM     26  C1  <0> d          -0.017   1.425   0.010  0.00  0.00     0.210 C 
ENDBRANCH  22  25
BRANCH  23  27
ATOM     27  O2  <0> d           0.112  -2.753  -0.142  0.00  0.00    -0.353 OA
ATOM     28  C8  <0> d           0.206  -4.171  -0.283  0.00  0.00     0.210 C 
ENDBRANCH  23  27
ENDBRANCH  16  19
ENDBRANCH   1  16
TORSDOF 4
