REMARK  6 active torsions:
REMARK  status: ('A' for Active; 'I' for Inactive)
REMARK    1  A    between atoms: C2_2  and  C4_4 
REMARK    2  A    between atoms: C2_2  and  C17_24 
REMARK    3  A    between atoms: C4_4  and  N1_5 
REMARK       I    between atoms: N1_5  and  C5_6 
REMARK    4  A    between atoms: C5_6  and  C6_8 
REMARK    5  A    between atoms: N2_11  and  C11_14 
REMARK    6  A    between atoms: C17_24  and  N7_25 
ROOT
ATOM      1  C6  <0> d          -3.833   1.613   2.515  0.00  0.00     0.081 C 
ATOM      2  C7  <0> d          -3.046   1.339   3.799  0.00  0.00     0.034 C 
ATOM      3  C8  <0> d          -3.563   2.254   4.914  0.00  0.00     0.125 C 
ATOM      4  N2  <0> d          -5.015   2.067   5.044  0.00  0.00    -0.365 N 
ATOM      5  C9  <0> d          -5.856   2.218   3.849  0.00  0.00     0.125 C 
ATOM      6  C10 <0> d          -5.314   1.304   2.746  0.00  0.00     0.034 C 
ENDROOT
BRANCH   1   7
ATOM      7  C5  <0> d          -3.304   0.739   1.407  0.00  0.00     0.222 C 
ATOM      8  N1  <0> d          -2.014   0.838   1.028  0.00  0.00    -0.360 N 
ATOM      9  H9  <0> d          -1.426   1.472   1.468  0.00  0.00     0.162 HD
ATOM     10  O1  <0> d          -4.039  -0.053   0.856  0.00  0.00    -0.273 OA
BRANCH   8  11
ATOM     11  C4  <0> d          -1.500  -0.011  -0.049  0.00  0.00     0.133 C 
BRANCH  11  12
ATOM     12  C2  <0> d          -0.020   0.298  -0.280  0.00  0.00    -0.008 C 
ATOM     13  C1  <0> d           0.139   1.769  -0.670  0.00  0.00     0.018 C 
ATOM     14  C3  <0> d           0.765   0.023   1.004  0.00  0.00     0.018 C 
BRANCH  12  15
ATOM     15  C17 <0> d           0.517  -0.589  -1.405  0.00  0.00     0.244 C 
BRANCH  15  16
ATOM     16  N7  <0> d           1.944  -0.307  -1.614  0.00  0.00    -0.078 N 
ATOM     17  C18 <0> d           2.744  -1.120  -0.688  0.00  0.00     0.269 C 
ATOM     18  C19 <0> d           2.311  -0.635  -2.998  0.00  0.00     0.269 C 
ATOM     19  H32 <0> d           2.121   0.672  -1.442  0.00  0.00     0.279 HD
ENDBRANCH  15  16
ENDBRANCH  12  15
ENDBRANCH  11  12
ENDBRANCH   8  11
ENDBRANCH   1   7
BRANCH   4  20
ATOM     20  C11 <0> d          -5.578   1.756   6.266  0.00  0.00     0.142 A 
ATOM     21  N6  <0> d          -5.824   0.494   6.600  0.00  0.00    -0.224 NA
ATOM     22  C15 <0> d          -6.357   0.187   7.770  0.00  0.00     0.237 A 
ATOM     23  N5  <0> d          -6.685   1.097   8.661  0.00  0.00    -0.222 NA
ATOM     24  C14 <0> d          -6.482   2.391   8.417  0.00  0.00     0.162 A 
ATOM     25  C12 <0> d          -5.910   2.769   7.186  0.00  0.00     0.076 A 
ATOM     26  N4  <0> d          -6.705   3.542   9.112  0.00  0.00    -0.256 N 
ATOM     27  C13 <0> d          -5.810   4.177   7.192  0.00  0.00     0.158 A 
ATOM     28  N3  <0> d          -6.278   4.619   8.324  0.00  0.00    -0.182 NA
ATOM     29  C16 <0> d          -7.289   3.637  10.452  0.00  0.00     0.182 C 
ENDBRANCH   4  20
TORSDOF 6
