REMARK  5 active torsions:
REMARK  status: ('A' for Active; 'I' for Inactive)
REMARK    1  A    between atoms: C6_7  and  C9_10 
REMARK    2  A    between atoms: C9_10  and  C10_11 
REMARK       I    between atoms: C10_11  and  N2_13 
REMARK    3  A    between atoms: N2_13  and  N3_14 
REMARK       I    between atoms: N3_14  and  C11_15 
REMARK    4  A    between atoms: C11_15  and  C12_17 
REMARK       I    between atoms: N4_21  and  C17_23 
REMARK    5  A    between atoms: C17_23  and  C18_25 
ROOT
ATOM      1  N3  <0> d          -0.445  -4.992  -3.049  0.00  0.00    -0.267 N 
ATOM      2  C11 <0> d          -1.136  -6.125  -3.283  0.00  0.00     0.241 C 
ATOM      3  O2  <0> d          -1.579  -6.767  -2.354  0.00  0.00    -0.271 OA
ATOM      4  H11 <0> d          -0.090  -4.479  -3.792  0.00  0.00     0.190 HD
ENDROOT
BRANCH   1   5
ATOM      5  N2  <0> d          -0.239  -4.555  -1.734  0.00  0.00    -0.267 N 
ATOM      6  C10 <0> d           0.452  -3.422  -1.501  0.00  0.00     0.240 C 
ATOM      7  O1  <0> d           0.896  -2.780  -2.429  0.00  0.00    -0.272 OA
ATOM      8  H10 <0> d          -0.594  -5.068  -0.991  0.00  0.00     0.190 HD
BRANCH   6   9
ATOM      9  C9  <0> d           0.673  -2.952  -0.086  0.00  0.00     0.141 C 
BRANCH   9  10
ATOM     10  C6  <0> d           1.468  -1.671  -0.101  0.00  0.00    -0.041 A 
ATOM     11  C5  <0> d           2.973  -1.536  -0.164  0.00  0.00     0.155 A 
ATOM     12  N1  <0> d           3.248  -0.094  -0.154  0.00  0.00    -0.385 N 
ATOM     13  C4  <0> d           2.107   0.548  -0.095  0.00  0.00     0.038 A 
ATOM     14  H23 <0> d           4.127   0.315  -0.187  0.00  0.00     0.160 HD
ATOM     15  C3  <0> d           1.803   1.937  -0.060  0.00  0.00     0.030 A 
ATOM     16  C7  <0> d           0.979  -0.411  -0.060  0.00  0.00    -0.005 A 
ATOM     17  C2  <0> d           0.520   2.354   0.001  0.00  0.00     0.002 A 
ATOM     18  C1  <0> d          -0.564   1.466   0.035  0.00  0.00     0.001 A 
ATOM     19  C8  <0> d          -0.386   0.125   0.007  0.00  0.00     0.014 A 
ENDBRANCH   9  10
ENDBRANCH   6   9
ENDBRANCH   1   5
BRANCH   2  20
ATOM     20  C12 <0> d          -1.357  -6.595  -4.697  0.00  0.00     0.097 C 
ATOM     21  C16 <0> d          -2.129  -5.526  -5.476  0.00  0.00     0.140 C 
ATOM     22  N4  <0> d          -2.450  -6.052  -6.810  0.00  0.00    -0.347 N 
ATOM     23  C15 <0> d          -3.146  -7.342  -6.913  0.00  0.00     0.126 C 
ATOM     24  C17 <0> d          -2.111  -5.365  -7.919  0.00  0.00     0.255 C 
ATOM     25  C14 <0> d          -2.362  -8.390  -6.118  0.00  0.00     0.021 C 
ATOM     26  C13 <0> d          -2.165  -7.895  -4.683  0.00  0.00     0.017 C 
ATOM     27  O3  <0> d          -1.595  -4.268  -7.820  0.00  0.00    -0.267 OA
BRANCH  24  28
ATOM     28  C18 <0> d          -2.365  -5.942  -9.251  0.00  0.00     0.056 A 
ATOM     29  C21 <0> d          -1.540  -5.907 -10.336  0.00  0.00     0.158 A 
ATOM     30  O4  <0> d          -2.140  -6.547 -11.344  0.00  0.00    -0.334 OA
ATOM     31  C20 <0> d          -3.346  -7.003 -10.971  0.00  0.00     0.142 A 
ATOM     32  C19 <0> d          -3.564  -6.672  -9.689  0.00  0.00     0.043 A 
ENDBRANCH  24  28
ENDBRANCH   2  20
TORSDOF 5
