REMARK  4 active torsions:
REMARK  status: ('A' for Active; 'I' for Inactive)
REMARK    1  A    between atoms: C2_2  and  C3_3 
REMARK    2  A    between atoms: C3_3  and  C4_4 
REMARK    3  A    between atoms: C7_7  and  N4_15 
REMARK    4  A    between atoms: C8_8  and  N1_10 
ROOT
ATOM      1  C4  <0> d           0.739  -2.027  -1.265  0.00  0.00    -0.012 C 
ATOM      2  C5  <0> d           1.584  -2.532  -0.094  0.00  0.00     0.007 C 
ATOM      3  C6  <0> d           1.605  -4.062  -0.103  0.00  0.00     0.035 C 
ATOM      4  C7  <0> d           2.209  -4.557  -1.419  0.00  0.00     0.208 C 
ATOM      5  C8  <0> d           1.364  -4.052  -2.590  0.00  0.00     0.142 C 
ATOM      6  C9  <0> d           1.343  -2.522  -2.581  0.00  0.00     0.034 C 
ENDROOT
BRANCH   5   7
ATOM      7  N1  <0> d           1.942  -4.525  -3.849  0.00  0.00    -0.256 N 
ATOM      8  N3  <0> d           1.572  -5.676  -4.565  0.00  0.00    -0.164 NA
ATOM      9  C11 <0> d           2.335  -5.722  -5.626  0.00  0.00     0.256 A 
ATOM     10  N2  <0> d           3.161  -4.677  -5.610  0.00  0.00    -0.234 NA
ATOM     11  C10 <0> d           2.936  -3.949  -4.547  0.00  0.00     0.230 A 
ENDBRANCH   5   7
BRANCH   4  12
ATOM     12  N4  <0> d           2.229  -6.026  -1.427  0.00  0.00    -0.073 N 
ATOM     13  H19 <0> d           1.287  -6.375  -1.337  0.00  0.00     0.274 HD
ATOM     14  H20 <0> d           2.627  -6.352  -2.294  0.00  0.00     0.274 HD
ATOM     15  H21 <0> d           2.787  -6.359  -0.654  0.00  0.00     0.274 HD
ENDBRANCH   4  12
BRANCH   1  16
ATOM     16  C3  <0> d           0.718  -0.497  -1.257  0.00  0.00     0.004 C 
BRANCH  16  17
ATOM     17  C2  <0> d           0.002  -0.004   0.002  0.00  0.00    -0.004 C 
ATOM     18  C1  <0> d          -0.019   1.526   0.010  0.00  0.00     0.005 C 
ENDBRANCH  16  17
ENDBRANCH   1  16
TORSDOF 4
