REMARK  6 active torsions:
REMARK  status: ('A' for Active; 'I' for Inactive)
REMARK    1  A    between atoms: C2_2  and  C3_3 
REMARK    2  A    between atoms: C2_2  and  N1_12 
REMARK       I    between atoms: N1_12  and  C10_13 
REMARK    3  A    between atoms: C10_13  and  C11_15 
REMARK    4  A    between atoms: C11_15  and  S1_16 
REMARK    5  A    between atoms: S1_16  and  C12_17 
REMARK    6  A    between atoms: C12_17  and  C13_18 
ROOT
ATOM      1  C11 <0> d          -1.377   3.407  -9.213  0.00  0.00     0.177 C 
ENDROOT
BRANCH   1   2
ATOM      2  C10 <0> d          -2.605   3.984  -9.867  0.00  0.00     0.227 C 
ATOM      3  N1  <0> d          -2.605   4.245 -11.189  0.00  0.00    -0.352 N 
ATOM      4  H11 <0> d          -1.708   4.036 -11.791  0.00  0.00     0.163 HD
ATOM      5  O3  <0> d          -3.594   4.215  -9.204  0.00  0.00    -0.273 OA
BRANCH   3   6
ATOM      6  C2  <0> d          -3.799   4.806 -11.825  0.00  0.00     0.113 C 
ATOM      7  C1  <0> d          -4.759   3.674 -12.197  0.00  0.00     0.037 C 
BRANCH   6   8
ATOM      8  C3  <0> d          -3.400   5.555 -13.070  0.00  0.00    -0.033 A 
ATOM      9  C8  <0> d          -4.018   6.751 -13.384  0.00  0.00     0.049 A 
ATOM     10  C7  <0> d          -3.649   7.445 -14.525  0.00  0.00     0.105 A 
ATOM     11  C6  <0> d          -2.662   6.928 -15.360  0.00  0.00     0.105 A 
ATOM     12  O1  <0> d          -4.091   8.625 -15.050  0.00  0.00    -0.323 OA
ATOM     13  C5  <0> d          -2.050   5.726 -15.043  0.00  0.00     0.040 A 
ATOM     14  O2  <0> d          -2.485   7.785 -16.409  0.00  0.00    -0.323 OA
ATOM     15  C4  <0> d          -2.420   5.043 -13.900  0.00  0.00     0.012 A 
ATOM     16  C9  <0> d          -3.657   8.622 -16.423  0.00  0.00     0.352 C 
ENDBRANCH   6   8
ENDBRANCH   3   6
ENDBRANCH   1   2
BRANCH   1  17
ATOM     17  S1  <0> d          -1.689   3.172  -7.441  0.00  0.00    -0.152 SA
BRANCH  17  18
ATOM     18  C12 <0> d          -0.135   2.480  -6.809  0.00  0.00     0.152 C 
BRANCH  18  19
ATOM     19  C13 <0> d          -0.261   2.234  -5.328  0.00  0.00     0.117 A 
ATOM     20  N3  <0> d          -1.381   2.524  -4.723  0.00  0.00    -0.226 NA
ATOM     21  C18 <0> d          -1.523   2.318  -3.416  0.00  0.00     0.116 A 
ATOM     22  C15 <0> d          -0.492   1.786  -2.631  0.00  0.00     0.075 A 
ATOM     23  S2  <0> d          -2.837   2.567  -2.251  0.00  0.00    -0.073 SA
ATOM     24  C14 <0> d           0.724   1.479  -3.323  0.00  0.00     0.260 A 
ATOM     25  C16 <0> d          -0.791   1.612  -1.202  0.00  0.00    -0.026 A 
ATOM     26  N2  <0> d           0.793   1.715  -4.647  0.00  0.00    -0.310 N 
ATOM     27  O4  <0> d           1.678   1.012  -2.725  0.00  0.00    -0.267 OA
ATOM     28  H2  <0> d           1.728   1.478  -5.178  0.00  0.00     0.170 HD
ATOM     29  C21 <0> d          -0.013   1.086   0.008  0.00  0.00     0.041 C 
ATOM     30  C17 <0> d          -2.016   1.978  -0.788  0.00  0.00    -0.008 A 
ATOM     31  C20 <0> d          -0.772   1.602   1.246  0.00  0.00     0.010 C 
ATOM     32  C19 <0> d          -2.207   1.760   0.689  0.00  0.00     0.047 C 
ENDBRANCH  18  19
ENDBRANCH  17  18
ENDBRANCH   1  17
TORSDOF 6
