REMARK  6 active torsions:
REMARK  status: ('A' for Active; 'I' for Inactive)
REMARK    1  A    between atoms: C3_3  and  C7_7 
REMARK       I    between atoms: C7_7  and  N1_9 
REMARK    2  A    between atoms: C9_11  and  C16_19 
REMARK       I    between atoms: C16_19  and  N3_21 
REMARK    3  A    between atoms: N3_21  and  C17_22 
REMARK    4  A    between atoms: C17_22  and  C18_23 
REMARK    5  A    between atoms: C18_23  and  C19_24 
REMARK    6  A    between atoms: C19_24  and  O3_25 
ROOT
ATOM      1  C7  <0> d           3.379   1.713  -1.265  0.00  0.00     0.224 C 
ATOM      2  O1  <0> d           3.619   2.613  -0.487  0.00  0.00    -0.273 OA
ATOM      3  N1  <0> d           4.296   1.356  -2.186  0.00  0.00    -0.350 N 
ATOM      4  C8  <0> d           4.185   0.296  -3.215  0.00  0.00     0.140 C 
ATOM      5  C9  <0> d           4.854   0.899  -4.471  0.00  0.00     0.106 C 
ATOM      6  C10 <0> d           5.811   1.973  -3.927  0.00  0.00    -0.007 C 
ATOM      7  C11 <0> d           5.642   1.940  -2.402  0.00  0.00     0.136 C 
ATOM      8  C12 <0> d           5.424   3.347  -4.465  0.00  0.00     0.039 C 
ATOM      9  C13 <0> d           6.425   4.389  -3.958  0.00  0.00     0.233 C 
ATOM     10  N2  <0> d           7.776   4.030  -4.403  0.00  0.00    -0.075 N 
ATOM     11  C14 <0> d           8.177   2.751  -3.806  0.00  0.00     0.233 C 
ATOM     12  C15 <0> d           7.251   1.639  -4.307  0.00  0.00     0.039 C 
ATOM     13  H19 <0> d           7.787   3.949  -5.409  0.00  0.00     0.277 HD
ATOM     14  H32 <0> d           8.425   4.750  -4.119  0.00  0.00     0.277 HD
ENDROOT
BRANCH   5  15
ATOM     15  C16 <0> d           3.817   1.523  -5.369  0.00  0.00     0.224 C 
ATOM     16  O2  <0> d           2.806   1.994  -4.892  0.00  0.00    -0.273 OA
ATOM     17  N3  <0> d           4.013   1.558  -6.702  0.00  0.00    -0.361 N 
ATOM     18  H24 <0> d           4.822   1.181  -7.083  0.00  0.00     0.162 HD
BRANCH  17  19
ATOM     19  C17 <0> d           3.006   2.164  -7.575  0.00  0.00     0.124 C 
BRANCH  19  20
ATOM     20  C18 <0> d           3.470   2.074  -9.030  0.00  0.00     0.046 C 
BRANCH  20  21
ATOM     21  C19 <0> d           2.418   2.707  -9.942  0.00  0.00     0.165 C 
BRANCH  21  22
ATOM     22  O3  <0> d           2.852   2.623 -11.300  0.00  0.00    -0.401 OA
ATOM     23  H31 <0> d           2.232   3.006 -11.936  0.00  0.00     0.209 HD
ENDBRANCH  21  22
ENDBRANCH  20  21
ENDBRANCH  19  20
ENDBRANCH  17  19
ENDBRANCH   5  15
BRANCH   1  24
ATOM     24  C3  <0> d           2.057   0.994  -1.201  0.00  0.00     0.082 C 
ATOM     25  C2  <0> d           1.201   1.587  -0.074  0.00  0.00     0.018 C 
ATOM     26  C1  <0> d          -0.197   0.969  -0.151  0.00  0.00     0.027 C 
ATOM     27  C6  <0> d          -0.096  -0.526  -0.248  0.00  0.00    -0.031 C 
ATOM     28  C5  <0> d           0.983  -1.160  -0.579  0.00  0.00    -0.030 C 
ATOM     29  C4  <0> d           2.286  -0.490  -0.904  0.00  0.00     0.041 C 
ENDBRANCH   1  24
TORSDOF 6
