REMARK  3 active torsions:
REMARK  status: ('A' for Active; 'I' for Inactive)
REMARK    1  A    between atoms: C3_3  and  O2_17 
REMARK    2  A    between atoms: C4_4  and  C7_8 
REMARK    3  A    between atoms: N1_9  and  N2_10 
ROOT
ATOM      1  C7  <0> d           3.690  -0.688  -0.038  0.00  0.00     0.155 C 
ATOM      2  N1  <0> d           4.811  -0.018  -0.046  0.00  0.00    -0.159 NA
ENDROOT
BRANCH   1   3
ATOM      3  C4  <0> d           2.406   0.029  -0.021  0.00  0.00     0.018 A 
ATOM      4  C3  <0> d           2.381   1.432  -0.013  0.00  0.00     0.077 A 
ATOM      5  C2  <0> d           1.167   2.097   0.002  0.00  0.00     0.039 A 
ATOM      6  C1  <0> d          -0.017   1.381   0.010  0.00  0.00     0.022 A 
ATOM      7  C6  <0> d           0.002  -0.004   0.002  0.00  0.00     0.011 A 
ATOM      8  C5  <0> d           1.203  -0.683  -0.013  0.00  0.00     0.034 A 
ATOM      9 Br1  <0> d          -1.625  -0.968   0.013  0.00  0.00    -0.051 Br
BRANCH   4  10
ATOM     10  O2  <0> d           3.543   2.135  -0.022  0.00  0.00    -0.360 OA
ATOM     11  H8  <0> d           3.888   2.334   0.859  0.00  0.00     0.217 HD
ENDBRANCH   4  10
ENDBRANCH   1   3
BRANCH   2  12
ATOM     12  N2  <0> d           5.937  -0.647  -0.061  0.00  0.00    -0.125 NA
ATOM     13  C8  <0> d           7.068   0.028  -0.069  0.00  0.00     0.190 A 
ATOM     14  S1  <0> d           8.735  -0.613  -0.089  0.00  0.00    -0.081 SA
ATOM     15  N3  <0> d           7.243   1.395  -0.058  0.00  0.00    -0.304 N 
ATOM     16  C10 <0> d           9.620   1.000  -0.093  0.00  0.00     0.185 A 
ATOM     17  C9  <0> d           8.439   1.958  -0.068  0.00  0.00     0.233 A 
ATOM     18  O1  <0> d           8.586   3.161  -0.058  0.00  0.00    -0.272 OA
ATOM     19  H5  <0> d           6.459   1.966  -0.043  0.00  0.00     0.171 HD
ENDBRANCH   2  12
TORSDOF 3
