REMARK  3 active torsions:
REMARK  status: ('A' for Active; 'I' for Inactive)
REMARK    1  A    between atoms: C3_3  and  C6_8 
REMARK    2  A    between atoms: C6_8  and  C7_9 
REMARK    3  A    between atoms: C12_17  and  C13_20 
ROOT
ATOM      1  C7  <0> d           1.408  -0.030  -3.065  0.00  0.00     0.047 A 
ATOM      2  C8  <0> d           2.029  -1.037  -3.771  0.00  0.00     0.104 A 
ATOM      3  C9  <0> d           3.349  -0.843  -4.211  0.00  0.00     0.270 A 
ATOM      4  O1  <0> d           3.929  -1.714  -4.839  0.00  0.00    -0.266 OA
ATOM      5  N2  <0> d           3.965   0.323  -3.926  0.00  0.00    -0.202 N 
ATOM      6  C10 <0> d           3.301   1.294  -3.219  0.00  0.00     0.155 A 
ATOM      7  N3  <0> d           2.050   1.102  -2.813  0.00  0.00    -0.233 NA
ATOM      8  C11 <0> d           4.175   2.387  -3.070  0.00  0.00     0.084 A 
ATOM      9  C12 <0> d           5.364   2.070  -3.690  0.00  0.00     0.069 A 
ATOM     10  N4  <0> d           5.248   0.802  -4.221  0.00  0.00    -0.288 N 
ATOM     11  H1  <0> d           5.935   0.325  -4.712  0.00  0.00     0.188 HD
ENDROOT
BRANCH   1  12
ATOM     12  C6  <0> d          -0.008  -0.215  -2.583  0.00  0.00     0.107 C 
BRANCH  12  13
ATOM     13  C3  <0> d           0.006  -0.708  -1.159  0.00  0.00     0.014 A 
ATOM     14  C2  <0> d           0.002  -0.004   0.002  0.00  0.00     0.045 A 
ATOM     15  C1  <0> d          -0.018   1.503   0.010  0.00  0.00     0.071 C 
ATOM     16  N1  <0> d           0.023  -0.699   1.122  0.00  0.00    -0.250 NA
ATOM     17  C4  <0> d           0.036  -2.009   1.111  0.00  0.00     0.071 A 
ATOM     18  S1  <0> d           0.032  -2.379  -0.531  0.00  0.00    -0.077 SA
ATOM     19  C5  <0> d           0.055  -2.955   2.284  0.00  0.00     0.078 C 
ENDBRANCH  12  13
ENDBRANCH   1  12
BRANCH   9  20
ATOM     20  C13 <0> d           6.548   2.931  -3.771  0.00  0.00     0.033 A 
ATOM     21  S2  <0> d           8.120   2.610  -4.546  0.00  0.00    -0.100 SA
ATOM     22  C16 <0> d           8.892   4.061  -4.196  0.00  0.00     0.050 A 
ATOM     23  C15 <0> d           7.971   4.768  -3.498  0.00  0.00     0.008 A 
ATOM     24  C14 <0> d           6.737   4.206  -3.259  0.00  0.00     0.021 A 
ENDBRANCH   9  20
TORSDOF 3
