REMARK  9 active torsions:
REMARK  status: ('A' for Active; 'I' for Inactive)
REMARK    1  A    between atoms: O1_2  and  C2_3 
REMARK    2  A    between atoms: C5_6  and  C8_9 
REMARK    3  A    between atoms: C8_9  and  C9_10 
REMARK    4  A    between atoms: C8_9  and  C20_27 
REMARK    5  A    between atoms: C9_10  and  N1_11 
REMARK       I    between atoms: N1_11  and  C10_12 
REMARK    6  A    between atoms: C10_12  and  C11_14 
REMARK    7  A    between atoms: C14_17  and  S1_20 
REMARK    8  A    between atoms: S1_20  and  N2_23 
REMARK    9  A    between atoms: N2_23  and  C17_24 
ROOT
ATOM      1  C17 <0> d          10.714  -5.671  -8.974  0.00  0.00     0.225 C 
ATOM      2  C18 <0> d          11.813  -4.982  -9.668  0.00  0.00    -0.097 C 
ATOM      3  C19 <0> d          12.690  -4.432 -10.222  0.00  0.00     0.014 C 
ENDROOT
BRANCH   1   4
ATOM      4  N2  <0> d           9.623  -5.926  -9.918  0.00  0.00    -0.304 N 
ATOM      5  H16 <0> d           9.603  -5.465 -10.771  0.00  0.00     0.173 HD
BRANCH   4   6
ATOM      6  S1  <0> d           8.425  -7.001  -9.529  0.00  0.00     0.259 S 
ATOM      7  O3  <0> d           9.071  -8.180  -9.069  0.00  0.00    -0.201 OA
ATOM      8  O4  <0> d           7.515  -7.008 -10.620  0.00  0.00    -0.201 OA
BRANCH   6   9
ATOM      9  C14 <0> d           7.554  -6.334  -8.151  0.00  0.00     0.079 A 
ATOM     10  C13 <0> d           6.463  -5.508  -8.360  0.00  0.00     0.026 A 
ATOM     11  C12 <0> d           5.777  -4.982  -7.285  0.00  0.00     0.018 A 
ATOM     12  C11 <0> d           6.184  -5.285  -5.984  0.00  0.00     0.032 A 
ATOM     13  C16 <0> d           7.288  -6.114  -5.781  0.00  0.00     0.018 A 
ATOM     14  C15 <0> d           7.963  -6.638  -6.864  0.00  0.00     0.026 A 
BRANCH  12  15
ATOM     15  C10 <0> d           5.453  -4.725  -4.828  0.00  0.00     0.251 C 
ATOM     16  N1  <0> d           4.387  -3.925  -5.028  0.00  0.00    -0.356 N 
ATOM     17  H11 <0> d           4.099  -3.716  -5.931  0.00  0.00     0.162 HD
ATOM     18  O2  <0> d           5.813  -4.986  -3.697  0.00  0.00    -0.268 OA
BRANCH  16  19
ATOM     19  C9  <0> d           3.662  -3.370  -3.882  0.00  0.00     0.136 C 
BRANCH  19  20
ATOM     20  C8  <0> d           2.505  -2.503  -4.381  0.00  0.00     0.068 C 
BRANCH  20  21
ATOM     21  C5  <0> d           1.835  -1.835  -3.209  0.00  0.00    -0.048 A 
ATOM     22  C4  <0> d           1.786  -0.455  -3.136  0.00  0.00     0.011 A 
ATOM     23  C3  <0> d           1.173   0.161  -2.062  0.00  0.00     0.037 A 
ATOM     24  C2  <0> d           0.606  -0.607  -1.056  0.00  0.00     0.068 A 
ATOM     25  C7  <0> d           0.661  -1.992  -1.128  0.00  0.00     0.037 A 
ATOM     26  C6  <0> d           1.270  -2.602  -2.207  0.00  0.00     0.011 A 
BRANCH  24  27
ATOM     27  O1  <0> d           0.002  -0.004   0.002  0.00  0.00    -0.356 OA
ATOM     28  C1  <0> d          -0.017   1.425   0.010  0.00  0.00     0.210 C 
ENDBRANCH  24  27
ENDBRANCH  20  21
BRANCH  20  29
ATOM     29  C20 <0> d           1.505  -3.369  -5.104  0.00  0.00    -0.040 A 
ATOM     30  C27 <0> d           0.735  -4.539  -4.534  0.00  0.00     0.155 A 
ATOM     31  N3  <0> d          -0.103  -5.041  -5.629  0.00  0.00    -0.385 N 
ATOM     32  C26 <0> d           0.119  -4.311  -6.694  0.00  0.00     0.038 A 
ATOM     33  H26 <0> d          -0.716  -5.791  -5.574  0.00  0.00     0.160 HD
ATOM     34  C21 <0> d           1.118  -3.260  -6.396  0.00  0.00    -0.005 A 
ATOM     35  C25 <0> d          -0.418  -4.367  -8.010  0.00  0.00     0.030 A 
ATOM     36  C22 <0> d           1.498  -2.337  -7.473  0.00  0.00     0.014 A 
ATOM     37  C23 <0> d           0.925  -2.479  -8.690  0.00  0.00     0.001 A 
ATOM     38  C24 <0> d          -0.019  -3.482  -8.948  0.00  0.00     0.002 A 
ENDBRANCH  20  29
ENDBRANCH  19  20
ENDBRANCH  16  19
ENDBRANCH  12  15
ENDBRANCH   6   9
ENDBRANCH   4   6
ENDBRANCH   1   4
TORSDOF 9
