REMARK  7 active torsions:
REMARK  status: ('A' for Active; 'I' for Inactive)
REMARK    1  A    between atoms: C2_2  and  C3_3 
REMARK    2  A    between atoms: C2_2  and  S1_11 
REMARK       I    between atoms: C3_3  and  N1_5 
REMARK    3  A    between atoms: N1_5  and  C4_6 
REMARK    4  A    between atoms: C4_6  and  C5_7 
REMARK    5  A    between atoms: C5_7  and  C6_8 
REMARK    6  A    between atoms: S1_11  and  C9_13 
REMARK    7  A    between atoms: C13_18  and  N3_19 
ROOT
ATOM      1  C1  <0> d          -0.277   1.433   0.064  0.00  0.00     0.034 C 
ATOM      2  C2  <0> d          -0.158  -0.091   0.009  0.00  0.00     0.172 C 
ENDROOT
BRANCH   2   3
ATOM      3  C3  <0> d           0.534  -0.586   1.253  0.00  0.00     0.233 C 
ATOM      4  O1  <0> d           1.731  -0.781   1.244  0.00  0.00    -0.272 OA
ATOM      5  N1  <0> d          -0.177  -0.811   2.375  0.00  0.00    -0.360 N 
ATOM      6  H5  <0> d          -1.134  -0.654   2.382  0.00  0.00     0.162 HD
BRANCH   5   7
ATOM      7  C4  <0> d           0.496  -1.292   3.584  0.00  0.00     0.123 C 
BRANCH   7   8
ATOM      8  C5  <0> d          -0.531  -1.464   4.705  0.00  0.00     0.023 C 
BRANCH   8   9
ATOM      9  C6  <0> d           0.171  -1.966   5.968  0.00  0.00    -0.021 C 
ATOM     10  C7  <0> d           1.143  -0.897   6.471  0.00  0.00     0.009 C 
ATOM     11  C8  <0> d          -0.871  -2.257   7.050  0.00  0.00     0.009 C 
ENDBRANCH   8   9
ENDBRANCH   7   8
ENDBRANCH   5   7
ENDBRANCH   2   3
BRANCH   2  12
ATOM     12  S1  <0> d           0.807  -0.570  -1.451  0.00  0.00     0.065 S 
ATOM     13  O2  <0> d           0.643  -1.961  -1.691  0.00  0.00    -0.252 OA
BRANCH  12  14
ATOM     14  C9  <0> d          -0.040   0.197  -2.792  0.00  0.00     0.061 A 
ATOM     15  C13 <0> d           0.231   1.517  -3.145  0.00  0.00     0.062 A 
ATOM     16  C12 <0> d          -0.456   2.083  -4.212  0.00  0.00     0.146 A 
ATOM     17  N2  <0> d          -1.357   1.388  -4.876  0.00  0.00    -0.271 NA
ATOM     18  C11 <0> d          -1.640   0.138  -4.563  0.00  0.00     0.117 A 
ATOM     19  C10 <0> d          -0.995  -0.496  -3.518  0.00  0.00     0.042 A 
BRANCH  15  20
ATOM     20  N3  <0> d           1.181   2.259  -2.440  0.00  0.00    -0.397 N 
ATOM     21  H20 <0> d           1.724   1.831  -1.759  0.00  0.00     0.156 HD
ATOM     22  H21 <0> d           1.299   3.203  -2.631  0.00  0.00     0.156 HD
ENDBRANCH  15  20
ENDBRANCH  12  14
ENDBRANCH   2  12
TORSDOF 7
