REMARK  4 active torsions:
REMARK  status: ('A' for Active; 'I' for Inactive)
REMARK    1  A    between atoms: N2_8  and  C6_9 
REMARK    2  A    between atoms: C6_9  and  C7_10 
REMARK    3  A    between atoms: C7_10  and  C8_11 
REMARK       I    between atoms: C8_11  and  N3_13 
REMARK    4  A    between atoms: N3_13  and  C9_14 
ROOT
ATOM      1  C7  <0> d           2.097  -0.321   4.077  0.00  0.00     0.131 C 
ENDROOT
BRANCH   1   2
ATOM      2  C6  <0> d           3.024   0.590   3.270  0.00  0.00     0.245 C 
BRANCH   2   3
ATOM      3  N2  <0> d           3.585  -0.160   2.138  0.00  0.00    -0.052 N 
ATOM      4  C2  <0> d           4.379   0.743   1.295  0.00  0.00     0.200 C 
ATOM      5  C1  <0> d           5.377   1.505   2.169  0.00  0.00     0.057 C 
ATOM      6  C3  <0> d           5.127  -0.044   0.256  0.00  0.00     0.253 C 
ATOM      7  C15 <0> d           3.448   1.738   0.601  0.00  0.00     0.057 C 
ATOM      8  O1  <0> d           5.560   0.539  -0.715  0.00  0.00    -0.271 OA
ATOM      9  N1  <0> d           5.334  -1.362   0.359  0.00  0.00    -0.357 N 
ATOM     10  C4  <0> d           4.828  -2.154   1.478  0.00  0.00     0.150 C 
ATOM     11  H4  <0> d           5.841  -1.809  -0.336  0.00  0.00     0.162 HD
ATOM     12  C5  <0> d           4.457  -1.232   2.642  0.00  0.00     0.256 C 
ATOM     13  H20 <0> d           2.837  -0.561   1.593  0.00  0.00     0.281 HD
ENDBRANCH   2   3
ENDBRANCH   1   2
BRANCH   1  14
ATOM     14  C8  <0> d           1.522   0.449   5.238  0.00  0.00     0.223 C 
ATOM     15  O2  <0> d           1.823   1.611   5.403  0.00  0.00    -0.273 OA
ATOM     16  N3  <0> d           0.672  -0.156   6.092  0.00  0.00    -0.324 N 
ATOM     17  H13 <0> d           0.373  -1.062   5.919  0.00  0.00     0.169 HD
BRANCH  16  18
ATOM     18  C9  <0> d           0.220   0.526   7.229  0.00  0.00     0.078 A 
ATOM     19  C14 <0> d           0.938   0.453   8.415  0.00  0.00     0.062 A 
ATOM     20  C13 <0> d           0.492   1.131   9.534  0.00  0.00     0.026 A 
ATOM     21 Cl1  <0> d           2.397  -0.484   8.492  0.00  0.00    -0.082 Cl
ATOM     22  C12 <0> d          -0.674   1.873   9.476  0.00  0.00     0.003 A 
ATOM     23  C11 <0> d          -1.394   1.943   8.298  0.00  0.00     0.026 A 
ATOM     24  C10 <0> d          -0.951   1.272   7.174  0.00  0.00     0.062 A 
ATOM     25 Cl2  <0> d          -1.856   1.361   5.695  0.00  0.00    -0.082 Cl
ENDBRANCH  16  18
ENDBRANCH   1  14
TORSDOF 4
