REMARK  4 active torsions:
REMARK  status: ('A' for Active; 'I' for Inactive)
REMARK    1  A    between atoms: C6_9  and  C7_11 
REMARK    2  A    between atoms: C7_11  and  N5_12 
REMARK    3  A    between atoms: N5_12  and  S1_13 
REMARK    4  A    between atoms: S1_13  and  C8_16 
ROOT
ATOM      1  C7  <0> d           2.630   3.786   2.437  0.00  0.00     0.215 C 
ENDROOT
BRANCH   1   2
ATOM      2  C6  <0> d           2.706   4.626   3.686  0.00  0.00     0.184 A 
ATOM      3  N3  <0> d           3.431   5.728   3.823  0.00  0.00    -0.042 NA
ATOM      4  C5  <0> d           3.269   6.224   5.045  0.00  0.00     0.751 A 
ATOM      5  N1  <0> d           2.411   5.392   5.708  0.00  0.00    -0.063 N 
ATOM      6  N2  <0> d           3.773   7.301   5.657  0.00  0.00    -0.066 NA
ATOM      7  C4  <0> d           2.062   5.652   6.996  0.00  0.00     0.052 A 
ATOM      8  N4  <0> d           2.069   4.376   4.805  0.00  0.00    -0.135 NA
ATOM      9  C3  <0> d           2.579   6.747   7.610  0.00  0.00     0.055 A 
ATOM     10  C12 <0> d           1.117   4.738   7.732  0.00  0.00     0.071 C 
ATOM     11  C2  <0> d           3.455   7.579   6.901  0.00  0.00     0.051 A 
ATOM     12  C1  <0> d           4.035   8.799   7.569  0.00  0.00     0.071 C 
ENDBRANCH   1   2
BRANCH   1  13
ATOM     13  N5  <0> d           1.535   4.267   1.591  0.00  0.00    -0.308 N 
ATOM     14  H7  <0> d           0.864   4.863   1.959  0.00  0.00     0.172 HD
BRANCH  13  15
ATOM     15  S1  <0> d           1.442   3.791   0.008  0.00  0.00     0.265 S 
ATOM     16  O1  <0> d           2.731   3.995  -0.554  0.00  0.00    -0.200 OA
ATOM     17  O2  <0> d           0.273   4.394  -0.529  0.00  0.00    -0.200 OA
BRANCH  15  18
ATOM     18  C8  <0> d           1.159   2.052   0.002  0.00  0.00     0.121 A 
ATOM     19  S2  <0> d           2.348   0.720  -0.017  0.00  0.00    -0.069 SA
ATOM     20  C11 <0> d           1.197  -0.645  -0.013  0.00  0.00     0.052 A 
ATOM     21  C10 <0> d           0.002  -0.004   0.002  0.00  0.00     0.028 A 
ATOM     22 Br1  <0> d           1.553  -2.502  -0.027  0.00  0.00    -0.043 Br
ATOM     23  C9  <0> d          -0.017   1.378   0.010  0.00  0.00     0.035 A 
ENDBRANCH  15  18
ENDBRANCH  13  15
ENDBRANCH   1  13
TORSDOF 4
