REMARK  3 active torsions:
REMARK  status: ('A' for Active; 'I' for Inactive)
REMARK    1  A    between atoms: C8_9  and  C9_11 
REMARK    2  A    between atoms: C9_11  and  N1_12 
REMARK    3  A    between atoms: C12_15  and  C15_18 
ROOT
ATOM      1  N1  <0> d           5.928  -2.032   0.793  0.00  0.00    -0.069 N 
ATOM      2  C10 <0> d           5.975  -0.587   0.537  0.00  0.00     0.235 C 
ATOM      3  C11 <0> d           6.968   0.072   1.496  0.00  0.00     0.040 C 
ATOM      4  C12 <0> d           8.358  -0.532   1.280  0.00  0.00     0.058 C 
ATOM      5  C13 <0> d           8.280  -2.049   1.478  0.00  0.00     0.040 C 
ATOM      6  C14 <0> d           7.240  -2.630   0.518  0.00  0.00     0.235 C 
ATOM      7  H23 <0> d           5.682  -2.192   1.758  0.00  0.00     0.280 HD
ENDROOT
BRANCH   1   8
ATOM      8  C9  <0> d           4.918  -2.649  -0.077  0.00  0.00     0.269 C 
BRANCH   8   9
ATOM      9  C8  <0> d           4.753  -4.123   0.299  0.00  0.00     0.179 C 
ATOM     10  C7  <0> d           3.708  -4.777  -0.615  0.00  0.00     0.210 C 
ATOM     11  O1  <0> d           3.568  -6.148  -0.228  0.00  0.00    -0.346 OA
ATOM     12  C5  <0> d           3.451  -6.399   1.104  0.00  0.00     0.102 A 
ATOM     13  C4  <0> d           3.818  -5.442   2.043  0.00  0.00     0.102 A 
ATOM     14  C6  <0> d           2.964  -7.627   1.526  0.00  0.00     0.039 A 
ATOM     15  C3  <0> d           3.698  -5.722   3.396  0.00  0.00     0.039 A 
ATOM     16  O2  <0> d           4.293  -4.228   1.651  0.00  0.00    -0.339 OA
ATOM     17  C2  <0> d           3.213  -6.948   3.809  0.00  0.00     0.003 A 
ATOM     18  C1  <0> d           2.846  -7.899   2.875  0.00  0.00     0.003 A 
ENDBRANCH   8   9
ENDBRANCH   1   8
BRANCH   4  19
ATOM     19  C15 <0> d           9.324   0.057   2.275  0.00  0.00     0.109 A 
ATOM     20  N3  <0> d          10.102   1.074   2.046  0.00  0.00    -0.233 NA
ATOM     21  C21 <0> d          10.838   1.345   3.155  0.00  0.00     0.087 A 
ATOM     22  C16 <0> d          10.474   0.400   4.129  0.00  0.00     0.062 A 
ATOM     23  C20 <0> d          11.806   2.307   3.458  0.00  0.00     0.057 A 
ATOM     24  N2  <0> d           9.514  -0.401   3.542  0.00  0.00    -0.342 N 
ATOM     25  C17 <0> d          11.074   0.428   5.380  0.00  0.00     0.034 A 
ATOM     26  H2  <0> d           9.059  -1.151   3.957  0.00  0.00     0.167 HD
ATOM     27  C18 <0> d          12.027   1.383   5.663  0.00  0.00     0.026 A 
ATOM     28  C19 <0> d          12.390   2.320   4.704  0.00  0.00     0.036 A 
ATOM     29 Cl1  <0> d          13.591   3.515   5.080  0.00  0.00    -0.084 Cl
ENDBRANCH   4  19
TORSDOF 3
