REMARK  4 active torsions:
REMARK  status: ('A' for Active; 'I' for Inactive)
REMARK    1  A    between atoms: C6_6  and  N1_7 
REMARK       I    between atoms: N1_7  and  C7_8 
REMARK    2  A    between atoms: C7_8  and  C8_10 
REMARK    3  A    between atoms: C8_10  and  S1_11 
REMARK    4  A    between atoms: S1_11  and  C9_12 
ROOT
ATOM      1  C9  <0> d           0.038   1.032  -2.809  0.00  0.00     0.211 A 
ATOM      2  N2  <0> d           1.111   0.284  -2.716  0.00  0.00    -0.107 NA
ATOM      3  N3  <0> d           1.542  -0.023  -4.013  0.00  0.00     0.045 NA
ATOM      4  C10 <0> d           0.719   0.547  -4.859  0.00  0.00     0.734 A 
ATOM      5  N4  <0> d          -0.236   1.212  -4.139  0.00  0.00    -0.122 N 
ATOM      6  C11 <0> d          -1.248   1.909  -4.776  0.00  0.00     0.048 A 
ATOM      7  C12 <0> d          -1.296   1.935  -6.113  0.00  0.00     0.034 A 
ATOM      8  C13 <0> d          -0.308   1.238  -6.867  0.00  0.00     0.268 A 
ATOM      9  O2  <0> d          -0.352   1.255  -8.084  0.00  0.00    -0.267 OA
ATOM     10  N5  <0> d           0.677   0.568  -6.243  0.00  0.00    -0.152 N 
ATOM     11  H1  <0> d           1.348   0.094  -6.759  0.00  0.00     0.188 HD
ATOM     12  C14 <0> d          -2.358   2.679  -6.881  0.00  0.00     0.046 C 
ATOM     13  C15 <0> d          -3.554   2.992  -5.985  0.00  0.00     0.005 C 
ATOM     14  C16 <0> d          -3.032   3.653  -4.704  0.00  0.00     0.006 C 
ATOM     15  C17 <0> d          -2.262   2.604  -3.905  0.00  0.00     0.059 C 
ENDROOT
BRANCH   1  16
ATOM     16  S1  <0> d          -0.891   1.685  -1.462  0.00  0.00    -0.080 SA
BRANCH  16  17
ATOM     17  C8  <0> d          -0.016   1.080   0.008  0.00  0.00     0.185 C 
BRANCH  17  18
ATOM     18  C7  <0> d          -0.717   1.573   1.248  0.00  0.00     0.231 C 
ATOM     19  N1  <0> d          -0.242   1.246   2.466  0.00  0.00    -0.327 N 
ATOM     20  H6  <0> d           0.511   0.639   2.546  0.00  0.00     0.169 HD
ATOM     21  O1  <0> d          -1.709   2.265   1.150  0.00  0.00    -0.272 OA
BRANCH  19  22
ATOM     22  C6  <0> d          -0.833   1.782   3.615  0.00  0.00     0.034 A 
ATOM     23  C1  <0> d          -0.052   2.086   4.723  0.00  0.00     0.031 A 
ATOM     24  C2  <0> d          -0.638   2.621   5.853  0.00  0.00     0.021 A 
ATOM     25  C3  <0> d          -2.003   2.842   5.888  0.00  0.00     0.011 A 
ATOM     26  C4  <0> d          -2.785   2.535   4.788  0.00  0.00     0.021 A 
ATOM     27 Br1  <0> d          -2.803   3.567   7.440  0.00  0.00    -0.051 Br
ATOM     28  C5  <0> d          -2.204   2.006   3.652  0.00  0.00     0.031 A 
ENDBRANCH  19  22
ENDBRANCH  17  18
ENDBRANCH  16  17
ENDBRANCH   1  16
TORSDOF 4
