REMARK  7 active torsions:
REMARK  status: ('A' for Active; 'I' for Inactive)
REMARK    1  A    between atoms: C2_2  and  O1_3 
REMARK    2  A    between atoms: O1_3  and  C3_4 
REMARK    3  A    between atoms: N1_6  and  C12_21 
REMARK    4  A    between atoms: C5_8  and  C6_9 
REMARK       I    between atoms: C6_9  and  N3_11 
REMARK    5  A    between atoms: N3_11  and  C7_12 
REMARK    6  A    between atoms: C7_12  and  C8_13 
REMARK    7  A    between atoms: C8_13  and  C9_14 
ROOT
ATOM      1  C3  <0> d           0.802  -1.826   1.306  0.00  0.00     0.122 A 
ATOM      2  C4  <0> d           0.331  -2.784   0.468  0.00  0.00     0.158 A 
ATOM      3  N1  <0> d           0.666  -3.988   1.008  0.00  0.00    -0.242 N 
ATOM      4  N2  <0> d           1.305  -3.815   2.109  0.00  0.00    -0.159 NA
ATOM      5  C5  <0> d           1.438  -2.527   2.363  0.00  0.00     0.179 A 
ENDROOT
BRANCH   5   6
ATOM      6  C6  <0> d           2.115  -1.928   3.528  0.00  0.00     0.274 C 
ATOM      7  O2  <0> d           2.165  -0.719   3.647  0.00  0.00    -0.266 OA
ATOM      8  N3  <0> d           2.679  -2.721   4.460  0.00  0.00    -0.355 N 
ATOM      9  H7  <0> d           2.639  -3.686   4.365  0.00  0.00     0.162 HD
BRANCH   8  10
ATOM     10  C7  <0> d           3.352  -2.127   5.618  0.00  0.00     0.130 C 
BRANCH  10  11
ATOM     11  C8  <0> d           3.900  -3.238   6.515  0.00  0.00     0.100 C 
BRANCH  11  12
ATOM     12  C9  <0> d           4.593  -2.626   7.706  0.00  0.00     0.130 A 
ATOM     13  N6  <0> d           5.203  -3.322   8.720  0.00  0.00    -0.314 N 
ATOM     14  C10 <0> d           5.711  -2.435   9.598  0.00  0.00     0.195 A 
ATOM     15  C11 <0> d           5.290  -4.781   8.827  0.00  0.00     0.160 C 
ATOM     16  N5  <0> d           5.412  -1.200   9.142  0.00  0.00    -0.251 N 
ATOM     17  S1  <0> d           6.569  -2.805  11.032  0.00  0.00    -0.039 SA
ATOM     18  N4  <0> d           4.705  -1.359   7.943  0.00  0.00    -0.159 NA
ATOM     19  H15 <0> d           5.645  -0.359   9.566  0.00  0.00     0.191 HD
ENDBRANCH  11  12
ENDBRANCH  10  11
ENDBRANCH   8  10
ENDBRANCH   5   6
BRANCH   1  20
ATOM     20  O1  <0> d           0.693  -0.477   1.160  0.00  0.00    -0.347 OA
BRANCH  20  21
ATOM     21  C2  <0> d           0.002  -0.004   0.002  0.00  0.00     0.171 C 
ATOM     22  C1  <0> d          -0.019   1.526   0.010  0.00  0.00     0.034 C 
ENDBRANCH  20  21
ENDBRANCH   1  20
BRANCH   3  23
ATOM     23  C12 <0> d           0.360  -5.233   0.445  0.00  0.00     0.058 A 
ATOM     24  C17 <0> d           0.753  -6.402   1.084  0.00  0.00     0.031 A 
ATOM     25  C16 <0> d           0.445  -7.628   0.529  0.00  0.00     0.002 A 
ATOM     26  C15 <0> d          -0.244  -7.694  -0.668  0.00  0.00     0.000 A 
ATOM     27  C14 <0> d          -0.632  -6.532  -1.310  0.00  0.00     0.002 A 
ATOM     28  C13 <0> d          -0.332  -5.302  -0.757  0.00  0.00     0.031 A 
ENDBRANCH   3  23
TORSDOF 7
