REMARK  7 active torsions:
REMARK  status: ('A' for Active; 'I' for Inactive)
REMARK    1  A    between atoms: C5_5  and  S1_9 
REMARK    2  A    between atoms: S1_9  and  N1_12 
REMARK    3  A    between atoms: N1_12  and  C9_13 
REMARK    4  A    between atoms: C9_13  and  C10_14 
REMARK    5  A    between atoms: C9_13  and  C16_20 
REMARK    6  A    between atoms: C16_20  and  C17_21 
REMARK    7  A    between atoms: C16_20  and  N2_27 
ROOT
ATOM      1  C9  <0> d           1.541  -5.579   1.452  0.00  0.00     0.161 C 
ENDROOT
BRANCH   1   2
ATOM      2  N1  <0> d           0.505  -5.738   0.428  0.00  0.00    -0.304 N 
ATOM      3  H11 <0> d           0.662  -6.316  -0.335  0.00  0.00     0.173 HD
BRANCH   2   4
ATOM      4  S1  <0> d          -0.934  -4.932   0.574  0.00  0.00     0.260 S 
ATOM      5  O1  <0> d          -1.395  -5.160   1.899  0.00  0.00    -0.200 OA
ATOM      6  O2  <0> d          -1.707  -5.269  -0.570  0.00  0.00    -0.200 OA
BRANCH   4   7
ATOM      7  C5  <0> d          -0.581  -3.210   0.453  0.00  0.00     0.091 A 
ATOM      8  C4  <0> d          -0.411  -2.457   1.600  0.00  0.00    -0.038 A 
ATOM      9  C3  <0> d          -0.133  -1.106   1.505  0.00  0.00     0.015 A 
ATOM     10  C23 <0> d          -0.529  -3.108   2.954  0.00  0.00     0.050 C 
ATOM     11  C2  <0> d          -0.025  -0.508   0.263  0.00  0.00    -0.061 A 
ATOM     12  C1  <0> d           0.278   0.964   0.159  0.00  0.00     0.048 C 
ATOM     13  C7  <0> d          -0.200  -1.260  -0.884  0.00  0.00     0.015 A 
ATOM     14  C6  <0> d          -0.473  -2.612  -0.789  0.00  0.00    -0.038 A 
ATOM     15  C8  <0> d          -0.658  -3.433  -2.039  0.00  0.00     0.050 C 
ENDBRANCH   4   7
ENDBRANCH   2   4
ENDBRANCH   1   2
BRANCH   1  16
ATOM     16  C10 <0> d           2.602  -4.635   0.949  0.00  0.00    -0.033 A 
ATOM     17  C15 <0> d           3.162  -3.705   1.806  0.00  0.00     0.009 A 
ATOM     18  C14 <0> d           4.139  -2.841   1.346  0.00  0.00     0.001 A 
ATOM     19  C13 <0> d           4.550  -2.902   0.028  0.00  0.00     0.000 A 
ATOM     20  C12 <0> d           3.986  -3.828  -0.830  0.00  0.00     0.001 A 
ATOM     21  C11 <0> d           3.013  -4.694  -0.369  0.00  0.00     0.009 A 
ENDBRANCH   1  16
BRANCH   1  22
ATOM     22  C16 <0> d           2.171  -6.940   1.756  0.00  0.00     0.244 C 
BRANCH  22  23
ATOM     23  C17 <0> d           3.149  -6.798   2.893  0.00  0.00    -0.026 A 
ATOM     24  C22 <0> d           4.504  -6.708   2.633  0.00  0.00     0.009 A 
ATOM     25  C21 <0> d           5.401  -6.573   3.676  0.00  0.00     0.001 A 
ATOM     26  C20 <0> d           4.944  -6.537   4.980  0.00  0.00     0.000 A 
ATOM     27  C19 <0> d           3.589  -6.632   5.241  0.00  0.00     0.001 A 
ATOM     28  C18 <0> d           2.692  -6.763   4.197  0.00  0.00     0.009 A 
ENDBRANCH  22  23
BRANCH  22  29
ATOM     29  N2  <0> d           1.119  -7.894   2.131  0.00  0.00    -0.069 N 
ATOM     30  H22 <0> d           0.464  -7.989   1.369  0.00  0.00     0.275 HD
ATOM     31  H23 <0> d           1.535  -8.791   2.331  0.00  0.00     0.275 HD
ATOM     32  H27 <0> d           0.636  -7.557   2.950  0.00  0.00     0.275 HD
ENDBRANCH  22  29
ENDBRANCH   1  22
TORSDOF 7
