REMARK  2 active torsions:
REMARK  status: ('A' for Active; 'I' for Inactive)
REMARK       I    between atoms: C2_2  and  N1_4 
REMARK    1  A    between atoms: N1_4  and  C3_5 
REMARK    2  A    between atoms: C8_10  and  N2_15 
REMARK       I    between atoms: N2_15  and  C13_16 
ROOT
ATOM      1  C3  <0> d          -0.019   1.526   0.010  0.00  0.00     0.058 C 
ATOM      2  C4  <0> d           1.417   2.055  -0.000  0.00  0.00     0.033 C 
ATOM      3  C5  <0> d           2.157   1.548   1.239  0.00  0.00     0.003 C 
ATOM      4  C6  <0> d           2.178   0.019   1.231  0.00  0.00     0.003 C 
ATOM      5  C7  <0> d           0.742  -0.511   1.242  0.00  0.00     0.033 C 
ATOM      6  C8  <0> d           0.002  -0.004   0.002  0.00  0.00     0.058 C 
ATOM      7  C9  <0> d          -1.433  -0.534   0.013  0.00  0.00     0.033 C 
ATOM      8  C10 <0> d          -2.173  -0.027  -1.227  0.00  0.00     0.003 C 
ATOM      9  C11 <0> d          -2.194   1.503  -1.218  0.00  0.00     0.003 C 
ATOM     10  C12 <0> d          -0.759   2.033  -1.229  0.00  0.00     0.033 C 
ENDROOT
BRANCH   1  11
ATOM     11  N1  <0> d          -0.704   1.998   1.216  0.00  0.00    -0.350 N 
ATOM     12  C2  <0> d          -0.843   3.320   1.438  0.00  0.00     0.214 C 
ATOM     13  C1  <0> d          -1.549   3.806   2.677  0.00  0.00     0.117 C 
ATOM     14  O1  <0> d          -0.401   4.119   0.639  0.00  0.00    -0.274 OA
ATOM     15  H4  <0> d          -1.058   1.359   1.854  0.00  0.00     0.163 HD
ENDBRANCH   1  11
BRANCH   6  16
ATOM     16  N2  <0> d           0.688  -0.476  -1.203  0.00  0.00    -0.350 N 
ATOM     17  C13 <0> d           0.827  -1.799  -1.425  0.00  0.00     0.214 C 
ATOM     18  O2  <0> d           0.384  -2.597  -0.627  0.00  0.00    -0.274 OA
ATOM     19  C14 <0> d           1.532  -2.285  -2.665  0.00  0.00     0.117 C 
ATOM     20  H21 <0> d           1.042   0.162  -1.842  0.00  0.00     0.163 HD
ENDBRANCH   6  16
TORSDOF 2
