REMARK  5 active torsions:
REMARK  status: ('A' for Active; 'I' for Inactive)
REMARK    1  A    between atoms: C3_3  and  C5_6 
REMARK    2  A    between atoms: C5_6  and  C6_7 
REMARK    3  A    between atoms: C5_6  and  N3_19 
REMARK    4  A    between atoms: C6_7  and  N1_8 
REMARK       I    between atoms: N1_8  and  C7_9 
REMARK    5  A    between atoms: C7_9  and  C8_11 
ROOT
ATOM      1  C5  <0> d           4.009   1.790  -0.071  0.00  0.00     0.245 C 
ENDROOT
BRANCH   1   2
ATOM      2  C3  <0> d           2.583   1.511  -0.473  0.00  0.00     0.015 A 
ATOM      3  C2  <0> d           1.582   2.388  -0.731  0.00  0.00     0.017 A 
ATOM      4  C1  <0> d           0.339   1.899  -1.088  0.00  0.00     0.008 A 
ATOM      5  C4  <0> d           0.159   0.558  -1.170  0.00  0.00     0.050 A 
ATOM      6  S1  <0> d           1.776  -0.059  -0.734  0.00  0.00    -0.104 SA
ENDBRANCH   1   2
BRANCH   1   7
ATOM      7  C6  <0> d           4.157   1.607   1.441  0.00  0.00     0.161 C 
BRANCH   7   8
ATOM      8  N1  <0> d           3.936   0.201   1.786  0.00  0.00    -0.354 N 
ATOM      9  C7  <0> d           4.119  -0.219   3.054  0.00  0.00     0.253 C 
ATOM     10  O1  <0> d           4.468   0.570   3.911  0.00  0.00    -0.268 OA
ATOM     11  H8  <0> d           3.657  -0.429   1.103  0.00  0.00     0.162 HD
BRANCH   9  12
ATOM     12  C8  <0> d           3.896  -1.634   3.402  0.00  0.00     0.047 A 
ATOM     13  C12 <0> d           4.082  -2.070   4.698  0.00  0.00     0.108 A 
ATOM     14  N2  <0> d           3.874  -3.360   5.021  0.00  0.00    -0.333 N 
ATOM     15  C11 <0> d           3.493  -4.255   4.092  0.00  0.00     0.245 A 
ATOM     16  H2  <0> d           4.006  -3.649   5.937  0.00  0.00     0.168 HD
ATOM     17  C10 <0> d           3.296  -3.858   2.756  0.00  0.00     0.075 A 
ATOM     18  O2  <0> d           3.316  -5.419   4.410  0.00  0.00    -0.268 OA
ATOM     19  C9  <0> d           3.495  -2.559   2.407  0.00  0.00     0.024 A 
ENDBRANCH   9  12
ENDBRANCH   7   8
ENDBRANCH   1   7
BRANCH   1  20
ATOM     20  N3  <0> d           4.905   0.859  -0.767  0.00  0.00    -0.061 N 
ATOM     21  C18 <0> d           4.667   0.949  -2.140  0.00  0.00     0.236 C 
ATOM     22  C17 <0> d           5.504  -0.070  -2.941  0.00  0.00     0.028 C 
ATOM     23  C16 <0> d           6.915   0.447  -3.070  0.00  0.00     0.002 C 
ATOM     24  C15 <0> d           7.837  -0.074  -1.950  0.00  0.00     0.002 C 
ATOM     25  C14 <0> d           7.131  -0.070  -0.581  0.00  0.00     0.028 C 
ATOM     26  C13 <0> d           6.298   1.174  -0.394  0.00  0.00     0.236 C 
ATOM     27  H24 <0> d           4.695  -0.080  -0.463  0.00  0.00     0.280 HD
ENDBRANCH   1  20
TORSDOF 5
