REMARK  4 active torsions:
REMARK  status: ('A' for Active; 'I' for Inactive)
REMARK    1  A    between atoms: C2_2  and  C9_13 
REMARK    2  A    between atoms: N1_3  and  N2_4 
REMARK       I    between atoms: N2_4  and  C3_5 
REMARK    3  A    between atoms: C3_5  and  C4_7 
REMARK    4  A    between atoms: C24_28  and  O2_30 
ROOT
ATOM      1  C9  <0> d          -0.163   3.919   0.079  0.00  0.00     0.043 C 
ATOM      2  C10 <0> d          -0.021   4.673  -1.271  0.00  0.00     0.011 C 
ATOM      3  C11 <0> d           0.981   3.858  -2.127  0.00  0.00     0.006 C 
ATOM      4  C12 <0> d           1.184   2.553  -1.337  0.00  0.00    -0.001 C 
ATOM      5  C13 <0> d           1.094   3.038   0.125  0.00  0.00    -0.031 C 
ATOM      6  C14 <0> d           1.066   1.865   1.074  0.00  0.00     0.011 C 
ATOM      7  C15 <0> d           1.598   0.615   0.343  0.00  0.00     0.006 C 
ATOM      8  C16 <0> d           2.858   0.998  -0.426  0.00  0.00    -0.002 C 
ATOM      9  C17 <0> d           2.527   1.879  -1.611  0.00  0.00    -0.005 C 
ATOM     10  C18 <0> d           2.407   1.138  -2.934  0.00  0.00     0.006 C 
ATOM     11  C19 <0> d           3.494   0.097  -3.144  0.00  0.00     0.006 C 
ATOM     12  C20 <0> d           3.480  -0.887  -1.975  0.00  0.00    -0.004 C 
ATOM     13  C21 <0> d           3.792  -0.158  -0.680  0.00  0.00    -0.036 C 
ATOM     14  C22 <0> d           3.774  -1.141   0.491  0.00  0.00     0.012 C 
ATOM     15  C23 <0> d           4.765  -2.279   0.254  0.00  0.00     0.032 C 
ATOM     16  C24 <0> d           4.433  -3.002  -1.051  0.00  0.00     0.118 C 
ATOM     17  C25 <0> d           4.468  -2.023  -2.224  0.00  0.00     0.037 C 
ATOM     18  C26 <0> d           5.205   0.435  -0.764  0.00  0.00     0.016 C 
ATOM     19  C27 <0> d           2.281   3.951   0.471  0.00  0.00     0.016 C 
ENDROOT
BRANCH   1  20
ATOM     20  C2  <0> d          -1.424   3.102   0.067  0.00  0.00     0.033 C 
ATOM     21  C1  <0> d          -1.427   1.731  -0.559  0.00  0.00     0.068 C 
ATOM     22  N1  <0> d          -2.495   3.571   0.588  0.00  0.00    -0.181 NA
BRANCH  22  23
ATOM     23  N2  <0> d          -2.470   4.804   1.251  0.00  0.00    -0.243 N 
ATOM     24  C3  <0> d          -3.570   5.248   1.891  0.00  0.00     0.271 C 
ATOM     25  O1  <0> d          -4.611   4.625   1.813  0.00  0.00    -0.266 OA
ATOM     26  H10 <0> d          -1.659   5.337   1.254  0.00  0.00     0.192 HD
BRANCH  24  27
ATOM     27  C4  <0> d          -3.511   6.494   2.689  0.00  0.00     0.036 A 
ATOM     28  C8  <0> d          -4.609   6.915   3.446  0.00  0.00     0.036 A 
ATOM     29  C7  <0> d          -4.510   8.084   4.176  0.00  0.00     0.117 A 
ATOM     30  N3  <0> d          -3.401   8.797   4.165  0.00  0.00    -0.273 NA
ATOM     31  C6  <0> d          -2.343   8.436   3.466  0.00  0.00     0.117 A 
ATOM     32  C5  <0> d          -2.354   7.279   2.711  0.00  0.00     0.036 A 
ENDBRANCH  24  27
ENDBRANCH  22  23
ENDBRANCH   1  20
BRANCH  16  33
ATOM     33  O2  <0> d           5.386  -4.045  -1.272  0.00  0.00    -0.396 OA
ATOM     34  H33 <0> d           5.419  -4.705  -0.566  0.00  0.00     0.210 HD
ENDBRANCH  16  33
TORSDOF 4
