REMARK  4 active torsions:
REMARK  status: ('A' for Active; 'I' for Inactive)
REMARK    1  A    between atoms: C3_3  and  C17_24 
REMARK    2  A    between atoms: C5_7  and  C6_8 
REMARK    3  A    between atoms: C6_8  and  C7_10 
REMARK    4  A    between atoms: C7_10  and  N2_12 
REMARK       I    between atoms: N3_15  and  C13_18 
REMARK       I    between atoms: C13_18  and  N4_20 
ROOT
ATOM      1  C6  <0> d          -0.316  -2.469   2.509  0.00  0.00     0.209 C 
ATOM      2  O1  <0> d          -0.467  -1.292   2.254  0.00  0.00    -0.288 OA
ENDROOT
BRANCH   1   3
ATOM      3  C5  <0> d          -0.304  -3.424   1.463  0.00  0.00     0.088 A 
ATOM      4  C2  <0> d          -0.452  -3.154   0.120  0.00  0.00    -0.016 A 
ATOM      5  C1  <0> d          -0.656  -1.798  -0.506  0.00  0.00     0.052 C 
ATOM      6  C3  <0> d          -0.369  -4.392  -0.557  0.00  0.00     0.040 A 
ATOM      7  C4  <0> d          -0.179  -5.372   0.406  0.00  0.00     0.020 A 
ATOM      8  N1  <0> d          -0.145  -4.787   1.612  0.00  0.00    -0.356 N 
ATOM      9  C16 <0> d          -0.036  -6.848   0.142  0.00  0.00     0.069 C 
ATOM     10  H1  <0> d          -0.023  -5.248   2.456  0.00  0.00     0.166 HD
BRANCH   6  11
ATOM     11  C17 <0> d          -0.467  -4.601  -2.005  0.00  0.00     0.158 C 
ATOM     12  O3  <0> d          -1.533  -4.891  -2.506  0.00  0.00    -0.293 OA
ATOM     13  C18 <0> d           0.757  -4.455  -2.872  0.00  0.00     0.097 C 
ENDBRANCH   6  11
ENDBRANCH   1   3
BRANCH   1  14
ATOM     14  C7  <0> d          -0.141  -2.915   3.938  0.00  0.00     0.294 C 
ATOM     15  C8  <0> d           1.350  -3.054   4.250  0.00  0.00     0.051 C 
BRANCH  14  16
ATOM     16  N2  <0> d          -0.739  -1.920   4.838  0.00  0.00     0.103 N 
ATOM     17  C12 <0> d          -2.170  -1.747   4.556  0.00  0.00     0.293 C 
ATOM     18  C11 <0> d          -2.713  -0.579   5.385  0.00  0.00     0.158 C 
ATOM     19  N3  <0> d          -2.382  -0.816   6.799  0.00  0.00    -0.331 N 
ATOM     20  C10 <0> d          -0.988  -1.132   7.143  0.00  0.00     0.158 C 
ATOM     21  C13 <0> d          -3.331  -0.745   7.753  0.00  0.00     0.319 C 
ATOM     22  C9  <0> d          -0.512  -2.278   6.244  0.00  0.00     0.293 C 
ATOM     23  O2  <0> d          -3.119  -1.207   8.857  0.00  0.00    -0.247 OA
ATOM     24  N4  <0> d          -4.516  -0.162   7.483  0.00  0.00    -0.343 N 
ATOM     25  C14 <0> d          -5.611  -0.245   8.452  0.00  0.00     0.154 C 
ATOM     26  C15 <0> d          -4.708   0.555   6.220  0.00  0.00     0.154 C 
ENDBRANCH  14  16
ENDBRANCH   1  14
TORSDOF 4
