REMARK  2 active torsions:
REMARK  status: ('A' for Active; 'I' for Inactive)
REMARK    1  A    between atoms: C4_4  and  C13_15 
REMARK    2  A    between atoms: N1_6  and  C6_7 
ROOT
ATOM      1  C13 <0> d           0.015  -3.317  -1.428  0.00  0.00     0.034 C 
ATOM      2  C14 <0> d           0.525  -3.283  -2.710  0.00  0.00     0.080 C 
ATOM      3  C15 <0> d           1.180  -2.065  -3.261  0.00  0.00     0.141 C 
ATOM      4  N2  <0> d           1.872  -1.229  -2.532  0.00  0.00    -0.383 N 
ATOM      5  N3  <0> d           0.980  -1.901  -4.649  0.00  0.00    -0.191 N 
ATOM      6  C16 <0> d           0.686  -3.028  -5.386  0.00  0.00     0.201 A 
ATOM      7  N4  <0> d           0.472  -4.240  -4.940  0.00  0.00    -0.182 NA
ATOM      8  C17 <0> d           0.457  -4.460  -3.608  0.00  0.00     0.283 C 
ATOM      9  O1  <0> d           0.386  -5.592  -3.157  0.00  0.00    -0.265 OA
ATOM     10  S1  <0> d           0.657  -2.392  -7.041  0.00  0.00    -0.033 SA
ATOM     11  C18 <0> d           0.934  -0.673  -6.636  0.00  0.00     0.095 A 
ATOM     12  N5  <0> d           1.065  -0.712  -5.341  0.00  0.00    -0.161 NA
ATOM     13  C19 <0> d           1.001   0.517  -7.558  0.00  0.00     0.081 C 
ATOM     14  H13 <0> d           2.051  -1.431  -1.601  0.00  0.00     0.157 HD
ATOM     15  H17 <0> d           2.207  -0.407  -2.923  0.00  0.00     0.157 HD
ENDROOT
BRANCH   1  16
ATOM     16  C4  <0> d          -0.066  -2.123  -0.665  0.00  0.00    -0.011 A 
ATOM     17  C3  <0> d          -0.175  -0.750  -1.178  0.00  0.00     0.038 A 
ATOM     18  C2  <0> d          -0.224   0.054  -0.103  0.00  0.00     0.014 A 
ATOM     19  C1  <0> d          -0.336   1.556  -0.142  0.00  0.00     0.068 C 
ATOM     20  N1  <0> d          -0.149  -0.706   1.031  0.00  0.00    -0.319 N 
ATOM     21  C5  <0> d          -0.059  -2.013   0.716  0.00  0.00     0.023 A 
ATOM     22  C12 <0> d           0.038  -3.155   1.694  0.00  0.00     0.069 C 
BRANCH  20  23
ATOM     23  C6  <0> d          -0.166  -0.198   2.337  0.00  0.00     0.041 A 
ATOM     24  C11 <0> d          -1.299   0.444   2.818  0.00  0.00     0.053 A 
ATOM     25  C10 <0> d          -1.315   0.940   4.109  0.00  0.00     0.036 A 
ATOM     26  C9  <0> d          -0.199   0.806   4.916  0.00  0.00     0.024 A 
ATOM     27 Cl1  <0> d          -2.734   1.736   4.714  0.00  0.00    -0.084 Cl
ATOM     28  C8  <0> d           0.932   0.172   4.436  0.00  0.00     0.004 A 
ATOM     29  C7  <0> d           0.952  -0.330   3.150  0.00  0.00     0.030 A 
ENDBRANCH  20  23
ENDBRANCH   1  16
TORSDOF 2
