REMARK  11 active torsions:
REMARK  status: ('A' for Active; 'I' for Inactive)
REMARK    1  A    between atoms: C3_3  and  C6_8 
REMARK    2  A    between atoms: C6_8  and  C7_9 
REMARK    3  A    between atoms: C7_9  and  N3_10 
REMARK    4  A    between atoms: N3_10  and  C8_11 
REMARK    5  A    between atoms: C8_11  and  C9_12 
REMARK    6  A    between atoms: C12_15  and  O1_18 
REMARK    7  A    between atoms: O1_18  and  C15_19 
REMARK    8  A    between atoms: C15_19  and  C16_20 
REMARK    9  A    between atoms: C16_20  and  C17_21 
REMARK   10  A    between atoms: C16_20  and  O2_28 
REMARK   11  A    between atoms: C17_21  and  N4_22 
ROOT
ATOM      1  C9  <0> d          -2.191  -1.995  -6.421  0.00  0.00    -0.033 A 
ATOM      2  C10 <0> d          -3.236  -1.166  -6.786  0.00  0.00     0.011 A 
ATOM      3  C11 <0> d          -3.537  -0.979  -8.121  0.00  0.00     0.037 A 
ATOM      4  C12 <0> d          -2.790  -1.623  -9.096  0.00  0.00     0.068 A 
ATOM      5  C13 <0> d          -1.741  -2.454  -8.728  0.00  0.00     0.037 A 
ATOM      6  C14 <0> d          -1.441  -2.633  -7.391  0.00  0.00     0.011 A 
ENDROOT
BRANCH   1   7
ATOM      7  C8  <0> d          -1.865  -2.197  -4.964  0.00  0.00     0.270 C 
BRANCH   7   8
ATOM      8  N3  <0> d          -0.895  -1.182  -4.533  0.00  0.00    -0.071 N 
ATOM      9  H13 <0> d          -1.289  -0.263  -4.665  0.00  0.00     0.277 HD
ATOM     10  H35 <0> d          -0.052  -1.268  -5.082  0.00  0.00     0.277 HD
BRANCH   8  11
ATOM     11  C7  <0> d          -0.577  -1.379  -3.113  0.00  0.00     0.237 C 
BRANCH  11  12
ATOM     12  C6  <0> d           0.433  -0.322  -2.664  0.00  0.00     0.066 C 
BRANCH  12  13
ATOM     13  C3  <0> d           0.759  -0.524  -1.207  0.00  0.00    -0.026 A 
ATOM     14  C2  <0> d           0.002  -0.004   0.002  0.00  0.00     0.158 A 
ATOM     15  C1  <0> d          -0.019   1.526   0.010  0.00  0.00     0.041 C 
ATOM     16  N2  <0> d           0.787  -0.521   1.136  0.00  0.00    -0.183 NA
ATOM     17  N1  <0> d           1.738  -1.160   0.671  0.00  0.00    -0.160 NA
ATOM     18  C4  <0> d           1.780  -1.203  -0.679  0.00  0.00     0.057 A 
ATOM     19  C5  <0> d           2.837  -1.919  -1.480  0.00  0.00     0.072 C 
ENDBRANCH  12  13
ENDBRANCH  11  12
ENDBRANCH   8  11
ENDBRANCH   7   8
ENDBRANCH   1   7
BRANCH   4  20
ATOM     20  O1  <0> d          -3.084  -1.442 -10.411  0.00  0.00    -0.349 OA
BRANCH  20  21
ATOM     21  C15 <0> d          -2.272  -2.136 -11.360  0.00  0.00     0.209 C 
BRANCH  21  22
ATOM     22  C16 <0> d          -2.751  -1.810 -12.776  0.00  0.00     0.168 C 
BRANCH  22  23
ATOM     23  C17 <0> d          -1.964  -2.648 -13.785  0.00  0.00     0.268 C 
BRANCH  23  24
ATOM     24  N4  <0> d          -2.424  -2.335 -15.145  0.00  0.00    -0.069 N 
ATOM     25  C22 <0> d          -1.589  -3.050 -16.119  0.00  0.00     0.235 C 
ATOM     26  C21 <0> d          -2.011  -2.664 -17.538  0.00  0.00     0.028 C 
ATOM     27  C20 <0> d          -3.480  -3.042 -17.748  0.00  0.00     0.003 C 
ATOM     28  C19 <0> d          -4.333  -2.350 -16.681  0.00  0.00     0.028 C 
ATOM     29  C18 <0> d          -3.825  -2.747 -15.293  0.00  0.00     0.235 C 
ATOM     30  H36 <0> d          -2.349  -1.342 -15.304  0.00  0.00     0.280 HD
ENDBRANCH  23  24
ENDBRANCH  22  23
BRANCH  22  31
ATOM     31  O2  <0> d          -2.540  -0.422 -13.042  0.00  0.00    -0.392 OA
ATOM     32  H34 <0> d          -1.615  -0.146 -12.983  0.00  0.00     0.210 HD
ENDBRANCH  22  31
ENDBRANCH  21  22
ENDBRANCH  20  21
ENDBRANCH   4  20
TORSDOF 11
