REMARK  5 active torsions:
REMARK  status: ('A' for Active; 'I' for Inactive)
REMARK    1  A    between atoms: C3_3  and  S1_8 
REMARK    2  A    between atoms: S1_8  and  N2_11 
REMARK    3  A    between atoms: N2_11  and  C6_12 
REMARK    4  A    between atoms: C6_12  and  C7_13 
REMARK    5  A    between atoms: C10_16  and  N4_19 
ROOT
ATOM      1  C7  <0> d           3.681  -0.911  -4.157  0.00  0.00    -0.024 A 
ATOM      2  C8  <0> d           3.699  -1.053  -5.538  0.00  0.00     0.014 A 
ATOM      3  C9  <0> d           4.854  -0.717  -6.221  0.00  0.00     0.049 A 
ATOM      4  C10 <0> d           5.952  -0.251  -5.505  0.00  0.00     0.103 A 
ATOM      5  N3  <0> d           5.896  -0.129  -4.188  0.00  0.00    -0.352 N 
ATOM      6  C11 <0> d           4.805  -0.437  -3.511  0.00  0.00     0.098 A 
ATOM      7  H23 <0> d           6.673   0.198  -3.709  0.00  0.00     0.166 HD
ENDROOT
BRANCH   1   8
ATOM      8  C6  <0> d           2.445  -1.265  -3.371  0.00  0.00     0.172 C 
BRANCH   8   9
ATOM      9  N2  <0> d           1.582  -0.086  -3.262  0.00  0.00    -0.311 N 
ATOM     10  H8  <0> d           1.934   0.794  -3.469  0.00  0.00     0.172 HD
BRANCH   9  11
ATOM     11  S1  <0> d           0.005  -0.256  -2.785  0.00  0.00     0.263 S 
ATOM     12  O2  <0> d          -0.548  -1.299  -3.575  0.00  0.00    -0.200 OA
ATOM     13  O3  <0> d          -0.552   1.051  -2.751  0.00  0.00    -0.200 OA
BRANCH  11  14
ATOM     14  C3  <0> d           0.023  -0.839  -1.123  0.00  0.00     0.137 A 
ATOM     15  C2  <0> d           0.030  -0.037   0.033  0.00  0.00     0.084 A 
ATOM     16  C1  <0> d           0.023   1.469   0.065  0.00  0.00     0.074 C 
ATOM     17  N1  <0> d           0.048  -0.825   1.071  0.00  0.00    -0.132 NA
ATOM     18  O1  <0> d           0.044  -2.162   0.604  0.00  0.00    -0.216 OA
ATOM     19  C4  <0> d           0.032  -2.129  -0.738  0.00  0.00     0.100 A 
ATOM     20  C5  <0> d           0.029  -3.327  -1.652  0.00  0.00     0.081 C 
ENDBRANCH  11  14
ENDBRANCH   9  11
ENDBRANCH   8   9
ENDBRANCH   1   8
BRANCH   4  21
ATOM     21  N4  <0> d           7.119   0.090  -6.179  0.00  0.00    -0.363 N 
ATOM     22  C15 <0> d           7.261  -0.158  -7.622  0.00  0.00     0.155 C 
ATOM     23  C14 <0> d           8.578  -0.897  -7.863  0.00  0.00     0.135 C 
ATOM     24  O4  <0> d           9.643  -0.181  -7.234  0.00  0.00    -0.383 OA
ATOM     25  C16 <0> d           8.845  -0.994  -9.367  0.00  0.00     0.041 C 
ATOM     26  C13 <0> d           9.523  -0.082  -5.813  0.00  0.00     0.188 C 
ATOM     27  C12 <0> d           8.252   0.704  -5.468  0.00  0.00     0.150 C 
ENDBRANCH   4  21
TORSDOF 5
