REMARK  3 active torsions:
REMARK  status: ('A' for Active; 'I' for Inactive)
REMARK    1  A    between atoms: C3_3  and  C5_6 
REMARK    2  A    between atoms: C6_8  and  C7_11 
REMARK    3  A    between atoms: C7_11  and  N3_12 
ROOT
ATOM      1  C5  <0> d           3.728   1.669  -0.025  0.00  0.00     0.213 A 
ATOM      2  N1  <0> d           4.774   0.868  -0.045  0.00  0.00    -0.202 NA
ATOM      3  C6  <0> d           5.897   1.587  -0.051  0.00  0.00     0.184 A 
ATOM      4  N2  <0> d           5.595   2.854  -0.036  0.00  0.00    -0.109 NA
ATOM      5  O1  <0> d           4.178   2.938  -0.024  0.00  0.00    -0.190 OA
ENDROOT
BRANCH   3   6
ATOM      6  C7  <0> d           7.295   1.023  -0.073  0.00  0.00     0.355 C 
BRANCH   6   7
ATOM      7  N3  <0> d           7.732   0.852  -1.465  0.00  0.00     0.099 N 
ATOM      8  C11 <0> d           8.987   0.089  -1.532  0.00  0.00     0.300 C 
ATOM      9  C10 <0> d           9.376  -0.117  -2.998  0.00  0.00     0.262 C 
ATOM     10  N4  <0> d           9.542   1.188  -3.650  0.00  0.00    -0.072 N 
ATOM     11  C9  <0> d           8.274   1.929  -3.595  0.00  0.00     0.262 C 
ATOM     12  H10 <0> d           9.810   1.052  -4.612  0.00  0.00     0.277 HD
ATOM     13  H15 <0> d          10.258   1.714  -3.172  0.00  0.00     0.277 HD
ATOM     14  C8  <0> d           7.876   2.152  -2.135  0.00  0.00     0.300 C 
ENDBRANCH   6   7
ENDBRANCH   3   6
BRANCH   1  15
ATOM     15  C3  <0> d           2.320   1.252  -0.013  0.00  0.00     0.060 A 
ATOM     16  C2  <0> d           1.178   2.035   0.002  0.00  0.00     0.024 A 
ATOM     17  C1  <0> d          -0.016   1.350   0.009  0.00  0.00     0.009 A 
ATOM     18  C4  <0> d           0.002  -0.004   0.002  0.00  0.00     0.050 A 
ATOM     19  S1  <0> d           1.636  -0.394  -0.016  0.00  0.00    -0.098 SA
ENDBRANCH   1  15
TORSDOF 3
