REMARK  3 active torsions:
REMARK  status: ('A' for Active; 'I' for Inactive)
REMARK    1  A    between atoms: O1_2  and  C2_3 
REMARK    2  A    between atoms: C4_5  and  N2_17 
REMARK    3  A    between atoms: C7_8  and  N1_9 
ROOT
ATOM      1  C2  <0> d           0.606  -0.608  -1.056  0.00  0.00     0.096 A 
ATOM      2  C3  <0> d           1.172   0.159  -2.061  0.00  0.00     0.068 A 
ATOM      3  C4  <0> d           1.789  -0.459  -3.141  0.00  0.00     0.028 A 
ATOM      4  C5  <0> d           1.837  -1.845  -3.213  0.00  0.00     0.031 A 
ATOM      5  C6  <0> d           1.272  -2.611  -2.212  0.00  0.00     0.034 A 
ATOM      6  C7  <0> d           0.661  -1.997  -1.129  0.00  0.00     0.064 A 
ENDROOT
BRANCH   6   7
ATOM      7  N1  <0> d           0.094  -2.776  -0.109  0.00  0.00    -0.377 N 
ATOM      8  C11 <0> d           0.909  -3.167   1.043  0.00  0.00     0.138 C 
ATOM      9  C10 <0> d           1.084  -4.684   1.062  0.00  0.00     0.160 C 
ATOM     10  S1  <0> d          -0.557  -5.463   1.109  0.00  0.00     0.147 S 
ATOM     11  C9  <0> d          -1.374  -4.720  -0.334  0.00  0.00     0.160 C 
ATOM     12  O2  <0> d          -0.402  -6.856   0.873  0.00  0.00    -0.228 OA
ATOM     13  O3  <0> d          -1.231  -5.031   2.283  0.00  0.00    -0.228 OA
ATOM     14  C8  <0> d          -1.305  -3.195  -0.210  0.00  0.00     0.138 C 
ENDBRANCH   6   7
BRANCH   1  15
ATOM     15  O1  <0> d           0.002  -0.004   0.002  0.00  0.00    -0.354 OA
ATOM     16  C1  <0> d          -0.017   1.425   0.010  0.00  0.00     0.210 C 
ENDBRANCH   1  15
BRANCH   3  17
ATOM     17  N2  <0> d           2.361   0.315  -4.157  0.00  0.00    -0.399 N 
ATOM     18  H15 <0> d           2.326   1.283  -4.107  0.00  0.00     0.156 HD
ATOM     19  H16 <0> d           2.791  -0.116  -4.912  0.00  0.00     0.156 HD
ENDBRANCH   3  17
TORSDOF 3
