REMARK  6 active torsions:
REMARK  status: ('A' for Active; 'I' for Inactive)
REMARK    1  A    between atoms: C5_5  and  C8_8 
REMARK    2  A    between atoms: C21_22  and  N1_23 
REMARK    3  A    between atoms: N2_24  and  C23_27 
REMARK    4  A    between atoms: C23_27  and  C24_28 
REMARK    5  A    between atoms: C24_28  and  C25_29 
REMARK    6  A    between atoms: C25_29  and  N4_30 
ROOT
ATOM      1  C8  <0> d           0.059  -4.275  -0.021  0.00  0.00     0.095 C 
ATOM      2  C9  <0> d           1.306  -4.762   0.672  0.00  0.00    -0.010 A 
ATOM      3  C10 <0> d           2.518  -4.720  -0.020  0.00  0.00     0.012 A 
ATOM      4  C11 <0> d           3.676  -5.146   0.552  0.00  0.00     0.013 A 
ATOM      5  C12 <0> d           3.662  -5.640   1.868  0.00  0.00    -0.023 A 
ATOM      6  C13 <0> d           4.838  -6.088   2.493  0.00  0.00     0.012 A 
ATOM      7  C14 <0> d           4.784  -6.559   3.769  0.00  0.00     0.001 A 
ATOM      8  C15 <0> d           3.578  -6.602   4.467  0.00  0.00     0.001 A 
ATOM      9  C16 <0> d           2.420  -6.176   3.892  0.00  0.00     0.015 A 
ATOM     10  C17 <0> d           2.437  -5.685   2.576  0.00  0.00     0.009 A 
ATOM     11  C18 <0> d           1.252  -5.236   1.951  0.00  0.00     0.096 A 
ATOM     12  O1  <0> d           0.086  -5.287   2.638  0.00  0.00    -0.290 OA
ATOM     13  C19 <0> d          -1.089  -5.272   1.976  0.00  0.00     0.182 A 
ATOM     14  C20 <0> d          -1.161  -4.792   0.683  0.00  0.00     0.052 A 
ATOM     15  C21 <0> d          -2.397  -4.797   0.043  0.00  0.00     0.113 A 
ATOM     16  N2  <0> d          -3.458  -5.264   0.700  0.00  0.00    -0.327 N 
ATOM     17  C22 <0> d          -3.343  -5.712   1.933  0.00  0.00     0.214 A 
ATOM     18  N3  <0> d          -2.197  -5.721   2.562  0.00  0.00    -0.219 NA
ENDROOT
BRANCH  16  19
ATOM     19  C23 <0> d          -4.767  -5.278   0.043  0.00  0.00     0.133 C 
BRANCH  19  20
ATOM     20  C24 <0> d          -4.904  -6.552  -0.793  0.00  0.00     0.040 C 
BRANCH  20  21
ATOM     21  C25 <0> d          -6.272  -6.567  -1.478  0.00  0.00     0.131 C 
BRANCH  21  22
ATOM     22  N4  <0> d          -6.404  -7.787  -2.279  0.00  0.00    -0.352 N 
ATOM     23  C28 <0> d          -6.899  -8.971  -1.860  0.00  0.00     0.182 A 
ATOM     24  N5  <0> d          -6.858  -9.817  -2.853  0.00  0.00    -0.361 N 
ATOM     25  C27 <0> d          -6.332  -9.212  -3.928  0.00  0.00     0.106 A 
ATOM     26  H27 <0> d          -7.157 -10.739  -2.818  0.00  0.00     0.166 HD
ATOM     27  C26 <0> d          -6.041  -7.941  -3.590  0.00  0.00     0.108 A 
ENDBRANCH  21  22
ENDBRANCH  20  21
ENDBRANCH  19  20
ENDBRANCH  16  19
BRANCH  15  28
ATOM     28  N1  <0> d          -2.522  -4.327  -1.255  0.00  0.00    -0.385 N 
ATOM     29  H15 <0> d          -1.744  -3.989  -1.726  0.00  0.00     0.157 HD
ATOM     30  H26 <0> d          -3.387  -4.335  -1.693  0.00  0.00     0.157 HD
ENDBRANCH  15  28
BRANCH   1  31
ATOM     31  C5  <0> d           0.040  -2.768  -0.013  0.00  0.00    -0.045 A 
ATOM     32  C4  <0> d           0.025  -2.071  -1.206  0.00  0.00     0.009 A 
ATOM     33  C3  <0> d           0.006  -0.689  -1.199  0.00  0.00     0.007 A 
ATOM     34  C2  <0> d           0.002  -0.004   0.002  0.00  0.00    -0.062 A 
ATOM     35  C1  <0> d          -0.018   1.503   0.010  0.00  0.00     0.048 C 
ATOM     36  C7  <0> d           0.023  -0.702   1.195  0.00  0.00     0.007 A 
ATOM     37  C6  <0> d           0.037  -2.084   1.188  0.00  0.00     0.009 A 
ENDBRANCH   1  31
TORSDOF 6
