REMARK  5 active torsions:
REMARK  status: ('A' for Active; 'I' for Inactive)
REMARK    1  A    between atoms: N1_2  and  C2_3 
REMARK       I    between atoms: N1_2  and  C10_15 
REMARK    2  A    between atoms: C2_3  and  C3_4 
REMARK       I    between atoms: C3_4  and  N2_6 
REMARK    3  A    between atoms: N2_6  and  C4_7 
REMARK    4  A    between atoms: C10_15  and  C11_17 
REMARK    5  A    between atoms: C11_17  and  N3_18 
ROOT
ATOM      1  C2  <0> d           0.024  -0.749   1.263  0.00  0.00     0.228 C 
ENDROOT
BRANCH   1   2
ATOM      2  N1  <0> d           0.003  -0.006   0.001  0.00  0.00    -0.346 N 
ATOM      3  C1  <0> d          -0.008   1.458   0.013  0.00  0.00     0.153 C 
ATOM      4  C10 <0> d          -0.008  -0.671  -1.172  0.00  0.00     0.237 C 
ATOM      5  O2  <0> d           0.001  -1.884  -1.182  0.00  0.00    -0.272 OA
BRANCH   4   6
ATOM      6  C11 <0> d          -0.030   0.093  -2.471  0.00  0.00     0.228 C 
BRANCH   6   7
ATOM      7  N3  <0> d          -0.038  -0.850  -3.592  0.00  0.00    -0.343 N 
ATOM      8  C15 <0> d          -1.151  -1.347  -4.157  0.00  0.00     0.220 C 
ATOM      9  C14 <0> d          -0.787  -2.292  -5.281  0.00  0.00     0.104 C 
ATOM     10  O3  <0> d          -2.284  -1.074  -3.819  0.00  0.00    -0.273 OA
ATOM     11  C13 <0> d           0.704  -2.620  -5.030  0.00  0.00     0.029 C 
ATOM     12  C12 <0> d           1.170  -1.378  -4.237  0.00  0.00     0.127 C 
ENDBRANCH   6   7
ENDBRANCH   4   6
ENDBRANCH   1   2
BRANCH   1  13
ATOM     13  C3  <0> d          -1.389  -1.014   1.715  0.00  0.00     0.240 C 
ATOM     14  O1  <0> d          -2.322  -0.622   1.047  0.00  0.00    -0.271 OA
ATOM     15  N2  <0> d          -1.615  -1.688   2.860  0.00  0.00    -0.326 N 
ATOM     16  H6  <0> d          -0.871  -2.060   3.359  0.00  0.00     0.169 HD
BRANCH  15  17
ATOM     17  C4  <0> d          -2.923  -1.851   3.329  0.00  0.00     0.040 A 
ATOM     18  C9  <0> d          -3.968  -2.019   2.430  0.00  0.00     0.072 A 
ATOM     19  C8  <0> d          -5.260  -2.185   2.896  0.00  0.00     0.121 A 
ATOM     20  C7  <0> d          -5.513  -2.173   4.258  0.00  0.00     0.084 A 
ATOM     21  F1  <0> d          -6.277  -2.355   2.022  0.00  0.00    -0.206 F 
ATOM     22  C6  <0> d          -4.473  -1.999   5.155  0.00  0.00     0.121 A 
ATOM     23  C5  <0> d          -3.179  -1.838   4.694  0.00  0.00     0.072 A 
ATOM     24  F2  <0> d          -4.723  -1.987   6.483  0.00  0.00    -0.206 F 
ENDBRANCH  15  17
ENDBRANCH   1  13
TORSDOF 5
