REMARK  7 active torsions:
REMARK  status: ('A' for Active; 'I' for Inactive)
REMARK    1  A    between atoms: C2_2  and  N1_3 
REMARK    2  A    between atoms: N1_3  and  C3_4 
REMARK       I    between atoms: N1_3  and  C5_7 
REMARK    3  A    between atoms: C3_4  and  C4_5 
REMARK    4  A    between atoms: C4_5  and  O1_6 
REMARK    5  A    between atoms: C5_7  and  C6_9 
REMARK       I    between atoms: C6_9  and  N2_11 
REMARK    6  A    between atoms: N2_11  and  C7_12 
REMARK    7  A    between atoms: C10_15  and  C13_19 
REMARK       I    between atoms: C13_19  and  N3_21 
ROOT
ATOM      1  C6  <0> d           2.735  -0.889  -0.215  0.00  0.00     0.314 C 
ATOM      2  O3  <0> d           2.156  -0.388  -1.158  0.00  0.00    -0.262 OA
ATOM      3  N2  <0> d           4.052  -1.161  -0.301  0.00  0.00    -0.319 N 
ATOM      4  H11 <0> d           4.529  -1.497   0.474  0.00  0.00     0.169 HD
ENDROOT
BRANCH   3   5
ATOM      5  C7  <0> d           4.729  -0.959  -1.501  0.00  0.00     0.036 A 
ATOM      6  C12 <0> d           4.386   0.113  -2.319  0.00  0.00     0.054 A 
ATOM      7  C11 <0> d           5.057   0.318  -3.505  0.00  0.00     0.051 A 
ATOM      8  C10 <0> d           6.076  -0.559  -3.891  0.00  0.00     0.053 A 
ATOM      9 Cl1  <0> d           4.635   1.660  -4.522  0.00  0.00    -0.083 Cl
ATOM     10  C9  <0> d           6.413  -1.638  -3.068  0.00  0.00     0.021 A 
ATOM     11  C8  <0> d           5.742  -1.834  -1.883  0.00  0.00     0.030 A 
BRANCH   8  12
ATOM     12  C13 <0> d           6.794  -0.346  -5.162  0.00  0.00     0.254 C 
ATOM     13  O4  <0> d           6.170  -0.198  -6.195  0.00  0.00    -0.267 OA
ATOM     14  N3  <0> d           8.141  -0.315  -5.178  0.00  0.00    -0.357 N 
ATOM     15  C14 <0> d           8.852  -0.004  -6.421  0.00  0.00     0.152 C 
ATOM     16  C15 <0> d           8.895  -0.592  -3.953  0.00  0.00     0.152 C 
ENDBRANCH   8  12
ENDBRANCH   3   5
BRANCH   1  17
ATOM     17  C5  <0> d           1.987  -1.203   1.039  0.00  0.00     0.311 C 
ATOM     18  N1  <0> d           0.651  -1.035   1.087  0.00  0.00    -0.342 N 
ATOM     19  O2  <0> d           2.583  -1.609   2.015  0.00  0.00    -0.262 OA
BRANCH  18  20
ATOM     20  C2  <0> d          -0.083  -0.653  -0.122  0.00  0.00     0.122 C 
ATOM     21  C1  <0> d          -0.052   0.869  -0.278  0.00  0.00     0.026 C 
ENDBRANCH  18  20
BRANCH  18  22
ATOM     22  C3  <0> d          -0.068  -1.236   2.347  0.00  0.00     0.152 C 
BRANCH  22  23
ATOM     23  C4  <0> d          -0.505  -2.698   2.458  0.00  0.00     0.184 C 
BRANCH  23  24
ATOM     24  O1  <0> d           0.650  -3.535   2.545  0.00  0.00    -0.399 OA
ATOM     25  H10 <0> d           0.449  -4.478   2.618  0.00  0.00     0.209 HD
ENDBRANCH  23  24
ENDBRANCH  22  23
ENDBRANCH  18  22
ENDBRANCH   1  17
TORSDOF 7
