REMARK  4 active torsions:
REMARK  status: ('A' for Active; 'I' for Inactive)
REMARK    1  A    between atoms: N1_2  and  C3_4 
REMARK    2  A    between atoms: C5_6  and  C8_10 
REMARK    3  A    between atoms: C8_10  and  N3_11 
REMARK       I    between atoms: N3_11  and  C9_12 
REMARK       I    between atoms: C9_12  and  N4_14 
REMARK    4  A    between atoms: N4_14  and  C10_15 
ROOT
ATOM      1  N3  <0> d          -2.364  -4.799   1.393  0.00  0.00    -0.339 N 
ATOM      2  C9  <0> d          -2.382  -6.125   1.637  0.00  0.00     0.321 C 
ATOM      3  O1  <0> d          -2.402  -6.913   0.712  0.00  0.00    -0.247 OA
ATOM      4  N4  <0> d          -2.378  -6.576   2.908  0.00  0.00    -0.308 N 
ATOM      5  H12 <0> d          -2.348  -4.170   2.131  0.00  0.00     0.164 HD
ATOM      6  H13 <0> d          -2.294  -5.950   3.644  0.00  0.00     0.170 HD
ENDROOT
BRANCH   1   7
ATOM      7  C8  <0> d          -2.368  -4.309   0.013  0.00  0.00     0.163 C 
BRANCH   7   8
ATOM      8  C5  <0> d          -2.345  -2.802   0.015  0.00  0.00    -0.035 A 
ATOM      9  C4  <0> d          -1.146  -2.113   0.006  0.00  0.00     0.057 A 
ATOM     10  C3  <0> d          -1.165  -0.722   0.008  0.00  0.00     0.102 A 
ATOM     11  N2  <0> d          -2.313  -0.064   0.023  0.00  0.00    -0.352 N 
ATOM     12  C7  <0> d          -3.472  -0.695   0.026  0.00  0.00     0.090 A 
ATOM     13  H17 <0> d          -2.303   0.906   0.028  0.00  0.00     0.166 HD
ATOM     14  C6  <0> d          -3.527  -2.074   0.025  0.00  0.00     0.026 A 
BRANCH  10  15
ATOM     15  N1  <0> d           0.033  -0.017  -0.001  0.00  0.00    -0.376 N 
ATOM     16  C1  <0> d           0.021   1.448   0.007  0.00  0.00     0.150 C 
ATOM     17  C2  <0> d           1.308  -0.738  -0.018  0.00  0.00     0.150 C 
ENDBRANCH  10  15
ENDBRANCH   7   8
ENDBRANCH   1   7
BRANCH   4  18
ATOM     18  C10 <0> d          -2.496  -7.947   3.163  0.00  0.00     0.054 A 
ATOM     19  C14 <0> d          -3.186  -8.398   4.280  0.00  0.00     0.147 A 
ATOM     20  N5  <0> d          -3.305  -9.689   4.522  0.00  0.00    -0.247 NA
ATOM     21  C13 <0> d          -2.768 -10.597   3.728  0.00  0.00     0.125 A 
ATOM     22  C12 <0> d          -2.060 -10.224   2.599  0.00  0.00     0.046 A 
ATOM     23 Cl1  <0> d          -2.953 -12.281   4.106  0.00  0.00    -0.062 Cl
ATOM     24  C11 <0> d          -1.917  -8.879   2.304  0.00  0.00     0.034 A 
ENDBRANCH   4  18
TORSDOF 4
