REMARK  6 active torsions:
REMARK  status: ('A' for Active; 'I' for Inactive)
REMARK    1  A    between atoms: C2_2  and  C3_3 
REMARK    2  A    between atoms: C5_5  and  C6_8 
REMARK       I    between atoms: C6_8  and  N2_10 
REMARK    3  A    between atoms: C9_13  and  C12_16 
REMARK    4  A    between atoms: C12_16  and  C20_29 
REMARK    5  A    between atoms: N3_19  and  C15_23 
REMARK    6  A    between atoms: C15_23  and  C16_24 
ROOT
ATOM      1  C12 <0> d           5.969   4.968   2.555  0.00  0.00     0.148 A 
ATOM      2  C13 <0> d           7.460   4.696   2.518  0.00  0.00     0.262 A 
ATOM      3  O3  <0> d           8.248   5.049   1.667  0.00  0.00    -0.270 OA
ATOM      4  N3  <0> d           7.724   3.976   3.630  0.00  0.00    -0.263 N 
ATOM      5  C14 <0> d           6.619   3.762   4.354  0.00  0.00     0.326 A 
ATOM      6  O4  <0> d           6.606   3.141   5.399  0.00  0.00    -0.247 OA
ATOM      7  N4  <0> d           5.525   4.313   3.798  0.00  0.00    -0.320 N 
ATOM      8  H16 <0> d           4.621   4.285   4.147  0.00  0.00     0.166 HD
ENDROOT
BRANCH   1   9
ATOM      9  C9  <0> d           5.277   4.344   1.341  0.00  0.00     0.031 C 
ATOM     10  C8  <0> d           3.768   4.574   1.440  0.00  0.00     0.028 C 
ATOM     11  C7  <0> d           3.082   3.979   0.201  0.00  0.00     0.126 C 
ATOM     12  N2  <0> d           3.470   2.567   0.085  0.00  0.00    -0.347 N 
ATOM     13  C6  <0> d           2.534   1.603  -0.013  0.00  0.00     0.274 C 
ATOM     14  C11 <0> d           4.900   2.225   0.072  0.00  0.00     0.126 C 
ATOM     15  O2  <0> d           1.359   1.903  -0.091  0.00  0.00    -0.266 OA
ATOM     16  C10 <0> d           5.565   2.841   1.308  0.00  0.00     0.028 C 
BRANCH  13  17
ATOM     17  C5  <0> d           2.936   0.175  -0.025  0.00  0.00     0.154 A 
ATOM     18  C4  <0> d           2.075  -0.957   0.001  0.00  0.00     0.074 A 
ATOM     19  C3  <0> d           2.922  -2.011  -0.019  0.00  0.00     0.081 A 
ATOM     20  O1  <0> d           4.163  -1.507  -0.063  0.00  0.00    -0.217 OA
ATOM     21  N1  <0> d           4.157  -0.298  -0.062  0.00  0.00    -0.123 NA
BRANCH  19  22
ATOM     22  C2  <0> d           2.544  -3.470  -0.001  0.00  0.00     0.063 C 
ATOM     23  C1  <0> d           2.372  -3.971  -1.436  0.00  0.00     0.012 C 
ENDBRANCH  19  22
ENDBRANCH  13  17
ENDBRANCH   1   9
BRANCH   1  24
ATOM     24  C20 <0> d           5.702   6.450   2.612  0.00  0.00    -0.003 A 
ATOM     25  C24 <0> d           5.503   7.170   1.449  0.00  0.00     0.126 A 
ATOM     26  N5  <0> d           5.263   8.466   1.491  0.00  0.00    -0.272 NA
ATOM     27  C23 <0> d           5.214   9.125   2.632  0.00  0.00     0.116 A 
ATOM     28  C22 <0> d           5.409   8.473   3.835  0.00  0.00     0.020 A 
ATOM     29  C21 <0> d           5.658   7.109   3.831  0.00  0.00     0.013 A 
ENDBRANCH   1  24
BRANCH   4  30
ATOM     30  C15 <0> d           9.056   3.490   3.998  0.00  0.00     0.176 C 
BRANCH  30  31
ATOM     31  C16 <0> d           9.273   2.121   3.406  0.00  0.00    -0.033 A 
ATOM     32  C19 <0> d           8.932   1.008   4.101  0.00  0.00     0.058 A 
ATOM     33  S1  <0> d           9.387  -0.291   2.965  0.00  0.00    -0.113 SA
ATOM     34  C18 <0> d          10.008   0.736   1.643  0.00  0.00     0.050 A 
ATOM     35  C17 <0> d           9.826   1.981   2.147  0.00  0.00     0.016 A 
ENDBRANCH  30  31
ENDBRANCH   4  30
TORSDOF 6
