REMARK  5 active torsions:
REMARK  status: ('A' for Active; 'I' for Inactive)
REMARK    1  A    between atoms: O1_2  and  C2_3 
REMARK    2  A    between atoms: C10_12  and  C11_13 
REMARK    3  A    between atoms: C16_18  and  O2_19 
REMARK    4  A    between atoms: P1_22  and  C18_25 
REMARK    5  A    between atoms: C23_30  and  O5_31 
ROOT
ATOM      1  C2  <0> d          -1.200  -0.637   0.010  0.00  0.00     0.075 C 
ATOM      2  C3  <0> d          -2.333   0.068   0.019  0.00  0.00     0.018 C 
ATOM      3  C4  <0> d          -3.655  -0.650   0.039  0.00  0.00     0.046 C 
ATOM      4  C5  <0> d          -4.746   0.251   0.601  0.00  0.00     0.272 C 
ATOM      5  N1  <0> d          -4.457   0.629   1.994  0.00  0.00     0.018 N 
ATOM      6  C6  <0> d          -4.387  -0.563   2.841  0.00  0.00     0.238 C 
ATOM      7  C7  <0> d          -3.281  -1.502   2.344  0.00  0.00     0.047 C 
ATOM      8  C8  <0> d          -3.549  -1.902   0.913  0.00  0.00     0.020 C 
ATOM      9  C9  <0> d          -2.378  -2.731   0.442  0.00  0.00    -0.006 C 
ATOM     10  C10 <0> d          -1.266  -2.118   0.003  0.00  0.00     0.007 C 
ATOM     11  C17 <0> d          -4.047  -0.204   4.294  0.00  0.00     0.213 C 
ATOM     12  O3  <0> d          -5.079   0.640   4.835  0.00  0.00    -0.312 OA
ATOM     13  P1  <0> d          -5.519   1.944   3.967  0.00  0.00     0.346 P 
ATOM     14  O4  <0> d          -4.554   3.047   4.174  0.00  0.00    -0.260 OA
ATOM     15  N2  <0> d          -5.497   1.444   2.390  0.00  0.00    -0.172 N 
ATOM     16  H20 <0> d          -6.186   1.715   1.764  0.00  0.00     0.197 HD
ATOM     17  H26 <0> d          -3.589   1.142   2.035  0.00  0.00     0.309 HD
ENDROOT
BRANCH  13  18
ATOM     18  C18 <0> d          -7.190   2.476   4.435  0.00  0.00     0.084 A 
ATOM     19  C23 <0> d          -7.364   3.397   5.457  0.00  0.00     0.083 A 
ATOM     20  C22 <0> d          -8.643   3.806   5.808  0.00  0.00     0.037 A 
ATOM     21  C21 <0> d          -9.739   3.287   5.147  0.00  0.00     0.003 A 
ATOM     22  C20 <0> d          -9.562   2.365   4.132  0.00  0.00     0.001 A 
ATOM     23  C19 <0> d          -8.289   1.959   3.777  0.00  0.00     0.022 A 
BRANCH  19  24
ATOM     24  O5  <0> d          -6.285   3.902   6.110  0.00  0.00    -0.360 OA
ATOM     25  H25 <0> d          -5.926   4.707   5.713  0.00  0.00     0.217 HD
ENDBRANCH  19  24
ENDBRANCH  13  18
BRANCH   1  26
ATOM     26  O1  <0> d           0.002  -0.004   0.002  0.00  0.00    -0.355 OA
ATOM     27  C1  <0> d          -0.017   1.425   0.010  0.00  0.00     0.210 C 
ENDBRANCH   1  26
BRANCH  10  28
ATOM     28  C11 <0> d          -0.112  -2.914  -0.480  0.00  0.00     0.010 A 
ATOM     29  C16 <0> d           1.029  -3.052   0.317  0.00  0.00     0.076 A 
ATOM     30  C15 <0> d           2.100  -3.803  -0.140  0.00  0.00     0.037 A 
ATOM     31  C14 <0> d           2.045  -4.403  -1.383  0.00  0.00     0.003 A 
ATOM     32  C13 <0> d           0.920  -4.263  -2.177  0.00  0.00     0.001 A 
ATOM     33  C12 <0> d          -0.157  -3.523  -1.732  0.00  0.00     0.015 A 
BRANCH  29  34
ATOM     34  O2  <0> d           1.084  -2.457   1.537  0.00  0.00    -0.360 OA
ATOM     35  H17 <0> d           0.754  -3.010   2.259  0.00  0.00     0.217 HD
ENDBRANCH  29  34
ENDBRANCH  10  28
TORSDOF 5
