REMARK  3 active torsions:
REMARK  status: ('A' for Active; 'I' for Inactive)
REMARK       I    between atoms: N1_2  and  C2_3 
REMARK    1  A    between atoms: C2_3  and  C3_5 
REMARK    2  A    between atoms: C3_5  and  C4_6 
REMARK    3  A    between atoms: C4_6  and  C5_7 
ROOT
ATOM      1  C5  <0> d           1.385  -4.196   2.227  0.00  0.00     0.151 A 
ATOM      2  N2  <0> d           0.489  -4.987   2.751  0.00  0.00    -0.119 NA
ATOM      3  N3  <0> d           0.819  -6.215   2.561  0.00  0.00     0.044 NA
ATOM      4  C6  <0> d           1.954  -6.275   1.900  0.00  0.00     0.736 A 
ATOM      5  N4  <0> d           2.340  -4.990   1.665  0.00  0.00    -0.128 N 
ATOM      6  C7  <0> d           3.522  -4.704   0.967  0.00  0.00     0.081 A 
ATOM      7  C8  <0> d           4.085  -3.476   0.632  0.00  0.00     0.039 A 
ATOM      8  C9  <0> d           5.248  -3.437  -0.054  0.00  0.00     0.053 A 
ATOM      9  S1  <0> d           5.650  -5.052  -0.287  0.00  0.00    -0.094 SA
ATOM     10  C10 <0> d           4.267  -5.801   0.530  0.00  0.00     0.101 A 
ATOM     11  C11 <0> d           3.857  -7.118   0.775  0.00  0.00     0.281 A 
ATOM     12  O2  <0> d           4.530  -8.054   0.381  0.00  0.00    -0.266 OA
ATOM     13  N5  <0> d           2.714  -7.343   1.460  0.00  0.00    -0.147 N 
ATOM     14  C12 <0> d           2.272  -8.715   1.721  0.00  0.00     0.179 C 
ENDROOT
BRANCH   1  15
ATOM     15  C4  <0> d           1.365  -2.689   2.235  0.00  0.00     0.090 C 
BRANCH  15  16
ATOM     16  C3  <0> d           0.625  -2.182   0.995  0.00  0.00     0.110 C 
BRANCH  16  17
ATOM     17  C2  <0> d           0.604  -0.675   1.004  0.00  0.00     0.217 C 
ATOM     18  N1  <0> d           0.002  -0.004   0.002  0.00  0.00    -0.365 N 
ATOM     19  C1  <0> d          -0.018   1.461   0.010  0.00  0.00     0.149 C 
ATOM     20  H4  <0> d          -0.418  -0.491  -0.724  0.00  0.00     0.161 HD
ATOM     21  O1  <0> d           1.130  -0.067   1.911  0.00  0.00    -0.274 OA
ENDBRANCH  16  17
ENDBRANCH  15  16
ENDBRANCH   1  15
TORSDOF 3
