REMARK  5 active torsions:
REMARK  status: ('A' for Active; 'I' for Inactive)
REMARK    1  A    between atoms: C3_3  and  C5_6 
REMARK    2  A    between atoms: C5_6  and  C6_7 
REMARK    3  A    between atoms: C5_6  and  N1_12 
REMARK    4  A    between atoms: N1_12  and  S2_13 
REMARK    5  A    between atoms: S2_13  and  N2_16 
ROOT
ATOM      1  N1  <0> d           4.569   1.019  -0.924  0.00  0.00    -0.293 N 
ATOM      2  H14 <0> d           4.966   0.196  -0.601  0.00  0.00     0.174 HD
ENDROOT
BRANCH   1   3
ATOM      3  C5  <0> d           3.761   1.845  -0.024  0.00  0.00     0.138 C 
BRANCH   3   4
ATOM      4  C3  <0> d           2.343   1.336  -0.013  0.00  0.00     0.006 A 
ATOM      5  C2  <0> d           1.183   2.038   0.002  0.00  0.00     0.017 A 
ATOM      6  C1  <0> d          -0.016   1.351   0.009  0.00  0.00     0.008 A 
ATOM      7  C4  <0> d           0.002  -0.004   0.002  0.00  0.00     0.050 A 
ATOM      8  S1  <0> d           1.754  -0.349  -0.017  0.00  0.00    -0.104 SA
ENDBRANCH   3   4
BRANCH   3   9
ATOM      9  C6  <0> d           4.339   1.775   1.390  0.00  0.00     0.014 C 
ATOM     10  C10 <0> d           3.499   2.639   2.347  0.00  0.00     0.007 C 
ATOM     11  C9  <0> d           2.942   1.687   3.426  0.00  0.00     0.000 C 
ATOM     12  C8  <0> d           3.927   0.492   3.424  0.00  0.00     0.000 C 
ATOM     13  C7  <0> d           4.263   0.328   1.921  0.00  0.00     0.007 C 
ENDBRANCH   3   9
ENDBRANCH   1   3
BRANCH   1  14
ATOM     14  S2  <0> d           4.806   1.492  -2.494  0.00  0.00     0.317 S 
ATOM     15  O1  <0> d           5.641   0.511  -3.092  0.00  0.00    -0.183 OA
ATOM     16  O2  <0> d           3.526   1.823  -3.015  0.00  0.00    -0.183 OA
BRANCH  14  17
ATOM     17  N2  <0> d           5.679   2.898  -2.455  0.00  0.00    -0.291 N 
ATOM     18  C14 <0> d           7.150   2.876  -2.477  0.00  0.00     0.164 C 
ATOM     19  C13 <0> d           7.670   3.750  -1.337  0.00  0.00     0.253 C 
ATOM     20  N3  <0> d           7.082   5.092  -1.441  0.00  0.00    -0.072 N 
ATOM     21  C12 <0> d           5.628   5.017  -1.251  0.00  0.00     0.253 C 
ATOM     22  H19 <0> d           7.282   5.476  -2.352  0.00  0.00     0.277 HD
ATOM     23  H24 <0> d           7.482   5.689  -0.732  0.00  0.00     0.277 HD
ATOM     24  C11 <0> d           5.007   4.205  -2.393  0.00  0.00     0.164 C 
ENDBRANCH  14  17
ENDBRANCH   1  14
TORSDOF 5
