REMARK  6 active torsions:
REMARK  status: ('A' for Active; 'I' for Inactive)
REMARK    1  A    between atoms: C2_2  and  O1_3 
REMARK    2  A    between atoms: O1_3  and  C3_4 
REMARK    3  A    between atoms: C3_4  and  C4_6 
REMARK    4  A    between atoms: C5_7  and  N2_17 
REMARK       I    between atoms: N2_17  and  C12_18 
REMARK    5  A    between atoms: C12_18  and  C13_20 
REMARK    6  A    between atoms: C13_20  and  N3_32 
ROOT
ATOM      1  N2  <0> d          -3.794   1.341   3.308  0.00  0.00    -0.323 N 
ATOM      2  C12 <0> d          -2.888   1.968   2.530  0.00  0.00     0.248 C 
ATOM      3  O3  <0> d          -2.420   3.030   2.881  0.00  0.00    -0.271 OA
ATOM      4  H11 <0> d          -4.239   0.542   2.986  0.00  0.00     0.169 HD
ENDROOT
BRANCH   1   5
ATOM      5  C5  <0> d          -4.089   1.841   4.572  0.00  0.00     0.080 A 
ATOM      6  C4  <0> d          -5.312   2.308   5.009  0.00  0.00     0.137 A 
ATOM      7  N1  <0> d          -5.193   2.715   6.329  0.00  0.00    -0.349 N 
ATOM      8  C11 <0> d          -3.900   2.528   6.762  0.00  0.00     0.045 A 
ATOM      9  H1  <0> d          -5.913   3.080   6.867  0.00  0.00     0.166 HD
ATOM     10  C6  <0> d          -3.162   1.980   5.697  0.00  0.00     0.023 A 
ATOM     11  C10 <0> d          -3.266   2.772   7.978  0.00  0.00     0.033 A 
ATOM     12  C7  <0> d          -1.804   1.688   5.866  0.00  0.00     0.058 A 
ATOM     13  C8  <0> d          -1.199   1.938   7.077  0.00  0.00     0.117 A 
ATOM     14  C9  <0> d          -1.930   2.479   8.129  0.00  0.00     0.044 A 
ATOM     15  F1  <0> d           0.112   1.656   7.244  0.00  0.00    -0.206 F 
BRANCH   6  16
ATOM     16  C3  <0> d          -6.499   2.361   4.234  0.00  0.00     0.312 C 
ATOM     17  O2  <0> d          -6.459   2.115   3.043  0.00  0.00    -0.258 OA
BRANCH  16  18
ATOM     18  O1  <0> d          -7.672   2.683   4.817  0.00  0.00    -0.317 OA
BRANCH  18  19
ATOM     19  C2  <0> d          -8.827   2.717   3.977  0.00  0.00     0.175 C 
ATOM     20  C1  <0> d         -10.053   3.099   4.809  0.00  0.00     0.034 C 
ENDBRANCH  18  19
ENDBRANCH  16  18
ENDBRANCH   6  16
ENDBRANCH   1   5
BRANCH   2  21
ATOM     21  C13 <0> d          -2.458   1.348   1.226  0.00  0.00     0.338 C 
BRANCH  21  22
ATOM     22  N3  <0> d          -1.427   2.246   0.602  0.00  0.00    -0.058 N 
ATOM     23  C14 <0> d          -2.005   3.525   0.190  0.00  0.00     0.245 C 
ATOM     24  C15 <0> d          -1.360   3.859  -1.176  0.00  0.00    -0.017 C 
ATOM     25  C20 <0> d          -2.333   3.461  -2.285  0.00  0.00     0.019 C 
ATOM     26  C16 <0> d          -0.159   2.878  -1.264  0.00  0.00     0.044 C 
ATOM     27  C23 <0> d          -0.922   5.328  -1.270  0.00  0.00     0.017 C 
ATOM     28  C19 <0> d          -2.700   1.990  -2.298  0.00  0.00    -0.045 C 
ATOM     29  C18 <0> d          -1.779   1.028  -1.581  0.00  0.00     0.042 C 
ATOM     30  C21 <0> d          -4.135   1.823  -1.764  0.00  0.00     0.015 C 
ATOM     31  C22 <0> d          -2.746   1.551  -3.785  0.00  0.00     0.015 C 
ATOM     32  C17 <0> d          -0.799   1.632  -0.589  0.00  0.00     0.190 C 
ATOM     33  H31 <0> d          -0.698   2.424   1.302  0.00  0.00     0.281 HD
ENDBRANCH  21  22
ENDBRANCH   2  21
TORSDOF 6
