REMARK  4 active torsions:
REMARK  status: ('A' for Active; 'I' for Inactive)
REMARK    1  A    between atoms: C2_2  and  C4_4 
REMARK    2  A    between atoms: C4_4  and  N1_5 
REMARK    3  A    between atoms: C7_8  and  N2_11 
REMARK       I    between atoms: N2_11  and  C10_12 
REMARK    4  A    between atoms: C10_12  and  C11_14 
ROOT
ATOM      1  N2  <0> d          -2.076  -5.956  -1.402  0.00  0.00    -0.356 N 
ATOM      2  C10 <0> d          -3.139  -6.693  -1.781  0.00  0.00     0.223 C 
ATOM      3  O1  <0> d          -4.173  -6.146  -2.100  0.00  0.00    -0.273 OA
ATOM      4  H19 <0> d          -1.248  -6.394  -1.146  0.00  0.00     0.162 HD
ENDROOT
BRANCH   1   5
ATOM      5  C7  <0> d          -2.170  -4.494  -1.376  0.00  0.00     0.087 C 
ATOM      6  C6  <0> d          -0.772  -3.888  -1.534  0.00  0.00     0.053 C 
ATOM      7  C5  <0> d          -0.868  -2.365  -1.427  0.00  0.00     0.237 C 
ATOM      8  N1  <0> d          -1.416  -1.997  -0.116  0.00  0.00    -0.071 N 
ATOM      9  C9  <0> d          -2.784  -2.514   0.015  0.00  0.00     0.237 C 
ATOM     10  H28 <0> d          -0.838  -2.391   0.611  0.00  0.00     0.279 HD
ATOM     11  C8  <0> d          -2.762  -4.043  -0.038  0.00  0.00     0.053 C 
BRANCH   8  12
ATOM     12  C4  <0> d          -1.433  -0.534   0.013  0.00  0.00     0.238 C 
BRANCH  12  13
ATOM     13  C2  <0> d           0.002  -0.004   0.002  0.00  0.00     0.003 C 
ATOM     14  C1  <0> d          -0.019   1.526   0.010  0.00  0.00     0.011 C 
ATOM     15  C3  <0> d           0.742  -0.511   1.242  0.00  0.00     0.011 C 
ENDBRANCH  12  13
ENDBRANCH   8  12
ENDBRANCH   1   5
BRANCH   2  16
ATOM     16  C11 <0> d          -3.042  -8.197  -1.808  0.00  0.00     0.096 C 
ATOM     17  C15 <0> d          -1.936  -8.623  -2.774  0.00  0.00     0.136 C 
ATOM     18  N3  <0> d          -1.972 -10.064  -2.987  0.00  0.00    -0.360 N 
ATOM     19  C14 <0> d          -3.030 -10.832  -2.727  0.00  0.00     0.217 C 
ATOM     20  H25 <0> d          -1.176 -10.491  -3.340  0.00  0.00     0.162 HD
ATOM     21  C13 <0> d          -4.308 -10.311  -2.135  0.00  0.00     0.103 C 
ATOM     22  O2  <0> d          -2.958 -12.015  -2.983  0.00  0.00    -0.274 OA
ATOM     23  C12 <0> d          -4.371  -8.789  -2.290  0.00  0.00     0.025 C 
ENDBRANCH   2  16
TORSDOF 4
