REMARK  7 active torsions:
REMARK  status: ('A' for Active; 'I' for Inactive)
REMARK    1  A    between atoms: C2_2  and  C3_3 
REMARK    2  A    between atoms: C3_3  and  C4_4 
REMARK    3  A    between atoms: C4_4  and  N1_6 
REMARK       I    between atoms: N1_6  and  C6_7 
REMARK    4  A    between atoms: C6_7  and  C7_9 
REMARK    5  A    between atoms: N2_13  and  C12_15 
REMARK    6  A    between atoms: C12_15  and  C13_16 
REMARK    7  A    between atoms: C13_16  and  C14_18 
ROOT
ATOM      1  C7  <0> d           0.272  -4.269  -2.627  0.00  0.00     0.104 C 
ATOM      2  C8  <0> d           1.380  -3.300  -3.050  0.00  0.00     0.017 C 
ATOM      3  C9  <0> d           2.054  -3.834  -4.317  0.00  0.00     0.029 C 
ATOM      4  C10 <0> d           2.587  -5.243  -4.050  0.00  0.00     0.235 C 
ATOM      5  N2  <0> d           1.477  -6.127  -3.675  0.00  0.00    -0.063 N 
ATOM      6  C11 <0> d           0.870  -5.662  -2.422  0.00  0.00     0.249 C 
ATOM      7  H32 <0> d           0.782  -6.121  -4.406  0.00  0.00     0.280 HD
ENDROOT
BRANCH   5   8
ATOM      8  C12 <0> d           1.982  -7.495  -3.495  0.00  0.00     0.318 C 
BRANCH   8   9
ATOM      9  C13 <0> d           2.485  -8.022  -4.814  0.00  0.00     0.194 C 
ATOM     10  O2  <0> d           2.429  -7.326  -5.808  0.00  0.00    -0.290 OA
BRANCH   9  11
ATOM     11  C14 <0> d           3.022  -9.325  -4.895  0.00  0.00     0.123 A 
ATOM     12  C17 <0> d           3.224 -10.137  -3.688  0.00  0.00     0.269 A 
ATOM     13  N4  <0> d           3.736 -11.378  -3.823  0.00  0.00    -0.270 N 
ATOM     14  O4  <0> d           2.932  -9.702  -2.590  0.00  0.00    -0.267 OA
ATOM     15  C16 <0> d           4.064 -11.860  -5.032  0.00  0.00     0.332 A 
ATOM     16  C18 <0> d           3.941 -12.209  -2.634  0.00  0.00     0.164 C 
ATOM     17  N3  <0> d           3.900 -11.149  -6.159  0.00  0.00    -0.289 N 
ATOM     18  O3  <0> d           4.527 -12.981  -5.110  0.00  0.00    -0.246 OA
ATOM     19  C15 <0> d           3.385  -9.885  -6.132  0.00  0.00     0.124 A 
ATOM     20  C19 <0> d           4.282 -11.741  -7.444  0.00  0.00     0.163 C 
ATOM     21  N5  <0> d           3.224  -9.178  -7.284  0.00  0.00    -0.384 N 
ATOM     22  H30 <0> d           2.931  -8.255  -7.249  0.00  0.00     0.157 HD
ATOM     23  H31 <0> d           3.404  -9.599  -8.139  0.00  0.00     0.157 HD
ENDBRANCH   9  11
ENDBRANCH   8   9
ENDBRANCH   5   8
BRANCH   1  24
ATOM     24  C6  <0> d          -0.347  -3.793  -1.338  0.00  0.00     0.223 C 
ATOM     25  N1  <0> d          -0.937  -2.582  -1.280  0.00  0.00    -0.356 N 
ATOM     26  H13 <0> d          -0.962  -2.017  -2.068  0.00  0.00     0.162 HD
ATOM     27  O1  <0> d          -0.315  -4.499  -0.352  0.00  0.00    -0.273 OA
BRANCH  25  28
ATOM     28  C4  <0> d          -1.539  -2.119  -0.027  0.00  0.00     0.080 C 
ATOM     29  C5  <0> d          -2.967  -2.657   0.082  0.00  0.00     0.032 C 
BRANCH  28  30
ATOM     30  C3  <0> d          -1.567  -0.590  -0.010  0.00  0.00     0.024 C 
BRANCH  30  31
ATOM     31  C2  <0> d          -0.134  -0.053   0.007  0.00  0.00    -0.003 C 
ATOM     32  C1  <0> d          -0.163   1.476   0.025  0.00  0.00     0.005 C 
ENDBRANCH  30  31
ENDBRANCH  28  30
ENDBRANCH  25  28
ENDBRANCH   1  24
TORSDOF 7
