REMARK  3 active torsions:
REMARK  status: ('A' for Active; 'I' for Inactive)
REMARK    1  A    between atoms: C9_9  and  C10_11 
REMARK       I    between atoms: C10_11  and  N1_13 
REMARK    2  A    between atoms: N1_13  and  N2_14 
REMARK    3  A    between atoms: C11_15  and  C13_17 
ROOT
ATOM      1  C10 <0> d           1.989  -5.334   2.440  0.00  0.00     0.252 C 
ATOM      2  O1  <0> d           2.942  -5.234   1.697  0.00  0.00    -0.270 OA
ATOM      3  N1  <0> d           1.865  -6.415   3.235  0.00  0.00    -0.246 N 
ATOM      4  H14 <0> d           1.102  -6.495   3.829  0.00  0.00     0.192 HD
ENDROOT
BRANCH   1   5
ATOM      5  C9  <0> d           0.944  -4.249   2.475  0.00  0.00     0.149 C 
ATOM      6  C8  <0> d           1.550  -2.865   2.140  0.00  0.00     0.060 C 
ATOM      7  C6  <0> d           0.597  -2.028   1.324  0.00  0.00    -0.065 C 
ATOM      8  C5  <0> d          -0.366  -2.662   0.665  0.00  0.00    -0.019 C 
ATOM      9  C7  <0> d           0.742  -0.510   1.240  0.00  0.00     0.039 C 
ATOM     10  C4  <0> d          -1.399  -2.047  -0.237  0.00  0.00     0.046 C 
ATOM     11  S1  <0> d          -0.227  -4.389   1.060  0.00  0.00    -0.119 SA
ATOM     12  C3  <0> d          -1.435  -0.534   0.013  0.00  0.00     0.009 C 
ATOM     13  C2  <0> d           0.002  -0.004   0.002  0.00  0.00    -0.014 C 
ATOM     14  C1  <0> d          -0.019   1.526   0.010  0.00  0.00     0.010 C 
ENDBRANCH   1   5
BRANCH   3  15
ATOM     15  N2  <0> d           2.836  -7.424   3.202  0.00  0.00    -0.175 NA
ATOM     16  C11 <0> d           2.716  -8.470   3.971  0.00  0.00     0.075 C 
ATOM     17  C12 <0> d           1.532  -8.594   4.894  0.00  0.00     0.074 C 
BRANCH  16  18
ATOM     18  C13 <0> d           3.697  -9.489   3.938  0.00  0.00     0.063 A 
ATOM     19  C16 <0> d           4.944  -9.527   3.075  0.00  0.00     0.090 A 
ATOM     20  C15 <0> d           5.592 -10.839   3.475  0.00  0.00    -0.001 A 
ATOM     21  C14 <0> d           4.779 -11.369   4.389  0.00  0.00     0.113 A 
ATOM     22  N3  <0> d           3.710 -10.591   4.640  0.00  0.00    -0.263 NA
ENDBRANCH  16  18
ENDBRANCH   3  15
TORSDOF 3
