REMARK  5 active torsions:
REMARK  status: ('A' for Active; 'I' for Inactive)
REMARK    1  A    between atoms: C2_2  and  C3_3 
REMARK    2  A    between atoms: C7_9  and  C8_10 
REMARK    3  A    between atoms: C7_9  and  N2_32 
REMARK    4  A    between atoms: C17_20  and  C18_21 
REMARK    5  A    between atoms: C17_20  and  N3_34 
ROOT
ATOM      1  C8  <0> d           7.305   0.646  -4.789  0.00  0.00    -0.032 A 
ATOM      2  C9  <0> d           7.040   0.429  -6.129  0.00  0.00     0.011 A 
ATOM      3  C10 <0> d           5.931  -0.303  -6.509  0.00  0.00     0.038 A 
ATOM      4  C11 <0> d           5.084  -0.820  -5.538  0.00  0.00     0.076 A 
ATOM      5  C12 <0> d           5.363  -0.615  -4.201  0.00  0.00     0.002 A 
ATOM      6  C13 <0> d           6.466   0.122  -3.821  0.00  0.00     0.020 A 
ATOM      7  C14 <0> d           4.447  -1.212  -3.150  0.00  0.00     0.276 C 
ATOM      8  C15 <0> d           2.264  -1.085  -4.221  0.00  0.00     0.262 C 
ATOM      9  C16 <0> d           2.725  -0.827  -5.639  0.00  0.00     0.203 C 
ATOM     10  O2  <0> d           3.962  -1.500  -5.902  0.00  0.00    -0.349 OA
ATOM     11  N3  <0> d           3.157  -0.485  -3.207  0.00  0.00    -0.061 N 
ATOM     12  H33 <0> d           3.341   0.492  -3.465  0.00  0.00     0.280 HD
ENDROOT
BRANCH   1  13
ATOM     13  C7  <0> d           8.510   1.455  -4.382  0.00  0.00     0.274 C 
BRANCH  13  14
ATOM     14  N2  <0> d           8.131   2.885  -4.306  0.00  0.00    -0.053 N 
ATOM     15  C3  <0> d           9.264   3.681  -3.801  0.00  0.00     0.279 C 
ATOM     16  C4  <0> d           8.817   5.096  -3.564  0.00  0.00     0.248 C 
ATOM     17  O1  <0> d           9.659   5.964  -3.470  0.00  0.00    -0.271 OA
ATOM     18  N1  <0> d           7.529   5.439  -3.453  0.00  0.00    -0.358 N 
ATOM     19  C5  <0> d           6.438   4.478  -3.586  0.00  0.00     0.150 C 
ATOM     20  H7  <0> d           7.310   6.367  -3.275  0.00  0.00     0.162 HD
ATOM     21  C6  <0> d           6.969   3.054  -3.410  0.00  0.00     0.256 C 
ATOM     22  H32 <0> d           7.881   3.215  -5.246  0.00  0.00     0.281 HD
BRANCH  15  23
ATOM     23  C2  <0> d          10.384   3.671  -4.844  0.00  0.00     0.038 C 
ATOM     24  C1  <0> d           9.849   4.211  -6.171  0.00  0.00     0.007 C 
ENDBRANCH  15  23
ENDBRANCH  13  14
ENDBRANCH   1  13
BRANCH  11  25
ATOM     25  C17 <0> d           2.504  -0.514  -1.888  0.00  0.00     0.274 C 
BRANCH  25  26
ATOM     26  C18 <0> d           1.308   0.401  -1.923  0.00  0.00    -0.030 A 
ATOM     27  C23 <0> d           1.453   1.739  -1.606  0.00  0.00     0.048 A 
ATOM     28  C22 <0> d           0.353   2.584  -1.638  0.00  0.00     0.102 A 
ATOM     29  C21 <0> d          -0.893   2.082  -1.992  0.00  0.00     0.102 A 
ATOM     30  O3  <0> d           0.510   3.897  -1.317  0.00  0.00    -0.346 OA
ATOM     31  C20 <0> d          -1.032   0.739  -2.307  0.00  0.00     0.040 A 
ATOM     32  O4  <0> d          -1.984   2.896  -2.038  0.00  0.00    -0.346 OA
ATOM     33  C19 <0> d           0.067  -0.098  -2.273  0.00  0.00     0.012 A 
ATOM     34  C25 <0> d          -1.881   4.148  -1.352  0.00  0.00     0.202 C 
ATOM     35  C24 <0> d          -0.535   4.788  -1.721  0.00  0.00     0.202 C 
ENDBRANCH  25  26
ENDBRANCH  11  25
TORSDOF 5
