REMARK  3 active torsions:
REMARK  status: ('A' for Active; 'I' for Inactive)
REMARK    1  A    between atoms: C4_5  and  C10_14 
REMARK    2  A    between atoms: C10_14  and  C11_15 
REMARK    3  A    between atoms: C10_14  and  N3_20 
ROOT
ATOM      1  C1  <0> d          -0.018   1.461   0.010  0.00  0.00     0.161 C 
ATOM      2  N1  <0> d           0.002  -0.004   0.002  0.00  0.00    -0.302 N 
ATOM      3  C2  <0> d          -1.117  -0.835   0.003  0.00  0.00     0.066 A 
ATOM      4  C3  <0> d          -2.482  -0.592   0.011  0.00  0.00     0.043 A 
ATOM      5  C4  <0> d          -3.368  -1.651   0.010  0.00  0.00    -0.002 A 
ATOM      6  C5  <0> d          -2.899  -2.954   0.001  0.00  0.00     0.022 A 
ATOM      7  C6  <0> d          -1.541  -3.206  -0.007  0.00  0.00     0.052 A 
ATOM      8  C7  <0> d          -0.643  -2.148  -0.007  0.00  0.00     0.066 A 
ATOM      9  N2  <0> d           0.748  -2.075  -0.013  0.00  0.00    -0.302 N 
ATOM     10  C8  <0> d           1.104  -0.777  -0.013  0.00  0.00     0.329 A 
ATOM     11  O1  <0> d           2.249  -0.365  -0.023  0.00  0.00    -0.246 OA
ATOM     12  C9  <0> d           1.666  -3.217  -0.023  0.00  0.00     0.161 C 
ATOM     13 Br1  <0> d          -4.124  -4.396   0.001  0.00  0.00    -0.050 Br
ENDROOT
BRANCH   5  14
ATOM     14  C10 <0> d          -4.852  -1.387   0.019  0.00  0.00     0.274 C 
BRANCH  14  15
ATOM     15  C11 <0> d          -5.397  -1.535  -1.378  0.00  0.00     0.087 A 
ATOM     16  O2  <0> d          -5.324  -0.612  -2.351  0.00  0.00    -0.325 OA
ATOM     17  C14 <0> d          -5.910  -1.086  -3.463  0.00  0.00     0.142 A 
ATOM     18  C13 <0> d          -6.375  -2.322  -3.204  0.00  0.00     0.027 A 
ATOM     19  C12 <0> d          -6.044  -2.611  -1.861  0.00  0.00     0.037 A 
ENDBRANCH  14  15
BRANCH  14  20
ATOM     20  N3  <0> d          -5.104  -0.023   0.501  0.00  0.00    -0.065 N 
ATOM     21  H13 <0> d          -6.097   0.154   0.507  0.00  0.00     0.275 HD
ATOM     22  H14 <0> d          -4.739   0.076   1.437  0.00  0.00     0.275 HD
ATOM     23  H15 <0> d          -4.648   0.639  -0.109  0.00  0.00     0.275 HD
ENDBRANCH  14  20
ENDBRANCH   5  14
TORSDOF 3
