REMARK  3 active torsions:
REMARK  status: ('A' for Active; 'I' for Inactive)
REMARK    1  A    between atoms: C3_3  and  S1_8 
REMARK    2  A    between atoms: C5_6  and  N2_7 
REMARK    3  A    between atoms: S1_8  and  C6_9 
ROOT
ATOM      1  C1  <0> d          -0.017   1.390   0.010  0.00  0.00     0.033 A 
ATOM      2  C2  <0> d           1.190   2.065   0.002  0.00  0.00     0.041 A 
ATOM      3  C3  <0> d           2.375   1.336  -0.013  0.00  0.00     0.093 A 
ATOM      4  N1  <0> d           2.355   0.012  -0.021  0.00  0.00    -0.252 NA
ATOM      5  C4  <0> d           1.222  -0.664  -0.014  0.00  0.00     0.146 A 
ATOM      6  C5  <0> d           0.002  -0.004   0.002  0.00  0.00     0.043 A 
ENDROOT
BRANCH   3   7
ATOM      7  S1  <0> d           3.919   2.184  -0.024  0.00  0.00    -0.105 SA
BRANCH   7   8
ATOM      8  C6  <0> d           5.151   0.853  -0.043  0.00  0.00     0.068 C 
ATOM      9  C9  <0> d           6.567   1.461   0.097  0.00  0.00     0.155 C 
ATOM     10  S2  <0> d           7.607   0.293  -0.870  0.00  0.00     0.145 S 
ATOM     11  C8  <0> d           6.294  -0.840  -1.493  0.00  0.00     0.141 C 
ATOM     12  O1  <0> d           8.451  -0.423   0.021  0.00  0.00    -0.228 OA
ATOM     13  O2  <0> d           8.179   0.986  -1.970  0.00  0.00    -0.228 OA
ATOM     14  C7  <0> d           5.043   0.077  -1.366  0.00  0.00     0.031 C 
ENDBRANCH   7   8
ENDBRANCH   3   7
BRANCH   6  15
ATOM     15  N2  <0> d          -1.196  -0.729   0.010  0.00  0.00    -0.398 N 
ATOM     16  H5  <0> d          -2.046  -0.262   0.021  0.00  0.00     0.156 HD
ATOM     17  H6  <0> d          -1.176  -1.699   0.005  0.00  0.00     0.156 HD
ENDBRANCH   6  15
TORSDOF 3
