REMARK  5 active torsions:
REMARK  status: ('A' for Active; 'I' for Inactive)
REMARK    1  A    between atoms: C2_2  and  C3_3 
REMARK    2  A    between atoms: C2_2  and  O3_13 
REMARK       I    between atoms: C3_3  and  N1_5 
REMARK    3  A    between atoms: N1_5  and  C4_6 
REMARK    4  A    between atoms: O3_13  and  C9_14 
REMARK    5  A    between atoms: C9_14  and  C10_15 
ROOT
ATOM      1  C3  <0> d          -1.412  -0.526   0.013  0.00  0.00     0.247 C 
ATOM      2  O1  <0> d          -1.818  -1.157   0.965  0.00  0.00    -0.271 OA
ATOM      3  N1  <0> d          -2.225  -0.290  -1.036  0.00  0.00    -0.346 N 
ATOM      4  H7  <0> d          -1.900   0.215  -1.798  0.00  0.00     0.163 HD
ENDROOT
BRANCH   1   5
ATOM      5  C2  <0> d           0.002  -0.004   0.002  0.00  0.00     0.209 C 
ATOM      6  C1  <0> d          -0.019   1.526   0.010  0.00  0.00     0.049 C 
BRANCH   5   7
ATOM      7  O3  <0> d           0.693  -0.477   1.160  0.00  0.00    -0.374 OA
BRANCH   7   8
ATOM      8  C9  <0> d           2.099  -0.651   0.967  0.00  0.00     0.200 C 
BRANCH   8   9
ATOM      9  C10 <0> d           2.732  -1.158   2.264  0.00  0.00     0.145 C 
ATOM     10  O4  <0> d           2.228  -2.462   2.563  0.00  0.00    -0.384 OA
ATOM     11  C14 <0> d           2.739  -3.021   3.775  0.00  0.00     0.168 C 
ATOM     12  C13 <0> d           4.259  -3.163   3.669  0.00  0.00     0.026 C 
ATOM     13  C12 <0> d           4.874  -1.791   3.378  0.00  0.00     0.005 C 
ATOM     14  C11 <0> d           4.252  -1.226   2.097  0.00  0.00     0.034 C 
ENDBRANCH   8   9
ENDBRANCH   7   8
ENDBRANCH   5   7
ENDBRANCH   1   5
BRANCH   3  15
ATOM     15  C4  <0> d          -3.599  -0.798  -1.026  0.00  0.00     0.176 C 
ATOM     16  C8  <0> d          -4.484   0.175  -0.300  0.00  0.00     0.240 C 
ATOM     17  N2  <0> d          -5.702   0.518  -0.719  0.00  0.00    -0.359 N 
ATOM     18  O2  <0> d          -4.069   0.674   0.724  0.00  0.00    -0.271 OA
ATOM     19  C7  <0> d          -6.307   0.035  -1.954  0.00  0.00     0.122 C 
ATOM     20  H14 <0> d          -6.217   1.128  -0.169  0.00  0.00     0.162 HD
ATOM     21  C6  <0> d          -5.599  -1.232  -2.436  0.00  0.00     0.022 C 
ATOM     22  C5  <0> d          -4.088  -0.970  -2.466  0.00  0.00     0.036 C 
ENDBRANCH   3  15
TORSDOF 5
