REMARK  7 active torsions:
REMARK  status: ('A' for Active; 'I' for Inactive)
REMARK    1  A    between atoms: N1_4  and  C7_9 
REMARK    2  A    between atoms: C7_9  and  C8_10 
REMARK    3  A    between atoms: C8_10  and  C9_11 
REMARK    4  A    between atoms: C8_10  and  O2_23 
REMARK    5  A    between atoms: C9_11  and  N2_12 
REMARK    6  A    between atoms: N2_12  and  C11_14 
REMARK    7  A    between atoms: N3_17  and  C16_20 
ROOT
ATOM      1  C9  <0> d           2.081  -4.558  -3.756  0.00  0.00     0.305 C 
ENDROOT
BRANCH   1   2
ATOM      2  C8  <0> d           3.352  -4.196  -2.985  0.00  0.00     0.174 C 
BRANCH   2   3
ATOM      3  C7  <0> d           3.504  -2.675  -2.936  0.00  0.00     0.305 C 
BRANCH   3   4
ATOM      4  N1  <0> d           4.783  -2.330  -2.301  0.00  0.00     0.096 N 
ATOM      5  C3  <0> d           4.861  -0.889  -2.021  0.00  0.00     0.303 C 
ATOM      6  C2  <0> d           6.181  -0.584  -1.307  0.00  0.00     0.146 C 
ATOM      7  C1  <0> d           6.305   0.924  -1.085  0.00  0.00     0.041 C 
ATOM      8  O1  <0> d           7.270  -1.039  -2.115  0.00  0.00    -0.378 OA
ATOM      9  C5  <0> d           7.226  -2.438  -2.407  0.00  0.00     0.146 C 
ATOM     10  C4  <0> d           5.917  -2.762  -3.131  0.00  0.00     0.303 C 
ATOM     11  C6  <0> d           8.410  -2.812  -3.300  0.00  0.00     0.041 C 
ENDBRANCH   3   4
ENDBRANCH   2   3
BRANCH   2  12
ATOM     12  O2  <0> d           3.263  -4.709  -1.654  0.00  0.00    -0.392 OA
ATOM     13  H37 <0> d           2.515  -4.364  -1.148  0.00  0.00     0.210 HD
ENDBRANCH   2  12
ENDBRANCH   1   2
BRANCH   1  14
ATOM     14  N2  <0> d           1.957  -6.019  -3.839  0.00  0.00     0.091 N 
ATOM     15  C10 <0> d           0.596  -6.411  -4.228  0.00  0.00     0.310 C 
BRANCH  14  16
ATOM     16  C11 <0> d           2.951  -6.580  -4.764  0.00  0.00     0.225 C 
ATOM     17  C15 <0> d           2.876  -8.109  -4.731  0.00  0.00     0.063 C 
ATOM     18  C14 <0> d           3.857  -8.684  -5.755  0.00  0.00     0.237 C 
ATOM     19  N3  <0> d           3.507  -8.204  -7.097  0.00  0.00    -0.067 N 
ATOM     20  C13 <0> d           3.646  -6.745  -7.156  0.00  0.00     0.237 C 
ATOM     21  H38 <0> d           2.553  -8.459  -7.306  0.00  0.00     0.280 HD
ATOM     22  C12 <0> d           2.657  -6.094  -6.187  0.00  0.00     0.063 C 
BRANCH  19  23
ATOM     23  C16 <0> d           4.403  -8.821  -8.085  0.00  0.00     0.180 C 
ATOM     24  C17 <0> d           4.259 -10.343  -8.024  0.00  0.00     0.039 C 
ATOM     25  C18 <0> d           4.033  -8.329  -9.486  0.00  0.00     0.039 C 
ENDBRANCH  19  23
ENDBRANCH  14  16
ENDBRANCH   1  14
TORSDOF 7
