REMARK  6 active torsions:
REMARK  status: ('A' for Active; 'I' for Inactive)
REMARK    1  A    between atoms: C4_4  and  C7_7 
REMARK    2  A    between atoms: C7_7  and  C8_8 
REMARK    3  A    between atoms: C7_7  and  N3_21 
REMARK       I    between atoms: C8_8  and  N1_10 
REMARK    4  A    between atoms: N1_10  and  C9_11 
REMARK    5  A    between atoms: C13_15  and  N2_17 
REMARK    6  A    between atoms: C18_25  and  O4_27 
ROOT
ATOM      1  C7  <0> d           3.723  -0.665  -0.088  0.00  0.00     0.312 C 
ENDROOT
BRANCH   1   2
ATOM      2  C4  <0> d           2.405   0.035  -0.300  0.00  0.00    -0.018 A 
ATOM      3  C3  <0> d           2.342   1.416  -0.268  0.00  0.00     0.010 A 
ATOM      4  C2  <0> d           1.134   2.058  -0.463  0.00  0.00     0.001 A 
ATOM      5  C1  <0> d          -0.012   1.319  -0.691  0.00  0.00     0.000 A 
ATOM      6  C6  <0> d           0.050  -0.062  -0.724  0.00  0.00     0.001 A 
ATOM      7  C5  <0> d           1.259  -0.704  -0.527  0.00  0.00     0.010 A 
ENDBRANCH   1   2
BRANCH   1   8
ATOM      8  C8  <0> d           3.806  -1.159   1.333  0.00  0.00     0.258 C 
ATOM      9  O1  <0> d           3.702  -2.345   1.569  0.00  0.00    -0.270 OA
ATOM     10  N1  <0> d           3.995  -0.285   2.341  0.00  0.00    -0.325 N 
ATOM     11  H8  <0> d           4.002   0.668   2.162  0.00  0.00     0.169 HD
BRANCH  10  12
ATOM     12  C9  <0> d           4.183  -0.753   3.647  0.00  0.00     0.037 A 
ATOM     13  C14 <0> d           3.508  -1.884   4.084  0.00  0.00     0.067 A 
ATOM     14  C13 <0> d           3.699  -2.347   5.372  0.00  0.00     0.126 A 
ATOM     15  C12 <0> d           4.553  -1.677   6.229  0.00  0.00     0.067 A 
ATOM     16  C11 <0> d           5.224  -0.545   5.798  0.00  0.00     0.029 A 
ATOM     17 Cl1  <0> d           4.787  -2.257   7.848  0.00  0.00    -0.082 Cl
ATOM     18  C10 <0> d           5.041  -0.082   4.510  0.00  0.00     0.031 A 
BRANCH  14  19
ATOM     19  N2  <0> d           2.984  -3.557   5.837  0.00  0.00    -0.114 N 
ATOM     20  O2  <0> d           2.237  -4.142   5.088  0.00  0.00    -0.532 OA
ATOM     21  O3  <0> d           3.147  -3.959   6.965  0.00  0.00    -0.532 OA
ENDBRANCH  14  19
ENDBRANCH  10  12
ENDBRANCH   1   8
BRANCH   1  22
ATOM     22  N3  <0> d           3.826  -1.804  -1.010  0.00  0.00    -0.052 N 
ATOM     23  C19 <0> d           3.620  -1.337  -2.386  0.00  0.00     0.267 C 
ATOM     24  C18 <0> d           3.646  -2.531  -3.343  0.00  0.00     0.144 C 
ATOM     25  C17 <0> d           5.003  -3.232  -3.238  0.00  0.00     0.035 C 
ATOM     26  C16 <0> d           5.241  -3.649  -1.784  0.00  0.00     0.030 C 
ATOM     27  C15 <0> d           5.156  -2.413  -0.885  0.00  0.00     0.236 C 
ATOM     28  H21 <0> d           3.122  -2.487  -0.778  0.00  0.00     0.281 HD
BRANCH  24  29
ATOM     29  O4  <0> d           3.447  -2.075  -4.682  0.00  0.00    -0.394 OA
ATOM     30  H20 <0> d           3.455  -2.781  -5.343  0.00  0.00     0.210 HD
ENDBRANCH  24  29
ENDBRANCH   1  22
TORSDOF 6
