REMARK  3 active torsions:
REMARK  status: ('A' for Active; 'I' for Inactive)
REMARK    1  A    between atoms: N1_6  and  C7_8 
REMARK    2  A    between atoms: C7_8  and  C8_9 
REMARK    3  A    between atoms: C9_11  and  N4_22 
ROOT
ATOM      1  C8  <0> d          -0.551   1.567   3.766  0.00  0.00     0.155 A 
ATOM      2  N2  <0> d          -1.644   1.088   4.333  0.00  0.00    -0.214 NA
ATOM      3  C9  <0> d          -2.288   1.741   5.287  0.00  0.00     0.137 A 
ATOM      4  C10 <0> d          -1.790   3.002   5.719  0.00  0.00     0.053 A 
ATOM      5  C11 <0> d          -2.328   3.896   6.746  0.00  0.00    -0.028 A 
ATOM      6  C12 <0> d          -1.659   5.046   6.967  0.00  0.00    -0.008 A 
ATOM      7  S1  <0> d          -0.292   5.010   5.838  0.00  0.00    -0.073 SA
ATOM      8  C13 <0> d          -0.622   3.446   5.069  0.00  0.00     0.114 A 
ATOM      9  N3  <0> d          -0.040   2.728   4.129  0.00  0.00    -0.224 NA
ATOM     10  C14 <0> d          -2.002   6.120   7.953  0.00  0.00     0.047 C 
ATOM     11  C15 <0> d          -3.445   5.900   8.428  0.00  0.00     0.005 C 
ATOM     12  C16 <0> d          -3.618   4.425   8.803  0.00  0.00     0.005 C 
ATOM     13  C17 <0> d          -3.587   3.562   7.541  0.00  0.00     0.041 C 
ENDROOT
BRANCH   1  14
ATOM     14  C7  <0> d           0.129   0.768   2.685  0.00  0.00     0.315 C 
BRANCH  14  15
ATOM     15  N1  <0> d          -0.424   1.143   1.377  0.00  0.00    -0.064 N 
ATOM     16  C5  <0> d           0.370   0.565   0.284  0.00  0.00     0.239 C 
ATOM     17  C4  <0> d          -0.316   0.853  -1.053  0.00  0.00     0.008 C 
ATOM     18  C3  <0> d          -0.448   2.367  -1.238  0.00  0.00     0.011 C 
ATOM     19  C18 <0> d           0.523   0.270  -2.193  0.00  0.00     0.011 C 
ATOM     20  C2  <0> d          -1.237   2.950  -0.063  0.00  0.00     0.008 C 
ATOM     21  C1  <0> d          -2.647   2.358  -0.050  0.00  0.00     0.011 C 
ATOM     22  C6  <0> d          -0.524   2.602   1.246  0.00  0.00     0.239 C 
ATOM     23  H27 <0> d          -1.441   0.729   1.307  0.00  0.00     0.280 HD
ENDBRANCH  14  15
ENDBRANCH   1  14
BRANCH   3  24
ATOM     24  N4  <0> d          -3.429   1.205   5.856  0.00  0.00    -0.383 N 
ATOM     25  H22 <0> d          -3.959   1.754   6.648  0.00  0.00     0.157 HD
ATOM     26  H23 <0> d          -3.807   0.230   5.516  0.00  0.00     0.157 HD
ENDBRANCH   3  24
TORSDOF 3
