REMARK  3 active torsions:
REMARK  status: ('A' for Active; 'I' for Inactive)
REMARK    1  A    between atoms: C4_4  and  N4_18 
REMARK    2  A    between atoms: C7_7  and  S1_11 
REMARK    3  A    between atoms: S1_11  and  C10_12 
ROOT
ATOM      1  C1  <0> d          -0.003   1.378   0.372  0.00  0.00     0.020 A 
ATOM      2  C2  <0> d           1.164   2.079   0.249  0.00  0.00     0.017 A 
ATOM      3  C3  <0> d           2.361   1.356   0.110  0.00  0.00     0.020 A 
ATOM      4  C4  <0> d           3.602   2.013  -0.021  0.00  0.00     0.038 A 
ATOM      5  C5  <0> d           4.756   1.270  -0.155  0.00  0.00     0.031 A 
ATOM      6  C6  <0> d           4.709  -0.120  -0.161  0.00  0.00     0.024 A 
ATOM      7  C7  <0> d           3.512  -0.789  -0.035  0.00  0.00     0.038 A 
ATOM      8  C8  <0> d           2.312  -0.060   0.104  0.00  0.00     0.086 A 
ATOM      9  N1  <0> d           1.138  -0.685   0.230  0.00  0.00    -0.259 NA
ATOM     10  C9  <0> d           0.018  -0.014   0.359  0.00  0.00     0.117 A 
ENDROOT
BRANCH   7  11
ATOM     11  S1  <0> d           3.478  -2.551  -0.046  0.00  0.00    -0.048 SA
BRANCH  11  12
ATOM     12  C10 <0> d           2.870  -2.955  -1.650  0.00  0.00     0.192 A 
ATOM     13  N3  <0> d           2.627  -4.223  -1.949  0.00  0.00    -0.235 NA
ATOM     14  C13 <0> d           2.165  -4.560  -3.142  0.00  0.00     0.121 A 
ATOM     15  C12 <0> d           1.947  -3.569  -4.087  0.00  0.00     0.038 A 
ATOM     16  C11 <0> d           2.217  -2.254  -3.743  0.00  0.00     0.121 A 
ATOM     17  N2  <0> d           2.672  -1.984  -2.530  0.00  0.00    -0.235 NA
ENDBRANCH  11  12
ENDBRANCH   7  11
BRANCH   4  18
ATOM     18  N4  <0> d           3.662   3.408  -0.017  0.00  0.00    -0.398 N 
ATOM     19  H9  <0> d           2.848   3.928   0.077  0.00  0.00     0.156 HD
ATOM     20  H10 <0> d           4.517   3.857  -0.108  0.00  0.00     0.156 HD
ENDBRANCH   4  18
TORSDOF 3
