REMARK  6 active torsions:
REMARK  status: ('A' for Active; 'I' for Inactive)
REMARK    1  A    between atoms: C4_5  and  C5_7 
REMARK    2  A    between atoms: C9_11  and  N2_13 
REMARK       I    between atoms: N2_13  and  C11_14 
REMARK    3  A    between atoms: C11_14  and  C12_16 
REMARK       I    between atoms: C12_16  and  N3_18 
REMARK    4  A    between atoms: N3_18  and  C13_19 
REMARK    5  A    between atoms: C13_19  and  C14_20 
REMARK       I    between atoms: C14_20  and  N4_22 
REMARK    6  A    between atoms: N4_22  and  C15_23 
ROOT
ATOM      1  C15 <0> d           2.219 -10.993  -5.901  0.00  0.00     0.216 C 
ATOM      2  C16 <0> d           2.142 -12.325  -6.523  0.00  0.00    -0.098 C 
ATOM      3  C17 <0> d           2.080 -13.388  -7.019  0.00  0.00     0.014 C 
ENDROOT
BRANCH   1   4
ATOM      4  N4  <0> d           1.616 -11.042  -4.567  0.00  0.00    -0.349 N 
ATOM      5  C14 <0> d           1.573  -9.930  -3.806  0.00  0.00     0.236 C 
ATOM      6  O4  <0> d           2.034  -8.890  -4.226  0.00  0.00    -0.272 OA
ATOM      7  H12 <0> d           1.247 -11.874  -4.231  0.00  0.00     0.163 HD
BRANCH   5   8
ATOM      8  C13 <0> d           0.952  -9.980  -2.434  0.00  0.00     0.225 C 
BRANCH   8   9
ATOM      9  N3  <0> d           1.029  -8.654  -1.815  0.00  0.00    -0.344 N 
ATOM     10  C12 <0> d           0.533  -8.459  -0.577  0.00  0.00     0.310 C 
ATOM     11  O3  <0> d           0.022  -9.381   0.025  0.00  0.00    -0.262 OA
ATOM     12  H9  <0> d           1.437  -7.917  -2.296  0.00  0.00     0.163 HD
BRANCH  10  13
ATOM     13  C11 <0> d           0.611  -7.107   0.054  0.00  0.00     0.313 C 
ATOM     14  N2  <0> d           0.115  -6.912   1.292  0.00  0.00    -0.319 N 
ATOM     15  H8  <0> d          -0.224  -7.663   1.803  0.00  0.00     0.169 HD
ATOM     16  O2  <0> d           1.122  -6.185  -0.548  0.00  0.00    -0.262 OA
BRANCH  14  17
ATOM     17  C9  <0> d           0.088  -5.626   1.838  0.00  0.00     0.036 A 
ATOM     18  C8  <0> d           0.259  -5.449   3.207  0.00  0.00     0.029 A 
ATOM     19  C7  <0> d           0.234  -4.179   3.752  0.00  0.00     0.003 A 
ATOM     20  C6  <0> d           0.038  -3.079   2.942  0.00  0.00     0.016 A 
ATOM     21  C5  <0> d          -0.135  -3.246   1.567  0.00  0.00     0.017 A 
ATOM     22  C10 <0> d          -0.115  -4.527   1.017  0.00  0.00     0.045 A 
BRANCH  21  23
ATOM     23  C4  <0> d          -0.345  -2.069   0.697  0.00  0.00     0.158 A 
ATOM     24  O1  <0> d          -0.528  -2.099  -0.634  0.00  0.00    -0.296 OA
ATOM     25  C3  <0> d          -0.682  -0.828  -1.055  0.00  0.00     0.073 A 
ATOM     26  C2  <0> d          -0.591  -0.035   0.027  0.00  0.00     0.036 A 
ATOM     27  C18 <0> d          -0.915  -0.380  -2.475  0.00  0.00     0.079 C 
ATOM     28  C1  <0> d          -0.702   1.468   0.038  0.00  0.00     0.071 C 
ATOM     29  N1  <0> d          -0.377  -0.819   1.095  0.00  0.00    -0.338 N 
ATOM     30  H19 <0> d          -0.268  -0.512   2.009  0.00  0.00     0.168 HD
ENDBRANCH  21  23
ENDBRANCH  14  17
ENDBRANCH  10  13
ENDBRANCH   8   9
ENDBRANCH   5   8
ENDBRANCH   1   4
TORSDOF 6
