REMARK  3 active torsions:
REMARK  status: ('A' for Active; 'I' for Inactive)
REMARK    1  A    between atoms: C7_10  and  C8_12 
REMARK    2  A    between atoms: C8_12  and  N3_13 
REMARK    3  A    between atoms: C10_16  and  C13_21 
ROOT
ATOM      1  N3  <0> d           3.191   1.351  -1.272  0.00  0.00    -0.262 N 
ATOM      2  C9  <0> d           4.037   2.384  -1.451  0.00  0.00     0.263 A 
ATOM      3  O2  <0> d           4.354   3.220  -0.633  0.00  0.00    -0.270 OA
ATOM      4  C10 <0> d           4.511   2.283  -2.887  0.00  0.00     0.161 A 
ATOM      5  N4  <0> d           3.811   1.092  -3.399  0.00  0.00    -0.319 N 
ATOM      6  C11 <0> d           3.069   0.615  -2.383  0.00  0.00     0.326 A 
ATOM      7  O3  <0> d           2.364  -0.372  -2.466  0.00  0.00    -0.247 OA
ATOM      8  C12 <0> d           6.026   2.080  -2.941  0.00  0.00     0.057 C 
ATOM      9  H8  <0> d           3.962   0.770  -4.440  0.00  0.00     0.166 HD
ENDROOT
BRANCH   1  10
ATOM     10  C8  <0> d           2.494   1.065  -0.016  0.00  0.00     0.196 C 
BRANCH  10  11
ATOM     11  C7  <0> d           1.170   1.784   0.001  0.00  0.00     0.061 A 
ATOM     12  C6  <0> d          -0.013   1.076   0.008  0.00  0.00     0.104 A 
ATOM     13  C5  <0> d          -1.229   1.760   0.017  0.00  0.00     0.256 A 
ATOM     14  N1  <0> d          -1.242   3.126   0.031  0.00  0.00    -0.261 N 
ATOM     15  O1  <0> d          -2.279   1.138   0.019  0.00  0.00    -0.268 OA
ATOM     16  C2  <0> d          -2.352   3.936   0.045  0.00  0.00     0.025 A 
ATOM     17  C4  <0> d          -0.023   3.749   0.022  0.00  0.00     0.180 A 
ATOM     18  C1  <0> d          -3.724   3.314   0.054  0.00  0.00     0.069 C 
ATOM     19  C3  <0> d          -2.234   5.264   0.050  0.00  0.00     0.078 A 
ATOM     20  S1  <0> d          -0.461   5.474   0.035  0.00  0.00    -0.061 SA
ATOM     21  N2  <0> d           1.122   3.114   0.008  0.00  0.00    -0.227 NA
ENDBRANCH  10  11
ENDBRANCH   1  10
BRANCH   4  22
ATOM     22  C13 <0> d           4.110   3.509  -3.666  0.00  0.00     0.090 A 
ATOM     23  O4  <0> d           3.961   4.745  -3.162  0.00  0.00    -0.324 OA
ATOM     24  C16 <0> d           3.598   5.588  -4.143  0.00  0.00     0.142 A 
ATOM     25  C15 <0> d           3.511   4.892  -5.291  0.00  0.00     0.027 A 
ATOM     26  C14 <0> d           3.846   3.553  -4.984  0.00  0.00     0.038 A 
ENDBRANCH   4  22
TORSDOF 3
