REMARK  7 active torsions:
REMARK  status: ('A' for Active; 'I' for Inactive)
REMARK    1  A    between atoms: O1_2  and  C2_3 
REMARK    2  A    between atoms: C5_6  and  C8_9 
REMARK    3  A    between atoms: C10_12  and  C11_14 
REMARK    4  A    between atoms: N2_16  and  C15_20 
REMARK    5  A    between atoms: C15_20  and  C16_21 
REMARK    6  A    between atoms: C16_21  and  C17_22 
REMARK    7  A    between atoms: C17_22  and  N3_23 
ROOT
ATOM      1  C11 <0> d          -1.864   2.335  -0.649  0.00  0.00     0.098 A 
ATOM      2  C12 <0> d          -1.811   2.300   0.741  0.00  0.00     0.216 A 
ATOM      3  N2  <0> d          -0.742   1.580   1.184  0.00  0.00    -0.019 N 
ATOM      4  C13 <0> d          -0.013   1.086   0.008  0.00  0.00     0.327 A 
ATOM      5  C14 <0> d          -0.787   1.608  -1.183  0.00  0.00     0.192 A 
ATOM      6  O2  <0> d          -0.531   1.434  -2.359  0.00  0.00    -0.290 OA
ATOM      7  N4  <0> d          -2.715   2.912   1.559  0.00  0.00    -0.379 N 
ATOM      8  H25 <0> d          -2.607   2.839   2.651  0.00  0.00     0.157 HD
ATOM      9  H26 <0> d          -3.553   3.478   1.126  0.00  0.00     0.157 HD
ATOM     10  H27 <0> d          -0.841   1.655   2.277  0.00  0.00     0.289 HD
ENDROOT
BRANCH   1  11
ATOM     11  C10 <0> d          -2.895   3.031  -1.442  0.00  0.00     0.116 A 
ATOM     12  S1  <0> d          -4.302   3.981  -0.882  0.00  0.00    -0.079 SA
ATOM     13  C9  <0> d          -4.938   4.409  -2.498  0.00  0.00     0.084 A 
ATOM     14  C8  <0> d          -4.023   3.791  -3.304  0.00  0.00     0.075 A 
ATOM     15  N1  <0> d          -3.021   3.122  -2.757  0.00  0.00    -0.239 NA
BRANCH  14  16
ATOM     16  C5  <0> d          -4.149   3.875  -4.780  0.00  0.00    -0.007 A 
ATOM     17  C4  <0> d          -3.214   3.243  -5.598  0.00  0.00     0.016 A 
ATOM     18  C3  <0> d          -3.335   3.322  -6.970  0.00  0.00     0.037 A 
ATOM     19  C2  <0> d          -4.386   4.031  -7.536  0.00  0.00     0.068 A 
ATOM     20  C7  <0> d          -5.319   4.661  -6.724  0.00  0.00     0.037 A 
ATOM     21  C6  <0> d          -5.207   4.581  -5.351  0.00  0.00     0.016 A 
BRANCH  19  22
ATOM     22  O1  <0> d          -4.502   4.107  -8.888  0.00  0.00    -0.356 OA
ATOM     23  C1  <0> d          -5.607   4.852  -9.403  0.00  0.00     0.210 C 
ENDBRANCH  19  22
ENDBRANCH  14  16
ENDBRANCH   1  11
BRANCH   3  24
ATOM     24  C15 <0> d          -0.383   1.340   2.584  0.00  0.00     0.245 C 
BRANCH  24  25
ATOM     25  C16 <0> d           0.549   2.452   3.069  0.00  0.00     0.058 C 
BRANCH  25  26
ATOM     26  C17 <0> d           0.924   2.202   4.531  0.00  0.00     0.274 C 
BRANCH  26  27
ATOM     27  N3  <0> d           1.819   3.269   4.997  0.00  0.00     0.092 N 
ATOM     28  C21 <0> d           2.012   3.197   6.453  0.00  0.00     0.298 C 
ATOM     29  C20 <0> d           2.900   4.360   6.902  0.00  0.00     0.198 C 
ATOM     30  O3  <0> d           4.139   4.311   6.189  0.00  0.00    -0.388 OA
ATOM     31  C19 <0> d           3.989   4.379   4.769  0.00  0.00     0.198 C 
ATOM     32  C18 <0> d           3.111   3.216   4.297  0.00  0.00     0.298 C 
ENDBRANCH  26  27
ENDBRANCH  25  26
ENDBRANCH  24  25
ENDBRANCH   3  24
TORSDOF 7
