REMARK  10 active torsions:
REMARK  status: ('A' for Active; 'I' for Inactive)
REMARK    1  A    between atoms: C2_2  and  O1_3 
REMARK    2  A    between atoms: O1_3  and  C3_4 
REMARK    3  A    between atoms: C7_8  and  C9_11 
REMARK    4  A    between atoms: C8_9  and  O2_10 
REMARK    5  A    between atoms: C9_11  and  N2_39 
REMARK    6  A    between atoms: C12_14  and  C15_17 
REMARK    7  A    between atoms: C12_14  and  O6_35 
REMARK    8  A    between atoms: C22_24  and  C23_26 
REMARK       I    between atoms: C23_26  and  N1_28 
REMARK    9  A    between atoms: N1_28  and  C24_29 
REMARK   10  A    between atoms: C24_29  and  C25_30 
ROOT
ATOM      1  C10 <0> d           2.512   3.690  -1.942  0.00  0.00     0.238 C 
ATOM      2  C11 <0> d           2.530   4.120  -3.410  0.00  0.00     0.071 C 
ATOM      3  C12 <0> d           2.381   5.641  -3.494  0.00  0.00     0.088 C 
ATOM      4  C13 <0> d           1.081   6.058  -2.800  0.00  0.00     0.071 C 
ATOM      5  C14 <0> d           1.105   5.573  -1.349  0.00  0.00     0.238 C 
ATOM      6  N2  <0> d           1.226   4.099  -1.338  0.00  0.00    -0.067 N 
ATOM      7  H35 <0> d           0.457   3.698  -1.888  0.00  0.00     0.280 HD
ENDROOT
BRANCH   3   8
ATOM      8  C15 <0> d           2.338   6.064  -4.940  0.00  0.00    -0.023 A 
ATOM      9  C20 <0> d           3.498   6.376  -5.591  0.00  0.00     0.024 A 
ATOM     10  C19 <0> d           3.456   6.768  -6.931  0.00  0.00     0.001 A 
ATOM     11  C18 <0> d           2.224   6.841  -7.607  0.00  0.00     0.086 A 
ATOM     12  C21 <0> d           4.469   7.162  -7.910  0.00  0.00     0.057 A 
ATOM     13  C17 <0> d           1.057   6.518  -6.924  0.00  0.00     0.039 A 
ATOM     14  O3  <0> d           2.474   7.239  -8.869  0.00  0.00    -0.304 OA
ATOM     15  C16 <0> d           1.120   6.128  -5.604  0.00  0.00     0.013 A 
ATOM     16  C22 <0> d           3.796   7.432  -9.059  0.00  0.00     0.144 A 
BRANCH  16  17
ATOM     17  C23 <0> d           4.416   7.867 -10.318  0.00  0.00     0.275 C 
ATOM     18  O4  <0> d           5.622   8.011 -10.386  0.00  0.00    -0.265 OA
ATOM     19  N1  <0> d           3.647   8.107 -11.399  0.00  0.00    -0.353 N 
ATOM     20  H25 <0> d           2.686   7.993 -11.346  0.00  0.00     0.162 HD
BRANCH  19  21
ATOM     21  C24 <0> d           4.264   8.541 -12.655  0.00  0.00     0.155 C 
BRANCH  21  22
ATOM     22  C25 <0> d           3.179   8.742 -13.714  0.00  0.00     0.139 C 
ATOM     23  O5  <0> d           2.509   7.496 -13.970  0.00  0.00    -0.384 OA
ATOM     24  C28 <0> d           2.155   7.488 -15.370  0.00  0.00     0.168 C 
ATOM     25  C27 <0> d           3.393   8.115 -16.060  0.00  0.00     0.029 C 
ATOM     26  C26 <0> d           3.818   9.199 -15.040  0.00  0.00     0.035 C 
ENDBRANCH  21  22
ENDBRANCH  19  21
ENDBRANCH  16  17
ENDBRANCH   3   8
BRANCH   3  27
ATOM     27  O6  <0> d           3.490   6.266  -2.846  0.00  0.00    -0.385 OA
ATOM     28  H34 <0> d           4.348   6.046  -3.234  0.00  0.00     0.211 HD
ENDBRANCH   3  27
BRANCH   6  29
ATOM     29  C9  <0> d           1.136   3.596   0.048  0.00  0.00     0.276 C 
BRANCH  29  30
ATOM     30  C7  <0> d           0.901   2.108   0.008  0.00  0.00     0.004 A 
ATOM     31  C6  <0> d           1.924   1.237   0.335  0.00  0.00     0.012 A 
ATOM     32  C5  <0> d           1.711  -0.128   0.299  0.00  0.00     0.003 A 
ATOM     33  C4  <0> d           0.474  -0.629  -0.063  0.00  0.00     0.039 A 
ATOM     34  C3  <0> d          -0.555   0.238  -0.391  0.00  0.00     0.102 A 
ATOM     35  C8  <0> d          -0.341   1.613  -0.355  0.00  0.00     0.106 A 
BRANCH  34  36
ATOM     36  O1  <0> d          -1.772  -0.253  -0.748  0.00  0.00    -0.349 OA
BRANCH  36  37
ATOM     37  C2  <0> d          -1.919  -1.674  -0.763  0.00  0.00     0.171 C 
ATOM     38  C1  <0> d          -3.345  -2.035  -1.185  0.00  0.00     0.034 C 
ENDBRANCH  36  37
ENDBRANCH  34  36
BRANCH  35  39
ATOM     39  O2  <0> d          -1.348   2.468  -0.677  0.00  0.00    -0.357 OA
ATOM     40  H10 <0> d          -1.932   2.684   0.063  0.00  0.00     0.217 HD
ENDBRANCH  35  39
ENDBRANCH  29  30
ENDBRANCH   6  29
TORSDOF 10
