REMARK  6 active torsions:
REMARK  status: ('A' for Active; 'I' for Inactive)
REMARK    1  A    between atoms: C2_2  and  C3_3 
REMARK    2  A    between atoms: C2_2  and  N4_21 
REMARK    3  A    between atoms: C3_3  and  C4_4 
REMARK    4  A    between atoms: C3_3  and  S2_10 
REMARK    5  A    between atoms: S2_10  and  C8_11 
REMARK    6  A    between atoms: N3_17  and  C10_18 
ROOT
ATOM      1  C3  <0> d           0.854  -0.524   1.162  0.00  0.00     0.125 C 
ENDROOT
BRANCH   1   2
ATOM      2  C2  <0> d          -0.049   0.115   0.104  0.00  0.00     0.198 C 
ATOM      3  C1  <0> d          -0.225   1.602   0.416  0.00  0.00     0.041 C 
BRANCH   2   4
ATOM      4  N4  <0> d          -1.360  -0.546   0.116  0.00  0.00    -0.074 N 
ATOM      5  H16 <0> d          -1.956  -0.125  -0.581  0.00  0.00     0.274 HD
ATOM      6  H17 <0> d          -1.244  -1.528  -0.089  0.00  0.00     0.274 HD
ATOM      7  H18 <0> d          -1.782  -0.441   1.027  0.00  0.00     0.274 HD
ENDBRANCH   2   4
ENDBRANCH   1   2
BRANCH   1   8
ATOM      8  C4  <0> d           0.973  -2.002   0.894  0.00  0.00     0.000 A 
ATOM      9  S1  <0> d           1.604  -2.835  -0.553  0.00  0.00    -0.081 SA
ATOM     10  C7  <0> d           1.369  -4.516   0.000  0.00  0.00     0.075 A 
ATOM     11  C6  <0> d           0.825  -4.333   1.230  0.00  0.00     0.032 A 
ATOM     12 Cl1  <0> d           1.734  -6.000  -0.823  0.00  0.00    -0.076 Cl
ATOM     13  C5  <0> d           0.622  -3.044   1.687  0.00  0.00     0.018 A 
ENDBRANCH   1   8
BRANCH   1  14
ATOM     14  S2  <0> d           2.499   0.237   1.092  0.00  0.00    -0.078 SA
BRANCH  14  15
ATOM     15  C8  <0> d           3.339  -0.435   2.488  0.00  0.00     0.193 A 
ATOM     16  N3  <0> d           4.665  -0.237   2.799  0.00  0.00    -0.272 N 
ATOM     17  C9  <0> d           4.939  -0.906   3.937  0.00  0.00     0.345 A 
ATOM     18  N2  <0> d           3.804  -1.521   4.330  0.00  0.00    -0.226 N 
ATOM     19  O1  <0> d           6.016  -0.950   4.504  0.00  0.00    -0.245 OA
ATOM     20  N1  <0> d           2.809  -1.205   3.394  0.00  0.00    -0.145 NA
ATOM     21  H3  <0> d           3.697  -2.080   5.115  0.00  0.00     0.194 HD
BRANCH  16  22
ATOM     22  C10 <0> d           5.617   0.566   2.026  0.00  0.00     0.088 C 
ATOM     23  C11 <0> d           6.160   1.696   2.903  0.00  0.00     0.032 C 
ATOM     24  C12 <0> d           6.774  -0.321   1.562  0.00  0.00     0.032 C 
ENDBRANCH  16  22
ENDBRANCH  14  15
ENDBRANCH   1  14
TORSDOF 6
