REMARK  3 active torsions:
REMARK  status: ('A' for Active; 'I' for Inactive)
REMARK    1  A    between atoms: O1_2  and  C2_3 
REMARK    2  A    between atoms: C7_8  and  C8_9 
REMARK    3  A    between atoms: C18_20  and  C19_22 
ROOT
ATOM      1  C8  <0> d          -0.111  -2.844  -0.127  0.00  0.00     0.284 C 
ATOM      2  C9  <0> d           0.854  -2.938   1.057  0.00  0.00     0.149 A 
ATOM      3  C10 <0> d           2.062  -3.724   0.561  0.00  0.00    -0.040 A 
ATOM      4  C11 <0> d           3.126  -2.976   0.816  0.00  0.00    -0.005 A 
ATOM      5  C12 <0> d           4.566  -3.228   0.647  0.00  0.00     0.014 A 
ATOM      6  C13 <0> d           5.399  -2.214   1.004  0.00  0.00     0.001 A 
ATOM      7  C14 <0> d           4.948  -0.990   1.507  0.00  0.00     0.002 A 
ATOM      8  C15 <0> d           3.643  -0.674   1.701  0.00  0.00     0.030 A 
ATOM      9  C16 <0> d           2.672  -1.662   1.366  0.00  0.00     0.039 A 
ATOM     10  N1  <0> d           1.357  -1.631   1.478  0.00  0.00    -0.378 N 
ATOM     11  C17 <0> d           1.908  -5.043  -0.156  0.00  0.00     0.084 C 
ATOM     12  C18 <0> d           0.825  -4.825  -1.229  0.00  0.00     0.325 C 
ATOM     13  N2  <0> d          -0.361  -4.204  -0.631  0.00  0.00     0.110 N 
ATOM     14  H17 <0> d          -0.751  -4.791   0.091  0.00  0.00     0.318 HD
ATOM     15  H18 <0> d           0.817  -0.884   1.777  0.00  0.00     0.160 HD
ENDROOT
BRANCH   1  16
ATOM     16  C7  <0> d           0.503  -2.003  -1.217  0.00  0.00     0.010 A 
ATOM     17  C2  <0> d          -0.279  -1.554  -2.271  0.00  0.00     0.076 A 
ATOM     18  C3  <0> d           0.288  -0.776  -3.270  0.00  0.00     0.037 A 
ATOM     19  C4  <0> d           1.630  -0.455  -3.215  0.00  0.00     0.003 A 
ATOM     20  C5  <0> d           2.409  -0.908  -2.166  0.00  0.00     0.001 A 
ATOM     21  C6  <0> d           1.846  -1.684  -1.170  0.00  0.00     0.012 A 
BRANCH  17  22
ATOM     22  O1  <0> d          -1.600  -1.871  -2.322  0.00  0.00    -0.355 OA
ATOM     23  C1  <0> d          -2.343  -1.374  -3.436  0.00  0.00     0.210 C 
ENDBRANCH  17  22
ENDBRANCH   1  16
BRANCH  12  24
ATOM     24  C19 <0> d           1.366  -3.925  -2.309  0.00  0.00     0.207 C 
ATOM     25  O2  <0> d           2.551  -3.636  -2.326  0.00  0.00    -0.646 OA
ATOM     26  O3  <0> d           0.620  -3.485  -3.167  0.00  0.00    -0.646 OA
ENDBRANCH  12  24
TORSDOF 3
