REMARK  4 active torsions:
REMARK  status: ('A' for Active; 'I' for Inactive)
REMARK    1  A    between atoms: C6_6  and  C7_7 
REMARK       I    between atoms: C7_7  and  N1_9 
REMARK    2  A    between atoms: C9_11  and  C16_19 
REMARK       I    between atoms: C16_19  and  N3_21 
REMARK    3  A    between atoms: N3_21  and  C17_22 
REMARK    4  A    between atoms: C17_22  and  C18_23 
ROOT
ATOM      1  C7  <0> d          -1.551  -0.821   0.109  0.00  0.00     0.253 C 
ATOM      2  O1  <0> d          -2.651  -0.327   0.257  0.00  0.00    -0.267 OA
ATOM      3  N1  <0> d          -1.425  -2.155  -0.036  0.00  0.00    -0.346 N 
ATOM      4  C8  <0> d          -0.175  -2.948  -0.096  0.00  0.00     0.141 C 
ATOM      5  C9  <0> d          -0.487  -4.230   0.708  0.00  0.00     0.106 C 
ATOM      6  C10 <0> d          -2.018  -4.365   0.653  0.00  0.00    -0.007 C 
ATOM      7  C11 <0> d          -2.506  -3.161  -0.166  0.00  0.00     0.136 C 
ATOM      8  C12 <0> d          -2.604  -4.311   2.060  0.00  0.00     0.039 C 
ATOM      9  C13 <0> d          -4.121  -4.504   1.984  0.00  0.00     0.233 C 
ATOM     10  N2  <0> d          -4.421  -5.797   1.357  0.00  0.00    -0.075 N 
ATOM     11  C14 <0> d          -3.935  -5.806  -0.029  0.00  0.00     0.233 C 
ATOM     12  C15 <0> d          -2.410  -5.668  -0.037  0.00  0.00     0.039 C 
ATOM     13  H15 <0> d          -3.968  -6.534   1.875  0.00  0.00     0.277 HD
ATOM     14  H29 <0> d          -5.418  -5.949   1.363  0.00  0.00     0.277 HD
ENDROOT
BRANCH   5  15
ATOM     15  C16 <0> d          -0.022  -4.082   2.133  0.00  0.00     0.224 C 
ATOM     16  O2  <0> d          -0.004  -2.987   2.655  0.00  0.00    -0.273 OA
ATOM     17  N3  <0> d           0.375  -5.166   2.829  0.00  0.00    -0.358 N 
ATOM     18  H20 <0> d           0.361  -6.042   2.412  0.00  0.00     0.162 HD
BRANCH  17  19
ATOM     19  C17 <0> d           0.827  -5.022   4.215  0.00  0.00     0.154 C 
BRANCH  19  20
ATOM     20  C18 <0> d           1.217  -6.394   4.770  0.00  0.00     0.139 C 
ATOM     21  O3  <0> d           2.373  -6.885   4.081  0.00  0.00    -0.384 OA
ATOM     22  C21 <0> d           3.461  -7.047   5.008  0.00  0.00     0.168 C 
ATOM     23  C20 <0> d           2.790  -7.235   6.391  0.00  0.00     0.029 C 
ATOM     24  C19 <0> d           1.580  -6.270   6.265  0.00  0.00     0.035 C 
ENDBRANCH  19  20
ENDBRANCH  17  19
ENDBRANCH   5  15
BRANCH   1  25
ATOM     25  C6  <0> d          -0.350   0.041   0.088  0.00  0.00     0.032 A 
ATOM     26  C1  <0> d           0.828  -0.413  -0.507  0.00  0.00     0.018 A 
ATOM     27  C2  <0> d           1.945   0.396  -0.523  0.00  0.00     0.025 A 
ATOM     28  C3  <0> d           1.899   1.657   0.048  0.00  0.00     0.034 A 
ATOM     29  C4  <0> d           0.732   2.113   0.639  0.00  0.00     0.025 A 
ATOM     30 Cl1  <0> d           3.309   2.669   0.023  0.00  0.00    -0.084 Cl
ATOM     31  C5  <0> d          -0.391   1.313   0.662  0.00  0.00     0.018 A 
ENDBRANCH   1  25
TORSDOF 4
