REMARK  2 active torsions:
REMARK  status: ('A' for Active; 'I' for Inactive)
REMARK    1  A    between atoms: C3_3  and  C10_14 
REMARK    2  A    between atoms: C4_4  and  C6_9 
ROOT
ATOM      1  C1  <0> d           0.579   5.075   0.314  0.00  0.00     0.069 C 
ATOM      2  C2  <0> d           0.270   3.610   0.144  0.00  0.00     0.020 A 
ATOM      3  C3  <0> d          -1.014   3.216  -0.039  0.00  0.00     0.038 A 
ATOM      4  C4  <0> d          -1.278   1.733  -0.210  0.00  0.00     0.180 A 
ATOM      5  N1  <0> d          -0.110   0.838  -0.151  0.00  0.00    -0.352 N 
ATOM      6  C5  <0> d           1.108   1.383   0.039  0.00  0.00     0.172 A 
ATOM      7  S1  <0> d           2.474   0.354   0.103  0.00  0.00    -0.041 SA
ATOM      8  N2  <0> d           1.285   2.703   0.179  0.00  0.00    -0.337 N 
ATOM      9  H5  <0> d          -0.214  -0.121  -0.250  0.00  0.00     0.163 HD
ATOM     10  H6  <0> d           2.188   3.031   0.313  0.00  0.00     0.168 HD
ENDROOT
BRANCH   4  11
ATOM     11  C6  <0> d          -1.954   1.527  -1.541  0.00  0.00     0.080 A 
ATOM     12  O1  <0> d          -1.335   1.410  -2.727  0.00  0.00    -0.325 OA
ATOM     13  C9  <0> d          -2.249   1.237  -3.695  0.00  0.00     0.142 A 
ATOM     14  C8  <0> d          -3.471   1.243  -3.131  0.00  0.00     0.027 A 
ATOM     15  C7  <0> d          -3.280   1.425  -1.742  0.00  0.00     0.037 A 
ENDBRANCH   4  11
BRANCH   3  16
ATOM     16  C10 <0> d          -2.063   4.149  -0.075  0.00  0.00     0.156 C 
ATOM     17  O2  <0> d          -2.118   4.966  -0.973  0.00  0.00    -0.293 OA
ATOM     18  C11 <0> d          -3.119   4.138   0.999  0.00  0.00     0.096 C 
ENDBRANCH   3  16
TORSDOF 2
