REMARK  5 active torsions:
REMARK  status: ('A' for Active; 'I' for Inactive)
REMARK    1  A    between atoms: C2_2  and  C3_3 
REMARK    2  A    between atoms: C3_3  and  C4_4 
REMARK    3  A    between atoms: C3_3  and  N4_21 
REMARK    4  A    between atoms: C4_4  and  C5_5 
REMARK    5  A    between atoms: C4_4  and  N1_12 
ROOT
ATOM      1  C4  <0> d           0.384  -2.053  -1.111  0.00  0.00     0.288 C 
ENDROOT
BRANCH   1   2
ATOM      2  C3  <0> d           0.198  -0.538  -1.226  0.00  0.00     0.221 C 
BRANCH   2   3
ATOM      3  C2  <0> d          -0.240   0.025   0.128  0.00  0.00     0.031 C 
ATOM      4  C1  <0> d          -0.305   1.552   0.048  0.00  0.00     0.007 C 
ENDBRANCH   2   3
BRANCH   2   5
ATOM      5  N4  <0> d          -0.829  -0.245  -2.234  0.00  0.00    -0.073 N 
ATOM      6  H20 <0> d          -1.085   0.729  -2.179  0.00  0.00     0.274 HD
ATOM      7  H21 <0> d          -0.466  -0.447  -3.153  0.00  0.00     0.274 HD
ATOM      8  H22 <0> d          -1.642  -0.817  -2.061  0.00  0.00     0.274 HD
ENDBRANCH   2   5
ENDBRANCH   1   2
BRANCH   1   9
ATOM      9  C5  <0> d           1.501  -2.350  -0.145  0.00  0.00    -0.006 A 
ATOM     10  C10 <0> d           1.619  -3.613   0.407  0.00  0.00     0.019 A 
ATOM     11  C9  <0> d           2.648  -3.887   1.291  0.00  0.00     0.019 A 
ATOM     12 Br1  <0> d           0.381  -4.966  -0.051  0.00  0.00    -0.050 Br
ATOM     13  C8  <0> d           3.550  -2.897   1.630  0.00  0.00     0.001 A 
ATOM     14  C7  <0> d           3.428  -1.633   1.082  0.00  0.00     0.001 A 
ATOM     15  C6  <0> d           2.404  -1.360   0.195  0.00  0.00     0.011 A 
ENDBRANCH   1   9
BRANCH   1  16
ATOM     16  N1  <0> d           0.718  -2.606  -2.431  0.00  0.00     0.108 N 
ATOM     17  C16 <0> d          -0.496  -2.811  -3.240  0.00  0.00     0.349 C 
ATOM     18  C15 <0> d          -0.070  -3.244  -4.622  0.00  0.00     0.112 A 
ATOM     19  N2  <0> d           1.195  -3.104  -5.089  0.00  0.00    -0.342 N 
ATOM     20  N3  <0> d          -0.795  -3.794  -5.549  0.00  0.00    -0.353 N 
ATOM     21  C12 <0> d           2.291  -2.515  -4.315  0.00  0.00     0.160 C 
ATOM     22  C13 <0> d           1.220  -3.599  -6.356  0.00  0.00     0.109 A 
ATOM     23  C11 <0> d           1.685  -1.749  -3.132  0.00  0.00     0.294 C 
ATOM     24  C14 <0> d          -0.030  -4.026  -6.629  0.00  0.00     0.106 A 
ATOM     25  H23 <0> d          -1.739  -4.004  -5.474  0.00  0.00     0.166 HD
ENDBRANCH   1  16
TORSDOF 5
