REMARK  8 active torsions:
REMARK  status: ('A' for Active; 'I' for Inactive)
REMARK    1  A    between atoms: C2_2  and  C3_3 
REMARK    2  A    between atoms: C2_2  and  N1_6 
REMARK    3  A    between atoms: C3_3  and  O1_4 
REMARK    4  A    between atoms: N1_6  and  C5_7 
REMARK       I    between atoms: N1_6  and  C8_11 
REMARK    5  A    between atoms: C5_7  and  C6_8 
REMARK    6  A    between atoms: C6_8  and  O2_9 
REMARK    7  A    between atoms: C8_11  and  C9_13 
REMARK    8  A    between atoms: C14_18  and  N2_19 
ROOT
ATOM      1  N1  <0> d          -1.404  -0.395  -0.004  0.00  0.00    -0.340 N 
ATOM      2  C8  <0> d          -1.908  -1.222  -0.941  0.00  0.00     0.256 C 
ATOM      3  O3  <0> d          -1.207  -1.596  -1.862  0.00  0.00    -0.267 OA
ENDROOT
BRANCH   2   4
ATOM      4  C9  <0> d          -3.307  -1.672  -0.851  0.00  0.00     0.061 A 
ATOM      5  C14 <0> d          -4.184  -1.473  -1.929  0.00  0.00     0.044 A 
ATOM      6  C13 <0> d          -5.499  -1.906  -1.836  0.00  0.00     0.075 A 
ATOM      7  C12 <0> d          -5.946  -2.520  -0.681  0.00  0.00     0.157 A 
ATOM      8  C11 <0> d          -5.082  -2.714   0.391  0.00  0.00     0.155 A 
ATOM      9  F1  <0> d          -7.229  -2.935  -0.594  0.00  0.00    -0.203 F 
ATOM     10  C10 <0> d          -3.772  -2.295   0.312  0.00  0.00     0.065 A 
ATOM     11  F2  <0> d          -5.529  -3.316   1.515  0.00  0.00    -0.203 F 
BRANCH   5  12
ATOM     12  N2  <0> d          -3.735  -0.849  -3.088  0.00  0.00    -0.398 N 
ATOM     13  H19 <0> d          -2.798  -0.616  -3.181  0.00  0.00     0.156 HD
ATOM     14  H20 <0> d          -4.358  -0.648  -3.803  0.00  0.00     0.156 HD
ENDBRANCH   5  12
ENDBRANCH   2   4
BRANCH   1  15
ATOM     15  C2  <0> d           0.018  -0.042  -0.026  0.00  0.00     0.107 C 
ATOM     16  C1  <0> d           0.166   1.480  -0.023  0.00  0.00     0.034 C 
BRANCH  15  17
ATOM     17  C3  <0> d           0.707  -0.624   1.210  0.00  0.00     0.192 C 
BRANCH  17  18
ATOM     18  O1  <0> d           0.197   0.013   2.384  0.00  0.00    -0.394 OA
ATOM     19  C4  <0> d           0.778  -0.459   3.601  0.00  0.00     0.201 C 
ENDBRANCH  17  18
ENDBRANCH  15  17
ENDBRANCH   1  15
BRANCH   1  20
ATOM     20  C5  <0> d          -2.278   0.151   1.038  0.00  0.00     0.152 C 
BRANCH  20  21
ATOM     21  C6  <0> d          -2.965   1.414   0.516  0.00  0.00     0.187 C 
BRANCH  21  22
ATOM     22  O2  <0> d          -3.834   1.072  -0.566  0.00  0.00    -0.394 OA
ATOM     23  C7  <0> d          -4.529   2.186  -1.129  0.00  0.00     0.201 C 
ENDBRANCH  21  22
ENDBRANCH  20  21
ENDBRANCH   1  20
TORSDOF 8
