REMARK  4 active torsions:
REMARK  status: ('A' for Active; 'I' for Inactive)
REMARK    1  A    between atoms: C4_4  and  C7_7 
REMARK    2  A    between atoms: C12_12  and  N1_13 
REMARK       I    between atoms: N1_13  and  C13_14 
REMARK    3  A    between atoms: C13_14  and  C14_16 
REMARK    4  A    between atoms: C14_16  and  C15_17 
ROOT
ATOM      1  N1  <0> d          -0.094   5.247   0.031  0.00  0.00    -0.326 N 
ATOM      2  C13 <0> d          -1.271   5.898  -0.056  0.00  0.00     0.225 C 
ATOM      3  O1  <0> d          -2.311   5.274  -0.050  0.00  0.00    -0.273 OA
ATOM      4  H11 <0> d           0.734   5.748   0.091  0.00  0.00     0.169 HD
ENDROOT
BRANCH   2   5
ATOM      5  C14 <0> d          -1.295   7.401  -0.162  0.00  0.00     0.145 C 
BRANCH   5   6
ATOM      6  C15 <0> d          -2.744   7.884  -0.247  0.00  0.00     0.229 C 
ATOM      7  O3  <0> d          -3.334   7.406  -1.458  0.00  0.00    -0.334 OA
ATOM      8  C22 <0> d          -2.957   8.020  -2.612  0.00  0.00     0.096 A 
ATOM      9  C17 <0> d          -2.627   9.373  -2.598  0.00  0.00     0.068 A 
ATOM     10  C21 <0> d          -2.917   7.313  -3.802  0.00  0.00     0.039 A 
ATOM     11  N2  <0> d          -2.655  10.076  -1.385  0.00  0.00    -0.323 N 
ATOM     12  C18 <0> d          -2.294  10.016  -3.779  0.00  0.00     0.032 A 
ATOM     13  C16 <0> d          -2.773   9.391  -0.229  0.00  0.00     0.252 C 
ATOM     14  H14 <0> d          -2.592  11.044  -1.378  0.00  0.00     0.169 HD
ATOM     15  O2  <0> d          -2.902   9.985   0.821  0.00  0.00    -0.270 OA
ATOM     16  C19 <0> d          -2.263   9.306  -4.965  0.00  0.00     0.002 A 
ATOM     17  C20 <0> d          -2.569   7.957  -4.975  0.00  0.00     0.003 A 
ENDBRANCH   5   6
ENDBRANCH   2   5
BRANCH   1  18
ATOM     18  C12 <0> d          -0.067   3.850   0.034  0.00  0.00     0.045 A 
ATOM     19  C7  <0> d           0.989   3.167  -0.580  0.00  0.00     0.001 A 
ATOM     20  C8  <0> d           1.006   1.774  -0.572  0.00  0.00     0.014 A 
ATOM     21  C9  <0> d          -0.015   1.076   0.040  0.00  0.00     0.001 A 
ATOM     22  C10 <0> d          -1.061   1.754   0.641  0.00  0.00     0.002 A 
ATOM     23  C11 <0> d          -1.087   3.135   0.645  0.00  0.00     0.030 A 
BRANCH  19  24
ATOM     24  C4  <0> d           2.083   3.922  -1.237  0.00  0.00    -0.024 A 
ATOM     25  C3  <0> d           3.413   3.622  -0.946  0.00  0.00     0.012 A 
ATOM     26  C2  <0> d           4.428   4.327  -1.560  0.00  0.00     0.001 A 
ATOM     27  C1  <0> d           4.127   5.331  -2.463  0.00  0.00     0.000 A 
ATOM     28  C6  <0> d           2.809   5.634  -2.755  0.00  0.00     0.001 A 
ATOM     29  C5  <0> d           1.787   4.930  -2.152  0.00  0.00     0.012 A 
ENDBRANCH  19  24
ENDBRANCH   1  18
TORSDOF 4
