REMARK  4 active torsions:
REMARK  status: ('A' for Active; 'I' for Inactive)
REMARK    1  A    between atoms: C3_3  and  O2_15 
REMARK    2  A    between atoms: C6_6  and  C7_7 
REMARK    3  A    between atoms: O2_15  and  C11_16 
REMARK    4  A    between atoms: C11_16  and  C12_18 
ROOT
ATOM      1  C1  <0> d           0.108   1.268  -0.550  0.00  0.00     0.014 A 
ATOM      2  C2  <0> d           1.279   1.984  -0.434  0.00  0.00     0.038 A 
ATOM      3  C3  <0> d           2.351   1.456   0.276  0.00  0.00     0.079 A 
ATOM      4  C4  <0> d           2.248   0.205   0.873  0.00  0.00     0.038 A 
ATOM      5  C5  <0> d           1.083  -0.519   0.763  0.00  0.00     0.014 A 
ATOM      6  C6  <0> d          -0.001   0.007   0.049  0.00  0.00    -0.035 A 
ENDROOT
BRANCH   3   7
ATOM      7  O2  <0> d           3.504   2.166   0.387  0.00  0.00    -0.275 OA
BRANCH   7   8
ATOM      8  C11 <0> d           3.514   3.233   1.213  0.00  0.00     0.307 C 
ATOM      9  O3  <0> d           2.490   3.580   1.770  0.00  0.00    -0.258 OA
BRANCH   8  10
ATOM     10  C12 <0> d           4.758   3.973   1.439  0.00  0.00     0.103 A 
ATOM     11  S2  <0> d           6.375   3.667   0.749  0.00  0.00    -0.082 SA
ATOM     12  C19 <0> d           7.247   4.999   1.535  0.00  0.00     0.019 A 
ATOM     13  C14 <0> d           6.250   5.631   2.315  0.00  0.00     0.004 A 
ATOM     14  C18 <0> d           8.552   5.443   1.510  0.00  0.00     0.043 A 
ATOM     15  C13 <0> d           4.967   5.060   2.233  0.00  0.00     0.068 A 
ATOM     16  C15 <0> d           6.664   6.754   3.078  0.00  0.00     0.016 A 
ATOM     17 Cl2  <0> d           3.652   5.740   3.140  0.00  0.00    -0.082 Cl
ATOM     18  C16 <0> d           7.952   7.181   3.044  0.00  0.00     0.025 A 
ATOM     19  C17 <0> d           8.912   6.540   2.267  0.00  0.00     0.035 A 
ATOM     20 Cl1  <0> d          10.550   7.116   2.249  0.00  0.00    -0.084 Cl
ENDBRANCH   8  10
ENDBRANCH   7   8
ENDBRANCH   3   7
BRANCH   6  21
ATOM     21  C7  <0> d          -1.247  -0.760  -0.071  0.00  0.00     0.036 C 
ATOM     22  C8  <0> d          -2.232  -0.330  -0.900  0.00  0.00     0.077 A 
ATOM     23  S1  <0> d          -2.200   0.983  -2.111  0.00  0.00    -0.047 SA
ATOM     24  C9  <0> d          -3.618  -0.817  -1.038  0.00  0.00     0.264 A 
ATOM     25  C10 <0> d          -3.879   0.824  -2.696  0.00  0.00     0.167 A 
ATOM     26  N1  <0> d          -4.379  -0.213  -1.934  0.00  0.00    -0.301 N 
ATOM     27  N2  <0> d          -4.487   1.521  -3.616  0.00  0.00    -0.278 NA
ATOM     28  H6  <0> d          -5.297  -0.501  -2.058  0.00  0.00     0.171 HD
ATOM     29  H7  <0> d          -4.014   2.229  -4.080  0.00  0.00     0.189 HD
ATOM     30  O1  <0> d          -4.041  -1.732  -0.357  0.00  0.00    -0.267 OA
ENDBRANCH   6  21
TORSDOF 4
