REMARK  6 active torsions:
REMARK  status: ('A' for Active; 'I' for Inactive)
REMARK    1  A    between atoms: C2_2  and  C3_3 
REMARK    2  A    between atoms: C6_6  and  C9_9 
REMARK    3  A    between atoms: C9_9  and  C10_10 
REMARK    4  A    between atoms: C9_9  and  N4_22 
REMARK    5  A    between atoms: C10_10  and  N1_11 
REMARK    6  A    between atoms: N1_11  and  C11_12 
ROOT
ATOM      1  C10 <0> d          -1.513   8.271   0.146  0.00  0.00     0.157 C 
ENDROOT
BRANCH   1   2
ATOM      2  C9  <0> d          -2.905   8.716  -0.305  0.00  0.00     0.237 C 
BRANCH   2   3
ATOM      3  C6  <0> d          -2.845  10.143  -0.784  0.00  0.00    -0.026 A 
ATOM      4  C5  <0> d          -3.016  11.182   0.112  0.00  0.00     0.010 A 
ATOM      5  C4  <0> d          -2.961  12.491  -0.328  0.00  0.00     0.007 A 
ATOM      6  C3  <0> d          -2.735  12.762  -1.664  0.00  0.00    -0.059 A 
ATOM      7  C8  <0> d          -2.564  11.724  -2.561  0.00  0.00     0.007 A 
ATOM      8  C7  <0> d          -2.614  10.415  -2.120  0.00  0.00     0.010 A 
BRANCH   6   9
ATOM      9  C2  <0> d          -2.674  14.190  -2.144  0.00  0.00     0.034 C 
ATOM     10  C1  <0> d          -1.232  14.694  -2.061  0.00  0.00     0.010 C 
ENDBRANCH   6   9
ENDBRANCH   2   3
BRANCH   2  11
ATOM     11  N4  <0> d          -3.366   7.851  -1.399  0.00  0.00    -0.069 N 
ATOM     12  C16 <0> d          -2.234   7.380  -2.209  0.00  0.00     0.270 C 
ATOM     13  C17 <0> d          -4.149   6.721  -0.882  0.00  0.00     0.270 C 
ATOM     14  H23 <0> d          -4.022   8.448  -2.049  0.00  0.00     0.279 HD
ENDBRANCH   2  11
ENDBRANCH   1   2
BRANCH   1  15
ATOM     15  N1  <0> d          -1.605   6.958   0.790  0.00  0.00    -0.395 N 
ATOM     16  H13 <0> d          -2.589   6.501   0.969  0.00  0.00     0.158 HD
BRANCH  15  17
ATOM     17  C11 <0> d          -0.483   6.311   1.164  0.00  0.00     0.106 C 
ATOM     18  C12 <0> d          -0.572   5.106   1.837  0.00  0.00     0.115 A 
ATOM     19  C15 <0> d          -1.867   4.580   2.304  0.00  0.00     0.264 A 
ATOM     20  C13 <0> d           0.625   4.293   2.119  0.00  0.00     0.264 A 
ATOM     21  N3  <0> d          -1.878   3.395   2.950  0.00  0.00    -0.299 N 
ATOM     22  O2  <0> d          -2.898   5.194   2.109  0.00  0.00    -0.267 OA
ATOM     23  C14 <0> d          -0.748   2.711   3.177  0.00  0.00     0.181 A 
ATOM     24  H16 <0> d          -2.842   2.994   3.293  0.00  0.00     0.171 HD
ATOM     25  N2  <0> d           0.463   3.128   2.780  0.00  0.00    -0.299 N 
ATOM     26  S1  <0> d          -0.858   1.220   4.011  0.00  0.00    -0.040 SA
ATOM     27  H15 <0> d           1.335   2.498   3.006  0.00  0.00     0.171 HD
ATOM     28  O1  <0> d           1.729   4.661   1.764  0.00  0.00    -0.267 OA
ENDBRANCH  15  17
ENDBRANCH   1  15
TORSDOF 6
