REMARK  7 active torsions:
REMARK  status: ('A' for Active; 'I' for Inactive)
REMARK    1  A    between atoms: C2_2  and  C3_3 
REMARK    2  A    between atoms: C3_3  and  C4_4 
REMARK    3  A    between atoms: C4_4  and  C5_5 
REMARK       I    between atoms: C5_5  and  N1_7 
REMARK    4  A    between atoms: C7_9  and  C14_17 
REMARK       I    between atoms: C14_17  and  N3_19 
REMARK    5  A    between atoms: N3_19  and  C15_20 
REMARK    6  A    between atoms: C15_20  and  C16_21 
REMARK    7  A    between atoms: C16_21  and  C17_22 
ROOT
ATOM      1  C5  <0> d          -2.534  -2.615  -0.100  0.00  0.00     0.219 C 
ATOM      2  O1  <0> d          -3.401  -1.766  -0.122  0.00  0.00    -0.273 OA
ATOM      3  N1  <0> d          -2.870  -3.919  -0.064  0.00  0.00    -0.351 N 
ATOM      4  C6  <0> d          -1.962  -5.090  -0.027  0.00  0.00     0.140 C 
ATOM      5  C7  <0> d          -2.641  -6.080   0.946  0.00  0.00     0.106 C 
ATOM      6  C8  <0> d          -4.129  -5.694   0.923  0.00  0.00    -0.007 C 
ATOM      7  C9  <0> d          -4.231  -4.508  -0.047  0.00  0.00     0.136 C 
ATOM      8  C10 <0> d          -4.587  -5.270   2.315  0.00  0.00     0.039 C 
ATOM      9  C11 <0> d          -6.083  -4.946   2.279  0.00  0.00     0.233 C 
ATOM     10  N2  <0> d          -6.831  -6.128   1.835  0.00  0.00    -0.075 N 
ATOM     11  C12 <0> d          -6.451  -6.474   0.460  0.00  0.00     0.233 C 
ATOM     12  C13 <0> d          -4.971  -6.862   0.419  0.00  0.00     0.039 C 
ATOM     13  H19 <0> d          -6.623  -6.905   2.446  0.00  0.00     0.277 HD
ATOM     14  H33 <0> d          -7.820  -5.932   1.871  0.00  0.00     0.277 HD
ENDROOT
BRANCH   5  15
ATOM     15  C14 <0> d          -2.077  -5.921   2.334  0.00  0.00     0.224 C 
ATOM     16  O2  <0> d          -1.665  -4.841   2.702  0.00  0.00    -0.273 OA
ATOM     17  N3  <0> d          -2.029  -6.980   3.167  0.00  0.00    -0.360 N 
ATOM     18  H24 <0> d          -2.358  -7.843   2.873  0.00  0.00     0.162 HD
BRANCH  17  19
ATOM     19  C15 <0> d          -1.481  -6.825   4.517  0.00  0.00     0.127 C 
BRANCH  19  20
ATOM     20  C16 <0> d          -1.543  -8.168   5.249  0.00  0.00     0.059 C 
BRANCH  20  21
ATOM     21  C17 <0> d          -0.979  -8.009   6.638  0.00  0.00    -0.039 A 
ATOM     22  C22 <0> d          -1.788  -7.561   7.666  0.00  0.00     0.017 A 
ATOM     23  C21 <0> d          -1.270  -7.420   8.941  0.00  0.00     0.019 A 
ATOM     24 Br1  <0> d          -3.602  -7.148   7.330  0.00  0.00    -0.051 Br
ATOM     25  C20 <0> d           0.057  -7.717   9.185  0.00  0.00     0.001 A 
ATOM     26  C19 <0> d           0.867  -8.160   8.156  0.00  0.00     0.001 A 
ATOM     27  C18 <0> d           0.349  -8.306   6.882  0.00  0.00     0.008 A 
ENDBRANCH  20  21
ENDBRANCH  19  20
ENDBRANCH  17  19
ENDBRANCH   5  15
BRANCH   1  28
ATOM     28  C4  <0> d          -1.083  -2.210  -0.113  0.00  0.00     0.103 C 
BRANCH  28  29
ATOM     29  C3  <0> d          -0.979  -0.684  -0.154  0.00  0.00     0.009 C 
BRANCH  29  30
ATOM     30  C2  <0> d           0.494  -0.273  -0.167  0.00  0.00    -0.004 C 
ATOM     31  C1  <0> d           0.598   1.253  -0.209  0.00  0.00     0.005 C 
ENDBRANCH  29  30
ENDBRANCH  28  29
ENDBRANCH   1  28
TORSDOF 7
