REMARK  6 active torsions:
REMARK  status: ('A' for Active; 'I' for Inactive)
REMARK    1  A    between atoms: N1_2  and  C3_4 
REMARK    2  A    between atoms: C3_4  and  C4_5 
REMARK    3  A    between atoms: C3_4  and  C15_21 
REMARK    4  A    between atoms: C4_5  and  N2_6 
REMARK       I    between atoms: N2_6  and  C5_7 
REMARK    5  A    between atoms: C5_7  and  C6_9 
REMARK    6  A    between atoms: C19_25  and  O3_27 
ROOT
ATOM      1  N2  <0> d          -3.599  -0.407  -0.868  0.00  0.00    -0.353 N 
ATOM      2  C5  <0> d          -4.521  -0.044  -1.782  0.00  0.00     0.268 C 
ATOM      3  O1  <0> d          -4.177   0.528  -2.797  0.00  0.00    -0.266 OA
ATOM      4  H11 <0> d          -3.873  -0.864  -0.057  0.00  0.00     0.162 HD
ENDROOT
BRANCH   1   5
ATOM      5  C4  <0> d          -2.182  -0.113  -1.100  0.00  0.00     0.161 C 
BRANCH   5   6
ATOM      6  C3  <0> d          -1.368  -0.524   0.128  0.00  0.00     0.237 C 
BRANCH   6   7
ATOM      7  N1  <0> d           0.035  -0.133  -0.061  0.00  0.00    -0.069 N 
ATOM      8  C1  <0> d           0.118   1.323  -0.236  0.00  0.00     0.270 C 
ATOM      9  C2  <0> d           0.817  -0.530   1.118  0.00  0.00     0.270 C 
ATOM     10  H24 <0> d           0.405  -0.592  -0.880  0.00  0.00     0.279 HD
ENDBRANCH   6   7
BRANCH   6  11
ATOM     11  C15 <0> d          -1.453  -2.018   0.309  0.00  0.00    -0.023 A 
ATOM     12  C20 <0> d          -2.324  -2.552   1.239  0.00  0.00     0.046 A 
ATOM     13  C19 <0> d          -2.406  -3.928   1.401  0.00  0.00     0.068 A 
ATOM     14  C18 <0> d          -1.604  -4.763   0.637  0.00  0.00     0.037 A 
ATOM     15  C17 <0> d          -0.730  -4.223  -0.287  0.00  0.00     0.003 A 
ATOM     16  C16 <0> d          -0.654  -2.853  -0.451  0.00  0.00     0.009 A 
BRANCH  13  17
ATOM     17  O3  <0> d          -3.267  -4.456   2.310  0.00  0.00    -0.356 OA
ATOM     18  C21 <0> d          -3.294  -5.880   2.427  0.00  0.00     0.210 C 
ENDBRANCH  13  17
ENDBRANCH   6  11
ENDBRANCH   5   6
ENDBRANCH   1   5
BRANCH   2  19
ATOM     19  C6  <0> d          -5.954  -0.342  -1.547  0.00  0.00     0.105 A 
ATOM     20  N3  <0> d          -6.868   0.036  -2.487  0.00  0.00    -0.351 N 
ATOM     21  C14 <0> d          -8.210  -0.217  -2.330  0.00  0.00     0.047 A 
ATOM     22  H2  <0> d          -6.563   0.491  -3.287  0.00  0.00     0.166 HD
ATOM     23  C9  <0> d          -8.666  -0.871  -1.171  0.00  0.00     0.041 A 
ATOM     24  C13 <0> d          -9.132   0.170  -3.301  0.00  0.00     0.030 A 
ATOM     25  C8  <0> d          -7.679  -1.273  -0.154  0.00  0.00     0.186 A 
ATOM     26  C10 <0> d         -10.028  -1.126  -1.002  0.00  0.00     0.018 A 
ATOM     27  C7  <0> d          -6.313  -0.976  -0.402  0.00  0.00     0.091 A 
ATOM     28  O2  <0> d          -8.025  -1.842   0.867  0.00  0.00    -0.287 OA
ATOM     29  C11 <0> d         -10.914  -0.737  -1.967  0.00  0.00     0.001 A 
ATOM     30  C12 <0> d         -10.471  -0.091  -3.113  0.00  0.00     0.002 A 
ENDBRANCH   2  19
TORSDOF 6
