REMARK  6 active torsions:
REMARK  status: ('A' for Active; 'I' for Inactive)
REMARK    1  A    between atoms: C5_6  and  C8_10 
REMARK    2  A    between atoms: C8_10  and  N3_11 
REMARK    3  A    between atoms: N4_14  and  S1_17 
REMARK    4  A    between atoms: S1_17  and  C13_20 
REMARK    5  A    between atoms: C13_20  and  C14_21 
REMARK    6  A    between atoms: C14_21  and  N5_22 
ROOT
ATOM      1  N3  <0> d           3.102  -2.156  -2.554  0.00  0.00     0.095 N 
ATOM      2  C9  <0> d           3.771  -0.864  -2.756  0.00  0.00     0.293 C 
ATOM      3  C10 <0> d           3.157  -0.159  -3.970  0.00  0.00     0.165 C 
ATOM      4  N4  <0> d           3.213  -1.074  -5.119  0.00  0.00    -0.307 N 
ATOM      5  C11 <0> d           2.685  -2.437  -4.951  0.00  0.00     0.165 C 
ATOM      6  C12 <0> d           3.318  -3.052  -3.698  0.00  0.00     0.293 C 
ENDROOT
BRANCH   4   7
ATOM      7  S1  <0> d           3.853  -0.584  -6.566  0.00  0.00     0.230 S 
ATOM      8  O1  <0> d           3.218  -1.402  -7.539  0.00  0.00    -0.206 OA
ATOM      9  O2  <0> d           3.679   0.826  -6.580  0.00  0.00    -0.206 OA
BRANCH   7  10
ATOM     10  C13 <0> d           5.617  -0.995  -6.459  0.00  0.00     0.183 C 
BRANCH  10  11
ATOM     11  C14 <0> d           6.316  -0.582  -7.755  0.00  0.00     0.151 C 
BRANCH  11  12
ATOM     12  N5  <0> d           7.740  -0.914  -7.668  0.00  0.00    -0.287 N 
ATOM     13  C19 <0> d           8.147  -2.121  -8.087  0.00  0.00     0.226 C 
ATOM     14  C18 <0> d           9.596  -2.526  -8.019  0.00  0.00     0.104 C 
ATOM     15  O4  <0> d           7.333  -2.901  -8.534  0.00  0.00    -0.273 OA
ATOM     16  C17 <0> d          10.476  -1.276  -8.133  0.00  0.00     0.019 C 
ATOM     17  C16 <0> d          10.059  -0.285  -7.041  0.00  0.00     0.104 C 
ATOM     18  C15 <0> d           8.586  -0.000  -7.168  0.00  0.00     0.226 C 
ATOM     19  O3  <0> d           8.155   1.075  -6.811  0.00  0.00    -0.273 OA
ENDBRANCH  11  12
ENDBRANCH  10  11
ENDBRANCH   7  10
ENDBRANCH   4   7
BRANCH   1  20
ATOM     20  C8  <0> d           3.542  -2.787  -1.302  0.00  0.00     0.319 C 
BRANCH  20  21
ATOM     21  C5  <0> d           2.487  -3.795  -0.841  0.00  0.00     0.210 A 
ATOM     22  N1  <0> d           1.173  -3.147  -0.755  0.00  0.00    -0.365 N 
ATOM     23  C4  <0> d           0.379  -3.762  -1.583  0.00  0.00     0.056 A 
ATOM     24  H26 <0> d           0.939  -2.397  -0.186  0.00  0.00     0.162 HD
ATOM     25  C3  <0> d          -1.035  -3.575  -1.937  0.00  0.00     0.031 A 
ATOM     26  C6  <0> d           1.126  -4.854  -2.264  0.00  0.00     0.056 A 
ATOM     27  C2  <0> d          -1.605  -4.384  -2.852  0.00  0.00     0.002 A 
ATOM     28  C1  <0> d          -0.898  -5.415  -3.496  0.00  0.00     0.002 A 
ATOM     29  C7  <0> d           0.401  -5.673  -3.246  0.00  0.00     0.031 A 
ATOM     30  N2  <0> d           2.354  -4.872  -1.831  0.00  0.00    -0.365 N 
ATOM     31  H27 <0> d           3.052  -5.484  -2.111  0.00  0.00     0.162 HD
ENDBRANCH  20  21
ENDBRANCH   1  20
TORSDOF 6
