REMARK  8 active torsions:
REMARK  status: ('A' for Active; 'I' for Inactive)
REMARK    1  A    between atoms: C4_4  and  O1_7 
REMARK    2  A    between atoms: O1_7  and  C7_8 
REMARK    3  A    between atoms: C8_9  and  C12_14 
REMARK       I    between atoms: C12_14  and  N2_16 
REMARK    4  A    between atoms: C14_18  and  C21_26 
REMARK       I    between atoms: C21_26  and  N4_28 
REMARK    5  A    between atoms: N4_28  and  C22_29 
REMARK    6  A    between atoms: C22_29  and  C23_30 
REMARK    7  A    between atoms: C23_30  and  C24_31 
REMARK    8  A    between atoms: C24_31  and  N5_32 
ROOT
ATOM      1  C12 <0> d           6.018  -1.884   0.118  0.00  0.00     0.258 C 
ATOM      2  O2  <0> d           6.050  -0.669   0.097  0.00  0.00    -0.267 OA
ATOM      3  N2  <0> d           7.166  -2.589   0.113  0.00  0.00    -0.346 N 
ATOM      4  C13 <0> d           7.330  -4.059   0.207  0.00  0.00     0.141 C 
ATOM      5  C14 <0> d           8.479  -4.387  -0.774  0.00  0.00     0.106 C 
ATOM      6  C15 <0> d           9.277  -3.078  -0.895  0.00  0.00    -0.007 C 
ATOM      7  C16 <0> d           8.551  -2.070   0.008  0.00  0.00     0.136 C 
ATOM      8  C17 <0> d           9.269  -2.586  -2.339  0.00  0.00     0.039 C 
ATOM      9  C18 <0> d          10.117  -1.315  -2.444  0.00  0.00     0.233 C 
ATOM     10  N3  <0> d          11.489  -1.603  -2.012  0.00  0.00    -0.075 N 
ATOM     11  C19 <0> d          11.498  -1.986  -0.595  0.00  0.00     0.233 C 
ATOM     12  C20 <0> d          10.709  -3.285  -0.411  0.00  0.00     0.039 C 
ATOM     13  H18 <0> d          11.864  -2.358  -2.566  0.00  0.00     0.277 HD
ATOM     14  H33 <0> d          12.060  -0.780  -2.140  0.00  0.00     0.277 HD
ENDROOT
BRANCH   1  15
ATOM     15  C8  <0> d           4.721  -2.587   0.148  0.00  0.00     0.085 A 
ATOM     16  C7  <0> d           3.617  -2.079  -0.554  0.00  0.00     0.185 A 
ATOM     17  N1  <0> d           2.455  -2.709  -0.520  0.00  0.00    -0.236 NA
ATOM     18  C11 <0> d           2.292  -3.830   0.156  0.00  0.00     0.119 A 
ATOM     19  C10 <0> d           3.333  -4.393   0.872  0.00  0.00     0.020 A 
ATOM     20  C9  <0> d           4.570  -3.772   0.876  0.00  0.00     0.023 A 
BRANCH  16  21
ATOM     21  O1  <0> d           3.740  -0.933  -1.265  0.00  0.00    -0.291 OA
BRANCH  21  22
ATOM     22  C4  <0> d           2.623  -0.416  -1.840  0.00  0.00     0.077 A 
ATOM     23  C3  <0> d           1.588   0.057  -1.047  0.00  0.00     0.037 A 
ATOM     24  C2  <0> d           0.453   0.582  -1.634  0.00  0.00     0.003 A 
ATOM     25  C1  <0> d           0.349   0.638  -3.012  0.00  0.00     0.000 A 
ATOM     26  C6  <0> d           1.380   0.169  -3.805  0.00  0.00     0.003 A 
ATOM     27  C5  <0> d           2.516  -0.358  -3.223  0.00  0.00     0.037 A 
ENDBRANCH  21  22
ENDBRANCH  16  21
ENDBRANCH   1  15
BRANCH   5  28
ATOM     28  C21 <0> d           7.924  -4.791  -2.115  0.00  0.00     0.224 C 
ATOM     29  O3  <0> d           6.910  -4.273  -2.533  0.00  0.00    -0.273 OA
ATOM     30  N4  <0> d           8.554  -5.729  -2.850  0.00  0.00    -0.361 N 
ATOM     31  H23 <0> d           9.365  -6.144  -2.515  0.00  0.00     0.162 HD
BRANCH  30  32
ATOM     32  C22 <0> d           8.014  -6.122  -4.154  0.00  0.00     0.124 C 
BRANCH  32  33
ATOM     33  C23 <0> d           8.912  -7.195  -4.775  0.00  0.00     0.040 C 
BRANCH  33  34
ATOM     34  C24 <0> d           8.349  -7.606  -6.137  0.00  0.00     0.130 C 
BRANCH  34  35
ATOM     35  N5  <0> d           9.208  -8.632  -6.731  0.00  0.00    -0.352 N 
ATOM     36  C27 <0> d           9.085  -9.968  -6.577  0.00  0.00     0.182 A 
ATOM     37  N6  <0> d          10.030 -10.557  -7.258  0.00  0.00    -0.361 N 
ATOM     38  C26 <0> d          10.787  -9.627  -7.859  0.00  0.00     0.106 A 
ATOM     39  H34 <0> d          10.165 -11.515  -7.318  0.00  0.00     0.166 HD
ATOM     40  C25 <0> d          10.290  -8.416  -7.542  0.00  0.00     0.108 A 
ENDBRANCH  34  35
ENDBRANCH  33  34
ENDBRANCH  32  33
ENDBRANCH  30  32
ENDBRANCH   5  28
TORSDOF 8
