REMARK  6 active torsions:
REMARK  status: ('A' for Active; 'I' for Inactive)
REMARK    1  A    between atoms: C2_2  and  C4_4 
REMARK    2  A    between atoms: C2_2  and  C5_6 
REMARK    3  A    between atoms: C4_4  and  N1_5 
REMARK    4  A    between atoms: C6_9  and  C15_21 
REMARK    5  A    between atoms: C7_10  and  C8_12 
REMARK    6  A    between atoms: C12_16  and  O1_18 
ROOT
ATOM      1  C5  <0> d           0.651  -0.413  -1.308  0.00  0.00     0.115 A 
ATOM      2  N2  <0> d           1.820   0.068  -1.782  0.00  0.00    -0.341 N 
ATOM      3  H1  <0> d           2.300   0.842  -1.449  0.00  0.00     0.167 HD
ATOM      4  C6  <0> d           2.206  -0.744  -2.824  0.00  0.00     0.074 A 
ATOM      5  C7  <0> d           1.224  -1.712  -2.942  0.00  0.00     0.096 A 
ATOM      6  N3  <0> d           0.303  -1.468  -1.991  0.00  0.00    -0.232 NA
ENDROOT
BRANCH   5   7
ATOM      7  C8  <0> d           1.195  -2.817  -3.928  0.00  0.00    -0.002 A 
ATOM      8  C13 <0> d           0.002  -3.154  -4.565  0.00  0.00     0.052 A 
ATOM      9  C12 <0> d          -0.017  -4.184  -5.490  0.00  0.00     0.086 A 
ATOM     10  C11 <0> d           1.147  -4.886  -5.773  0.00  0.00     0.044 A 
ATOM     11  C10 <0> d           2.331  -4.556  -5.137  0.00  0.00     0.023 A 
ATOM     12 Br1  <0> d           1.115  -6.297  -7.032  0.00  0.00    -0.048 Br
ATOM     13  C9  <0> d           2.360  -3.527  -4.218  0.00  0.00     0.015 A 
BRANCH   9  14
ATOM     14  O1  <0> d          -1.178  -4.512  -6.118  0.00  0.00    -0.355 OA
ATOM     15  C14 <0> d          -2.337  -3.748  -5.779  0.00  0.00     0.210 C 
ENDBRANCH   9  14
ENDBRANCH   5   7
BRANCH   4  16
ATOM     16  C15 <0> d           3.421  -0.609  -3.650  0.00  0.00    -0.004 A 
ATOM     17  C19 <0> d           4.674  -0.400  -3.059  0.00  0.00     0.033 A 
ATOM     18  C18 <0> d           5.784  -0.285  -3.869  0.00  0.00     0.117 A 
ATOM     19  N4  <0> d           5.675  -0.358  -5.183  0.00  0.00    -0.273 NA
ATOM     20  C17 <0> d           4.513  -0.549  -5.780  0.00  0.00     0.117 A 
ATOM     21  C16 <0> d           3.353  -0.681  -5.048  0.00  0.00     0.033 A 
ENDBRANCH   4  16
BRANCH   1  22
ATOM     22  C2  <0> d          -0.130   0.175  -0.161  0.00  0.00     0.036 C 
ATOM     23  C1  <0> d          -0.201   1.696  -0.319  0.00  0.00     0.025 C 
ATOM     24  C3  <0> d           0.565  -0.168   1.158  0.00  0.00     0.025 C 
BRANCH  22  25
ATOM     25  C4  <0> d          -1.546  -0.404  -0.157  0.00  0.00     0.246 C 
BRANCH  25  26
ATOM     26  N1  <0> d          -2.307   0.170   0.961  0.00  0.00    -0.078 N 
ATOM     27  H10 <0> d          -3.241  -0.212   0.963  0.00  0.00     0.274 HD
ATOM     28  H11 <0> d          -1.849  -0.057   1.831  0.00  0.00     0.274 HD
ATOM     29  H22 <0> d          -2.354   1.172   0.856  0.00  0.00     0.274 HD
ENDBRANCH  25  26
ENDBRANCH  22  25
ENDBRANCH   1  22
TORSDOF 6
