REMARK  4 active torsions:
REMARK  status: ('A' for Active; 'I' for Inactive)
REMARK    1  A    between atoms: C6_7  and  O1_8 
REMARK    2  A    between atoms: C9_12  and  C10_13 
REMARK    3  A    between atoms: C13_16  and  O3_21 
REMARK    4  A    between atoms: C14_17  and  O2_19 
ROOT
ATOM      1  C1  <0> d          -0.019   1.526   0.010  0.00  0.00     0.021 C 
ATOM      2  C2  <0> d           0.002  -0.004   0.002  0.00  0.00     0.033 C 
ATOM      3  C3  <0> d           0.722  -0.512  -1.252  0.00  0.00     0.251 C 
ATOM      4  N1  <0> d           0.712  -1.979  -1.264  0.00  0.00    -0.033 N 
ATOM      5  C4  <0> d           1.449  -2.500  -0.108  0.00  0.00     0.251 C 
ATOM      6  C5  <0> d           0.754  -2.060   1.186  0.00  0.00     0.033 C 
ATOM      7  C6  <0> d           0.742  -0.527   1.241  0.00  0.00     0.141 C 
ATOM      8  C7  <0> d          -0.694  -2.563   1.160  0.00  0.00     0.289 C 
ATOM      9  N2  <0> d          -1.359  -2.032  -0.039  0.00  0.00     0.126 N 
ATOM     10  C8  <0> d          -1.431  -0.549   0.021  0.00  0.00     0.289 C 
ATOM     11  C9  <0> d          -0.666  -2.478  -1.256  0.00  0.00     0.455 C 
ATOM     12  C17 <0> d           1.499  -2.622   2.398  0.00  0.00     0.021 C 
ATOM     13  H25 <0> d           1.171  -2.301  -2.102  0.00  0.00     0.282 HD
ENDROOT
BRANCH  11  14
ATOM     14  C10 <0> d          -0.651  -3.984  -1.299  0.00  0.00     0.005 A 
ATOM     15  C15 <0> d          -1.673  -4.701  -0.703  0.00  0.00     0.050 A 
ATOM     16  C14 <0> d          -1.664  -6.086  -0.746  0.00  0.00     0.101 A 
ATOM     17  C13 <0> d          -0.620  -6.753  -1.380  0.00  0.00     0.099 A 
ATOM     18  C12 <0> d           0.404  -6.028  -1.970  0.00  0.00     0.040 A 
ATOM     19  C11 <0> d           0.386  -4.647  -1.928  0.00  0.00     0.014 A 
BRANCH  16  20
ATOM     20  O2  <0> d          -2.670  -6.792  -0.165  0.00  0.00    -0.353 OA
ATOM     21  C16 <0> d          -3.709  -6.041   0.467  0.00  0.00     0.210 C 
ENDBRANCH  16  20
BRANCH  17  22
ATOM     22  O3  <0> d          -0.604  -8.112  -1.421  0.00  0.00    -0.358 OA
ATOM     23  H21 <0> d          -0.149  -8.523  -0.673  0.00  0.00     0.217 HD
ENDBRANCH  17  22
ENDBRANCH  11  14
BRANCH   7  24
ATOM     24  O1  <0> d           2.088  -0.047   1.235  0.00  0.00    -0.394 OA
ATOM     25  H9  <0> d           2.613  -0.341   1.992  0.00  0.00     0.210 HD
ENDBRANCH   7  24
TORSDOF 4
