REMARK  5 active torsions:
REMARK  status: ('A' for Active; 'I' for Inactive)
REMARK    1  A    between atoms: C2_2  and  N1_9 
REMARK    2  A    between atoms: N1_9  and  C6_10 
REMARK    3  A    between atoms: C6_10  and  C8_12 
REMARK    4  A    between atoms: C6_10  and  C10_15 
REMARK    5  A    between atoms: C8_12  and  O3_13 
ROOT
ATOM      1  N1  <0> d          -1.335  -1.256  -0.750  0.00  0.00    -0.045 N 
ATOM      2  H10 <0> d          -1.888  -2.098  -0.817  0.00  0.00     0.279 HD
ATOM      3  H19 <0> d          -0.905  -1.209   0.162  0.00  0.00     0.279 HD
ENDROOT
BRANCH   1   4
ATOM      4  C2  <0> d          -0.292  -1.270  -1.784  0.00  0.00     0.137 C 
ATOM      5  C1  <0> d           0.268   0.145  -1.933  0.00  0.00     0.047 C 
ATOM      6  C5  <0> d           0.844  -2.206  -1.326  0.00  0.00     0.178 C 
ATOM      7  S1  <0> d           1.016  -3.380  -2.734  0.00  0.00     0.146 S 
ATOM      8  C4  <0> d           0.123  -2.391  -4.013  0.00  0.00     0.143 C 
ATOM      9  O1  <0> d           0.273  -4.559  -2.453  0.00  0.00    -0.228 OA
ATOM     10  O2  <0> d           2.386  -3.482  -3.094  0.00  0.00    -0.228 OA
ATOM     11  C3  <0> d          -0.928  -1.687  -3.110  0.00  0.00     0.054 C 
ENDBRANCH   1   4
BRANCH   1  12
ATOM     12  C6  <0> d          -2.201  -0.085  -0.944  0.00  0.00     0.230 C 
ATOM     13  C7  <0> d          -2.713  -0.063  -2.385  0.00  0.00     0.061 C 
BRANCH  12  14
ATOM     14  C8  <0> d          -3.388  -0.164   0.018  0.00  0.00     0.217 C 
BRANCH  14  15
ATOM     15  O3  <0> d          -4.230   0.975  -0.170  0.00  0.00    -0.393 OA
ATOM     16  C9  <0> d          -5.375   0.999   0.684  0.00  0.00     0.201 C 
ENDBRANCH  14  15
ENDBRANCH  12  14
BRANCH  12  17
ATOM     17  C10 <0> d          -1.415   1.171  -0.670  0.00  0.00     0.212 C 
ATOM     18  O4  <0> d          -0.725   1.253   0.332  0.00  0.00    -0.646 OA
ATOM     19  O5  <0> d          -1.470   2.106  -1.451  0.00  0.00    -0.646 OA
ENDBRANCH  12  17
ENDBRANCH   1  12
TORSDOF 5
