REMARK  7 active torsions:
REMARK  status: ('A' for Active; 'I' for Inactive)
REMARK    1  A    between atoms: C5_5  and  C8_8 
REMARK    2  A    between atoms: C8_8  and  N1_9 
REMARK       I    between atoms: N1_9  and  C9_10 
REMARK    3  A    between atoms: C9_10  and  C10_12 
REMARK    4  A    between atoms: C14_18  and  C20_26 
REMARK    5  A    between atoms: N4_19  and  C16_22 
REMARK       I    between atoms: C20_26  and  N5_28 
REMARK    6  A    between atoms: N5_28  and  C21_29 
REMARK    7  A    between atoms: C21_29  and  C22_30 
ROOT
ATOM      1  C10 <0> d           3.110  -6.520   0.144  0.00  0.00     0.158 A 
ATOM      2  C11 <0> d           3.610  -7.789   0.016  0.00  0.00     0.139 A 
ATOM      3  N2  <0> d           4.980  -7.692   0.165  0.00  0.00    -0.332 N 
ATOM      4  C12 <0> d           5.265  -6.410   0.399  0.00  0.00     0.211 A 
ATOM      5  N3  <0> d           4.160  -5.707   0.380  0.00  0.00    -0.236 NA
ATOM      6  C13 <0> d           5.849  -8.865   0.049  0.00  0.00     0.171 C 
ATOM      7  C14 <0> d           5.076 -10.109   0.488  0.00  0.00     0.129 C 
ATOM      8  N4  <0> d           3.747 -10.184  -0.108  0.00  0.00    -0.322 N 
ATOM      9  C15 <0> d           2.965  -9.086  -0.246  0.00  0.00     0.274 C 
ATOM     10  O2  <0> d           1.795  -9.167  -0.568  0.00  0.00    -0.266 OA
ATOM     11  C19 <0> d           4.934 -10.091   2.012  0.00  0.00     0.051 C 
ENDROOT
BRANCH   7  12
ATOM     12  C20 <0> d           5.858 -11.334   0.090  0.00  0.00     0.247 C 
ATOM     13  O3  <0> d           6.486 -11.950   0.924  0.00  0.00    -0.271 OA
ATOM     14  N5  <0> d           5.860 -11.744  -1.194  0.00  0.00    -0.355 N 
ATOM     15  H22 <0> d           5.421 -11.210  -1.875  0.00  0.00     0.162 HD
BRANCH  14  16
ATOM     16  C21 <0> d           6.525 -12.996  -1.562  0.00  0.00     0.161 C 
BRANCH  16  17
ATOM     17  C22 <0> d           6.383 -13.224  -3.045  0.00  0.00    -0.040 A 
ATOM     18  C27 <0> d           7.338 -12.731  -3.914  0.00  0.00     0.012 A 
ATOM     19  C26 <0> d           7.210 -12.943  -5.274  0.00  0.00     0.043 A 
ATOM     20  C25 <0> d           6.121 -13.641  -5.766  0.00  0.00     0.116 A 
ATOM     21  C24 <0> d           5.162 -14.130  -4.895  0.00  0.00     0.043 A 
ATOM     22  F1  <0> d           5.993 -13.845  -7.096  0.00  0.00    -0.206 F 
ATOM     23  C23 <0> d           5.294 -13.921  -3.535  0.00  0.00     0.012 A 
ENDBRANCH  16  17
ENDBRANCH  14  16
ENDBRANCH   7  12
BRANCH   8  24
ATOM     24  C16 <0> d           3.245 -11.480  -0.570  0.00  0.00     0.089 A 
ATOM     25  C18 <0> d           1.857 -11.911  -0.091  0.00  0.00     0.027 A 
ATOM     26  C17 <0> d           2.064 -11.474  -1.543  0.00  0.00     0.027 A 
ENDBRANCH   8  24
BRANCH   1  27
ATOM     27  C9  <0> d           1.691  -6.118   0.037  0.00  0.00     0.273 C 
ATOM     28  N1  <0> d           1.345  -4.823   0.180  0.00  0.00    -0.351 N 
ATOM     29  H10 <0> d           2.026  -4.155   0.354  0.00  0.00     0.163 HD
ATOM     30  O1  <0> d           0.837  -6.955  -0.181  0.00  0.00    -0.266 OA
BRANCH  28  31
ATOM     31  C8  <0> d          -0.061  -4.425   0.074  0.00  0.00     0.161 C 
BRANCH  31  32
ATOM     32  C5  <0> d          -0.177  -2.935   0.272  0.00  0.00    -0.041 A 
ATOM     33  C4  <0> d          -0.094  -2.085  -0.815  0.00  0.00     0.009 A 
ATOM     34  C3  <0> d          -0.202  -0.719  -0.633  0.00  0.00     0.007 A 
ATOM     35  C2  <0> d          -0.393  -0.203   0.635  0.00  0.00    -0.062 A 
ATOM     36  C1  <0> d          -0.510   1.286   0.833  0.00  0.00     0.048 C 
ATOM     37  C7  <0> d          -0.471  -1.053   1.723  0.00  0.00     0.007 A 
ATOM     38  C6  <0> d          -0.367  -2.419   1.541  0.00  0.00     0.009 A 
ENDBRANCH  31  32
ENDBRANCH  28  31
ENDBRANCH   1  27
TORSDOF 7
