REMARK  6 active torsions:
REMARK  status: ('A' for Active; 'I' for Inactive)
REMARK    1  A    between atoms: C2_2  and  C3_3 
REMARK    2  A    between atoms: C3_3  and  C4_4 
REMARK    3  A    between atoms: C7_7  and  C18_20 
REMARK    4  A    between atoms: C8_8  and  N1_10 
REMARK    5  A    between atoms: N2_13  and  C14_16 
REMARK    6  A    between atoms: C18_20  and  N3_21 
ROOT
ATOM      1  C4  <0> d          -1.391  -2.072  -0.319  0.00  0.00    -0.013 C 
ATOM      2  C5  <0> d          -0.795  -2.739  -1.561  0.00  0.00     0.005 C 
ATOM      3  C6  <0> d          -0.702  -4.249  -1.333  0.00  0.00     0.009 C 
ATOM      4  C7  <0> d          -2.099  -4.814  -1.072  0.00  0.00     0.042 C 
ATOM      5  C8  <0> d          -2.695  -4.147   0.169  0.00  0.00     0.194 C 
ATOM      6  C9  <0> d          -2.789  -2.637  -0.058  0.00  0.00     0.038 C 
ENDROOT
BRANCH   5   7
ATOM      7  N1  <0> d          -4.037  -4.689   0.420  0.00  0.00    -0.063 N 
ATOM      8  C13 <0> d          -4.558  -4.142   1.680  0.00  0.00     0.265 C 
ATOM      9  C12 <0> d          -5.948  -4.721   1.952  0.00  0.00     0.301 C 
ATOM     10  N2  <0> d          -6.845  -4.375   0.840  0.00  0.00     0.100 N 
ATOM     11  C11 <0> d          -6.324  -4.894  -0.433  0.00  0.00     0.301 C 
ATOM     12  C10 <0> d          -4.930  -4.314  -0.684  0.00  0.00     0.265 C 
ATOM     13  H39 <0> d          -3.987  -5.694   0.485  0.00  0.00     0.280 HD
BRANCH  10  14
ATOM     14  C14 <0> d          -8.207  -4.865   1.090  0.00  0.00     0.149 C 
ATOM     15  C15 <0> d          -8.195  -6.394   1.152  0.00  0.00     0.048 C 
ATOM     16  C16 <0> d          -8.715  -4.305   2.420  0.00  0.00     0.048 C 
ATOM     17  C17 <0> d          -9.130  -4.408  -0.042  0.00  0.00     0.048 C 
ENDBRANCH  10  14
ENDBRANCH   5   7
BRANCH   4  18
ATOM     18  C18 <0> d          -2.006  -6.324  -0.845  0.00  0.00     0.236 C 
BRANCH  18  19
ATOM     19  N3  <0> d          -1.539  -6.976  -2.075  0.00  0.00    -0.079 N 
ATOM     20  H36 <0> d          -2.190  -6.789  -2.823  0.00  0.00     0.274 HD
ATOM     21  H37 <0> d          -0.630  -6.616  -2.323  0.00  0.00     0.274 HD
ATOM     22  H38 <0> d          -1.477  -7.972  -1.925  0.00  0.00     0.274 HD
ENDBRANCH  18  19
ENDBRANCH   4  18
BRANCH   1  23
ATOM     23  C3  <0> d          -1.485  -0.562  -0.547  0.00  0.00     0.004 C 
BRANCH  23  24
ATOM     24  C2  <0> d          -0.077   0.021  -0.684  0.00  0.00    -0.004 C 
ATOM     25  C1  <0> d          -0.171   1.531  -0.912  0.00  0.00     0.005 C 
ENDBRANCH  23  24
ENDBRANCH   1  23
TORSDOF 6
