REMARK  4 active torsions:
REMARK  status: ('A' for Active; 'I' for Inactive)
REMARK    1  A    between atoms: C3_3  and  C5_6 
REMARK    2  A    between atoms: C5_6  and  N1_7 
REMARK    3  A    between atoms: N1_7  and  C6_8 
REMARK    4  A    between atoms: C9_14  and  O4_15 
ROOT
ATOM      1  C6  <0> d           5.497  -0.771  -1.172  0.00  0.00     0.263 C 
ATOM      2  C7  <0> d           5.615  -1.830  -0.040  0.00  0.00     0.178 C 
ATOM      3  S1  <0> d           7.345  -2.404  -0.335  0.00  0.00     0.149 S 
ATOM      4  O2  <0> d           7.440  -3.785  -0.013  0.00  0.00    -0.228 OA
ATOM      5  O3  <0> d           8.251  -1.482   0.255  0.00  0.00    -0.228 OA
ATOM      6  C8  <0> d           7.380  -2.205  -2.164  0.00  0.00     0.174 C 
ATOM      7  C9  <0> d           6.183  -1.276  -2.440  0.00  0.00     0.166 C 
ENDROOT
BRANCH   1   8
ATOM      8  N1  <0> d           4.078  -0.518  -1.454  0.00  0.00     0.094 N 
ATOM      9  H12 <0> d           3.542  -1.371  -1.407  0.00  0.00     0.316 HD
BRANCH   8  10
ATOM     10  C5  <0> d           3.533   0.497  -0.543  0.00  0.00     0.302 C 
BRANCH  10  11
ATOM     11  C3  <0> d           2.056   0.734  -0.867  0.00  0.00     0.149 C 
ATOM     12  C2  <0> d           1.494   1.890  -0.002  0.00  0.00     0.036 C 
ATOM     13  C1  <0> d          -0.019   1.540   0.011  0.00  0.00     0.029 C 
ATOM     14  C4  <0> d           0.002  -0.004   0.002  0.00  0.00     0.168 C 
ATOM     15  O1  <0> d           1.275  -0.417  -0.510  0.00  0.00    -0.384 OA
ENDBRANCH  10  11
ENDBRANCH   8  10
ENDBRANCH   1   8
BRANCH   7  16
ATOM     16  O4  <0> d           6.642  -0.150  -3.191  0.00  0.00    -0.392 OA
ATOM     17  H17 <0> d           7.091  -0.384  -4.015  0.00  0.00     0.210 HD
ENDBRANCH   7  16
TORSDOF 4
