REMARK  5 active torsions:
REMARK  status: ('A' for Active; 'I' for Inactive)
REMARK    1  A    between atoms: C4_4  and  N1_7 
REMARK    2  A    between atoms: C7_8  and  S1_12 
REMARK    3  A    between atoms: S1_12  and  C8_13 
REMARK    4  A    between atoms: C11_16  and  C14_19 
REMARK    5  A    between atoms: C14_19  and  N6_21 
ROOT
ATOM      1  C8  <0> d           0.005  -0.004   0.006  0.00  0.00     0.008 A 
ATOM      2  C9  <0> d          -0.106  -0.697  -1.196  0.00  0.00     0.020 A 
ATOM      3  C10 <0> d          -0.079  -2.073  -1.203  0.00  0.00     0.016 A 
ATOM      4  C11 <0> d           0.048  -2.775  -0.003  0.00  0.00     0.007 A 
ATOM      5  C12 <0> d           0.153  -2.077   1.203  0.00  0.00     0.016 A 
ATOM      6  C13 <0> d           0.132  -0.701   1.204  0.00  0.00     0.020 A 
ENDROOT
BRANCH   1   7
ATOM      7  S1  <0> d          -0.022   1.758   0.012  0.00  0.00    -0.049 SA
BRANCH   7   8
ATOM      8  C7  <0> d           1.708   2.090  -0.009  0.00  0.00     0.219 A 
ATOM      9  N1  <0> d           2.297   3.309   0.086  0.00  0.00    -0.188 N 
ATOM     10  N4  <0> d           3.678   3.058   0.022  0.00  0.00    -0.038 NA
ATOM     11  N3  <0> d           3.820   1.782  -0.098  0.00  0.00    -0.022 NA
ATOM     12  N2  <0> d           2.674   1.203  -0.112  0.00  0.00    -0.101 NA
BRANCH   9  13
ATOM     13  C4  <0> d           1.663   4.553   0.217  0.00  0.00     0.062 A 
ATOM     14  C3  <0> d           2.246   5.553   0.984  0.00  0.00     0.032 A 
ATOM     15  C2  <0> d           1.619   6.777   1.112  0.00  0.00     0.002 A 
ATOM     16  C1  <0> d           0.412   7.007   0.477  0.00  0.00     0.000 A 
ATOM     17  C6  <0> d          -0.171   6.013  -0.287  0.00  0.00     0.002 A 
ATOM     18  C5  <0> d           0.454   4.789  -0.423  0.00  0.00     0.032 A 
ENDBRANCH   9  13
ENDBRANCH   7   8
ENDBRANCH   1   7
BRANCH   4  19
ATOM     19  C14 <0> d           0.071  -4.253  -0.007  0.00  0.00     0.102 C 
ATOM     20  N5  <0> d           0.190  -4.907   1.114  0.00  0.00    -0.385 N 
ATOM     21  H10 <0> d           0.207  -6.006   1.111  0.00  0.00     0.157 HD
ATOM     22  H13 <0> d           0.273  -4.358   2.064  0.00  0.00     0.157 HD
BRANCH  19  23
ATOM     23  N6  <0> d          -0.033  -4.940  -1.198  0.00  0.00    -0.385 N 
ATOM     24  H11 <0> d          -0.016  -6.040  -1.201  0.00  0.00     0.157 HD
ATOM     25  H12 <0> d          -0.134  -4.389  -2.144  0.00  0.00     0.157 HD
ENDBRANCH  19  23
ENDBRANCH   4  19
TORSDOF 5
