REMARK  4 active torsions:
REMARK  status: ('A' for Active; 'I' for Inactive)
REMARK    1  A    between atoms: C8_10  and  C9_12 
REMARK    2  A    between atoms: C12_15  and  O2_18 
REMARK    3  A    between atoms: O2_18  and  C15_19 
REMARK    4  A    between atoms: C18_22  and  C20_25 
ROOT
ATOM      1  C9  <0> d           3.646  -1.782  -2.192  0.00  0.00    -0.016 A 
ATOM      2  C10 <0> d           3.992  -0.559  -2.735  0.00  0.00     0.014 A 
ATOM      3  C11 <0> d           3.993  -0.385  -4.105  0.00  0.00     0.038 A 
ATOM      4  C12 <0> d           3.645  -1.439  -4.937  0.00  0.00     0.078 A 
ATOM      5  C13 <0> d           3.298  -2.666  -4.390  0.00  0.00     0.038 A 
ATOM      6  C14 <0> d           3.304  -2.837  -3.019  0.00  0.00     0.014 A 
ENDROOT
BRANCH   1   7
ATOM      7  C8  <0> d           3.647  -1.969  -0.697  0.00  0.00     0.219 C 
ATOM      8  N1  <0> d           2.645  -2.971  -0.334  0.00  0.00    -0.332 N 
ATOM      9  C7  <0> d           1.368  -2.621  -0.073  0.00  0.00     0.255 C 
ATOM     10  H6  <0> d           2.903  -3.905  -0.279  0.00  0.00     0.165 HD
ATOM     11  C5  <0> d           0.998  -1.194  -0.076  0.00  0.00     0.058 A 
ATOM     12  O1  <0> d           0.532  -3.473   0.162  0.00  0.00    -0.268 OA
ATOM     13  C4  <0> d           2.027  -0.236  -0.058  0.00  0.00     0.045 A 
ATOM     14  C6  <0> d          -0.332  -0.782  -0.092  0.00  0.00     0.019 A 
ATOM     15  C3  <0> d           1.715   1.113  -0.051  0.00  0.00     0.030 A 
ATOM     16  N2  <0> d           3.342  -0.687  -0.050  0.00  0.00    -0.364 N 
ATOM     17  C2  <0> d           0.391   1.508  -0.065  0.00  0.00     0.002 A 
ATOM     18  C1  <0> d          -0.626   0.566  -0.087  0.00  0.00     0.001 A 
ATOM     19  H7  <0> d           4.042  -0.167   0.374  0.00  0.00     0.162 HD
ENDBRANCH   1   7
BRANCH   4  20
ATOM     20  O2  <0> d           3.644  -1.270  -6.286  0.00  0.00    -0.291 OA
BRANCH  20  21
ATOM     21  C15 <0> d           4.840  -1.263  -6.928  0.00  0.00     0.191 A 
ATOM     22  N3  <0> d           5.948  -1.514  -6.251  0.00  0.00    -0.234 NA
ATOM     23  C19 <0> d           7.130  -1.521  -6.837  0.00  0.00     0.135 A 
ATOM     24  C18 <0> d           7.254  -1.254  -8.186  0.00  0.00     0.067 A 
ATOM     25  C17 <0> d           6.115  -0.980  -8.931  0.00  0.00     0.046 A 
ATOM     26  C16 <0> d           4.889  -0.985  -8.289  0.00  0.00     0.088 A 
ATOM     27 Cl1  <0> d           3.432  -0.650  -9.172  0.00  0.00    -0.080 Cl
BRANCH  24  28
ATOM     28  C20 <0> d           8.611  -1.261  -8.842  0.00  0.00     0.418 C 
ATOM     29  F1  <0> d           9.165   0.022  -8.779  0.00  0.00    -0.166 F 
ATOM     30  F2  <0> d           9.447  -2.163  -8.176  0.00  0.00    -0.166 F 
ATOM     31  F3  <0> d           8.479  -1.647 -10.181  0.00  0.00    -0.166 F 
ENDBRANCH  24  28
ENDBRANCH  20  21
ENDBRANCH   4  20
TORSDOF 4
