REMARK  6 active torsions:
REMARK  status: ('A' for Active; 'I' for Inactive)
REMARK    1  A    between atoms: C3_4  and  C6_11 
REMARK    2  A    between atoms: C6_11  and  C7_13 
REMARK    3  A    between atoms: C7_13  and  S1_14 
REMARK    4  A    between atoms: S1_14  and  C8_15 
REMARK    5  A    between atoms: N4_25  and  C16_26 
REMARK    6  A    between atoms: C16_26  and  C17_27 
ROOT
ATOM      1  C7  <0> d          -2.572  -4.105   0.134  0.00  0.00     0.166 C 
ENDROOT
BRANCH   1   2
ATOM      2  C6  <0> d          -2.480  -2.605   0.022  0.00  0.00     0.178 C 
ATOM      3  O3  <0> d          -3.493  -1.938  -0.055  0.00  0.00    -0.291 OA
BRANCH   2   4
ATOM      4  C3  <0> d          -1.218  -1.975   0.008  0.00  0.00     0.122 A 
ATOM      5  C2  <0> d          -1.106  -0.574   0.028  0.00  0.00     0.124 A 
ATOM      6  N1  <0> d           0.138  -0.010   0.013  0.00  0.00    -0.289 N 
ATOM      7  N5  <0> d          -2.219   0.208   0.062  0.00  0.00    -0.384 N 
ATOM      8  C1  <0> d           0.265   1.450   0.033  0.00  0.00     0.163 C 
ATOM      9  C5  <0> d           1.246  -0.766  -0.025  0.00  0.00     0.330 A 
ATOM     10  N2  <0> d           1.202  -2.108  -0.040  0.00  0.00    -0.274 N 
ATOM     11  O2  <0> d           2.330  -0.216  -0.042  0.00  0.00    -0.246 OA
ATOM     12  C4  <0> d           0.022  -2.762  -0.028  0.00  0.00     0.267 A 
ATOM     13  H1  <0> d           2.029  -2.614  -0.064  0.00  0.00     0.173 HD
ATOM     14  O1  <0> d          -0.015  -3.978  -0.047  0.00  0.00    -0.267 OA
ATOM     15  H16 <0> d          -2.134   1.170   0.156  0.00  0.00     0.157 HD
ATOM     16  H17 <0> d          -3.098  -0.196  -0.009  0.00  0.00     0.157 HD
ENDBRANCH   2   4
ENDBRANCH   1   2
BRANCH   1  17
ATOM     17  S1  <0> d          -4.316  -4.606   0.126  0.00  0.00    -0.084 SA
BRANCH  17  18
ATOM     18  C8  <0> d          -4.255  -6.362   0.262  0.00  0.00     0.172 A 
ATOM     19  N4  <0> d          -5.433  -7.054   0.283  0.00  0.00    -0.289 N 
ATOM     20  C15 <0> d          -5.433  -8.404   0.380  0.00  0.00     0.262 A 
ATOM     21  C14 <0> d          -4.131  -9.078   0.472  0.00  0.00     0.061 A 
ATOM     22  O4  <0> d          -6.473  -9.036   0.396  0.00  0.00    -0.267 OA
ATOM     23  C9  <0> d          -2.963  -8.281   0.448  0.00  0.00     0.075 A 
ATOM     24  C13 <0> d          -4.024 -10.463   0.580  0.00  0.00     0.019 A 
ATOM     25  N3  <0> d          -3.083  -6.942   0.342  0.00  0.00    -0.224 NA
ATOM     26  C10 <0> d          -1.713  -8.900   0.534  0.00  0.00     0.032 A 
ATOM     27  C11 <0> d          -1.638 -10.260   0.640  0.00  0.00     0.002 A 
ATOM     28  C12 <0> d          -2.787 -11.040   0.663  0.00  0.00     0.001 A 
BRANCH  19  29
ATOM     29  C16 <0> d          -6.703  -6.330   0.195  0.00  0.00     0.161 C 
BRANCH  29  30
ATOM     30  C17 <0> d          -7.102  -6.190  -1.252  0.00  0.00    -0.017 C 
ATOM     31  C18 <0> d          -8.275  -6.614  -1.652  0.00  0.00     0.008 C 
ENDBRANCH  29  30
ENDBRANCH  19  29
ENDBRANCH  17  18
ENDBRANCH   1  17
TORSDOF 6
