REMARK  5 active torsions:
REMARK  status: ('A' for Active; 'I' for Inactive)
REMARK    1  A    between atoms: C5_5  and  C6_7 
REMARK    2  A    between atoms: C6_7  and  N1_8 
REMARK       I    between atoms: N1_8  and  C7_9 
REMARK    3  A    between atoms: C7_9  and  C8_11 
REMARK    4  A    between atoms: C13_16  and  N2_17 
REMARK       I    between atoms: N2_17  and  C14_18 
REMARK    5  A    between atoms: C14_18  and  C15_20 
ROOT
ATOM      1  C8  <0> d           2.475   5.428   3.034  0.00  0.00     0.058 A 
ATOM      2  C9  <0> d           2.096   4.607   4.098  0.00  0.00     0.019 A 
ATOM      3  C10 <0> d           2.258   5.044   5.395  0.00  0.00     0.001 A 
ATOM      4  C11 <0> d           2.786   6.299   5.650  0.00  0.00     0.002 A 
ATOM      5  C12 <0> d           3.161   7.124   4.609  0.00  0.00     0.030 A 
ATOM      6  C13 <0> d           3.010   6.699   3.295  0.00  0.00     0.050 A 
ENDROOT
BRANCH   1   7
ATOM      7  C7  <0> d           2.310   4.964   1.644  0.00  0.00     0.254 C 
ATOM      8  N1  <0> d           1.891   3.707   1.398  0.00  0.00    -0.351 N 
ATOM      9  H8  <0> d           1.698   3.107   2.136  0.00  0.00     0.163 HD
ATOM     10  O2  <0> d           2.552   5.716   0.719  0.00  0.00    -0.268 OA
BRANCH   8  11
ATOM     11  C6  <0> d           1.726   3.246   0.017  0.00  0.00     0.187 C 
BRANCH  11  12
ATOM     12  C5  <0> d           1.252   1.816   0.018  0.00  0.00     0.071 A 
ATOM     13  C4  <0> d          -0.032   1.413   0.027  0.00  0.00     0.037 A 
ATOM     14  C3  <0> d          -0.017  -0.001   0.025  0.00  0.00     0.035 A 
ATOM     15  C2  <0> d           1.274  -0.378   0.014  0.00  0.00     0.049 A 
ATOM     16  C1  <0> d           1.779  -1.798   0.008  0.00  0.00     0.076 C 
ATOM     17  O1  <0> d           2.038   0.727   0.010  0.00  0.00    -0.318 OA
ENDBRANCH  11  12
ENDBRANCH   8  11
ENDBRANCH   1   7
BRANCH   6  18
ATOM     18  N2  <0> d           3.386   7.529   2.244  0.00  0.00    -0.320 N 
ATOM     19  C14 <0> d           4.454   8.340   2.374  0.00  0.00     0.280 C 
ATOM     20  O3  <0> d           5.147   8.278   3.374  0.00  0.00    -0.265 OA
ATOM     21  H13 <0> d           2.879   7.523   1.416  0.00  0.00     0.169 HD
BRANCH  19  22
ATOM     22  C15 <0> d           4.770   9.265   1.350  0.00  0.00     0.143 C 
ATOM     23  O4  <0> d           5.782  10.123   1.590  0.00  0.00    -0.345 OA
ATOM     24  C18 <0> d           6.426  10.793   0.508  0.00  0.00     0.186 C 
ATOM     25  C17 <0> d           5.361  11.529  -0.318  0.00  0.00     0.105 C 
ATOM     26  S1  <0> d           4.328  10.281  -1.133  0.00  0.00    -0.136 SA
ATOM     27  C16 <0> d           4.033   9.211   0.235  0.00  0.00     0.087 C 
ENDBRANCH  19  22
ENDBRANCH   6  18
TORSDOF 5
