REMARK  6 active torsions:
REMARK  status: ('A' for Active; 'I' for Inactive)
REMARK    1  A    between atoms: C2_2  and  C3_3 
REMARK    2  A    between atoms: C3_3  and  C4_4 
REMARK    3  A    between atoms: C3_3  and  N1_18 
REMARK    4  A    between atoms: C4_4  and  C5_5 
REMARK    5  A    between atoms: C4_4  and  S1_12 
REMARK    6  A    between atoms: S1_12  and  C11_13 
ROOT
ATOM      1  C4  <0> d          -1.522  -2.092  -0.037  0.00  0.00     0.117 C 
ENDROOT
BRANCH   1   2
ATOM      2  C3  <0> d          -1.282  -0.581  -0.029  0.00  0.00     0.201 C 
BRANCH   2   3
ATOM      3  C2  <0> d          -1.838   0.031  -1.316  0.00  0.00     0.030 C 
ATOM      4  C1  <0> d          -1.717   1.555  -1.250  0.00  0.00     0.007 C 
ENDBRANCH   2   3
BRANCH   2   5
ATOM      5  N1  <0> d           0.161  -0.315   0.056  0.00  0.00    -0.074 N 
ATOM      6  H15 <0> d           0.626  -0.725  -0.740  0.00  0.00     0.274 HD
ATOM      7  H16 <0> d           0.319   0.682   0.061  0.00  0.00     0.274 HD
ATOM      8  H17 <0> d           0.528  -0.719   0.904  0.00  0.00     0.274 HD
ENDBRANCH   2   5
ENDBRANCH   1   2
BRANCH   1   9
ATOM      9  C5  <0> d          -3.004  -2.364  -0.030  0.00  0.00    -0.025 A 
ATOM     10  C10 <0> d          -3.689  -2.497  -1.224  0.00  0.00     0.018 A 
ATOM     11  C9  <0> d          -5.049  -2.752  -1.217  0.00  0.00     0.019 A 
ATOM     12 Br1  <0> d          -2.765  -2.336  -2.867  0.00  0.00    -0.051 Br
ATOM     13  C8  <0> d          -5.724  -2.864  -0.017  0.00  0.00     0.001 A 
ATOM     14  C7  <0> d          -5.040  -2.727   1.177  0.00  0.00     0.001 A 
ATOM     15  C6  <0> d          -3.681  -2.477   1.170  0.00  0.00     0.010 A 
ENDBRANCH   1   9
BRANCH   1  16
ATOM     16  S1  <0> d          -0.764  -2.833   1.435  0.00  0.00    -0.111 SA
BRANCH  16  17
ATOM     17  C11 <0> d          -0.920  -4.567   1.167  0.00  0.00     0.041 A 
ATOM     18  S2  <0> d          -1.532  -5.433  -0.269  0.00  0.00    -0.095 SA
ATOM     19  C14 <0> d          -1.328  -7.101   0.334  0.00  0.00     0.051 A 
ATOM     20  C13 <0> d          -0.822  -6.894   1.573  0.00  0.00     0.009 A 
ATOM     21  C12 <0> d          -0.611  -5.596   2.006  0.00  0.00     0.026 A 
ENDBRANCH  16  17
ENDBRANCH   1  16
TORSDOF 6
