REMARK  3 active torsions:
REMARK  status: ('A' for Active; 'I' for Inactive)
REMARK    1  A    between atoms: N1_2  and  C3_4 
REMARK    2  A    between atoms: C4_5  and  N2_11 
REMARK       I    between atoms: N2_11  and  C9_12 
REMARK    3  A    between atoms: C9_12  and  C10_14 
ROOT
ATOM      1  N2  <0> d          -1.185  -0.726   2.432  0.00  0.00    -0.323 N 
ATOM      2  C9  <0> d          -1.945  -0.405   3.498  0.00  0.00     0.245 C 
ATOM      3  O1  <0> d          -3.152  -0.510   3.437  0.00  0.00    -0.271 OA
ATOM      4  H10 <0> d          -0.218  -0.703   2.502  0.00  0.00     0.169 HD
ENDROOT
BRANCH   1   5
ATOM      5  C4  <0> d          -1.793  -1.091   1.223  0.00  0.00     0.063 A 
ATOM      6  C3  <0> d          -1.202  -0.740   0.010  0.00  0.00     0.078 A 
ATOM      7  C8  <0> d          -1.812  -1.100  -1.184  0.00  0.00     0.062 A 
ATOM      8  C7  <0> d          -2.996  -1.816  -1.167  0.00  0.00     0.026 A 
ATOM      9 Cl1  <0> d          -1.085  -0.660  -2.698  0.00  0.00    -0.082 Cl
ATOM     10  C6  <0> d          -3.581  -2.163   0.037  0.00  0.00     0.004 A 
ATOM     11  C5  <0> d          -2.983  -1.802   1.230  0.00  0.00     0.032 A 
BRANCH   6  12
ATOM     12  N1  <0> d          -0.001  -0.021  -0.004  0.00  0.00    -0.386 N 
ATOM     13  C1  <0> d          -0.024   1.444  -0.008  0.00  0.00     0.149 C 
ATOM     14  C2  <0> d           1.279  -0.734  -0.016  0.00  0.00     0.149 C 
ENDBRANCH   6  12
ENDBRANCH   1   5
BRANCH   2  15
ATOM     15  C10 <0> d          -1.295   0.084   4.767  0.00  0.00     0.177 C 
ATOM     16  N3  <0> d          -2.222  -0.050   5.897  0.00  0.00    -0.348 N 
ATOM     17  C13 <0> d          -2.209   1.049   6.672  0.00  0.00     0.218 C 
ATOM     18  H16 <0> d          -2.773  -0.830   6.063  0.00  0.00     0.163 HD
ATOM     19  C12 <0> d          -1.243   2.069   6.112  0.00  0.00     0.105 C 
ATOM     20  O2  <0> d          -2.875   1.200   7.674  0.00  0.00    -0.274 OA
ATOM     21  C11 <0> d          -0.988   1.595   4.662  0.00  0.00     0.044 C 
ENDBRANCH   2  15
TORSDOF 3
