REMARK  3 active torsions:
REMARK  status: ('A' for Active; 'I' for Inactive)
REMARK    1  A    between atoms: S1_2  and  N1_5 
REMARK    2  A    between atoms: C2_6  and  C3_8 
REMARK    3  A    between atoms: C3_8  and  N2_9 
ROOT
ATOM      1  N2  <0> d           2.088  -0.805  -3.677  0.00  0.00    -0.306 N 
ATOM      2  C4  <0> d           1.224  -0.220  -4.614  0.00  0.00     0.071 A 
ATOM      3  C5  <0> d          -0.115  -0.575  -4.659  0.00  0.00     0.034 A 
ATOM      4  C6  <0> d          -0.951   0.013  -5.591  0.00  0.00     0.021 A 
ATOM      5  C7  <0> d          -0.454   0.952  -6.476  0.00  0.00     0.013 A 
ATOM      6  C8  <0> d           0.882   1.311  -6.435  0.00  0.00     0.058 A 
ATOM      7  C9  <0> d           1.724   0.727  -5.505  0.00  0.00     0.097 A 
ATOM      8  O4  <0> d           3.039   1.070  -5.448  0.00  0.00    -0.340 OA
ATOM      9  C10 <0> d           3.654   1.048  -4.158  0.00  0.00     0.279 C 
ATOM     10  C11 <0> d           3.284  -0.224  -3.439  0.00  0.00     0.249 C 
ATOM     11  O5  <0> d           4.059  -0.726  -2.652  0.00  0.00    -0.271 OA
ATOM     12 Br1  <0> d          -1.605   1.749  -7.748  0.00  0.00    -0.051 Br
ENDROOT
BRANCH   1  13
ATOM     13  C3  <0> d           1.698  -2.024  -2.964  0.00  0.00     0.222 C 
BRANCH  13  14
ATOM     14  C2  <0> d           0.977  -1.653  -1.694  0.00  0.00     0.206 C 
ATOM     15  N1  <0> d           0.795  -0.411  -1.394  0.00  0.00    -0.139 NA
ATOM     16  O3  <0> d           0.522  -2.620  -0.870  0.00  0.00    -0.172 OA
BRANCH  15  17
ATOM     17  S1  <0> d           0.002  -0.004   0.002  0.00  0.00     0.249 S 
ATOM     18  C1  <0> d          -0.022   1.810   0.012  0.00  0.00     0.188 C 
ATOM     19  O1  <0> d           0.835  -0.488   1.046  0.00  0.00    -0.204 OA
ATOM     20  O2  <0> d          -1.315  -0.510  -0.168  0.00  0.00    -0.204 OA
ENDBRANCH  15  17
ENDBRANCH  13  14
ENDBRANCH   1  13
TORSDOF 3
