REMARK  4 active torsions:
REMARK  status: ('A' for Active; 'I' for Inactive)
REMARK    1  A    between atoms: C2_2  and  C3_3 
REMARK    2  A    between atoms: C2_2  and  S2_16 
REMARK       I    between atoms: C3_3  and  N1_5 
REMARK    3  A    between atoms: N1_5  and  C4_6 
REMARK    4  A    between atoms: C5_9  and  C6_11 
ROOT
ATOM      1  C4  <0> d           2.701  -1.049  -2.393  0.00  0.00     0.196 A 
ATOM      2  N2  <0> d           2.205  -1.411  -3.569  0.00  0.00    -0.123 NA
ATOM      3  N3  <0> d           2.944  -1.799  -4.514  0.00  0.00    -0.138 NA
ATOM      4  C5  <0> d           4.266  -1.867  -4.387  0.00  0.00     0.157 A 
ATOM      5  S1  <0> d           4.448  -1.294  -2.701  0.00  0.00    -0.026 SA
ENDROOT
BRANCH   1   6
ATOM      6  N1  <0> d           2.051  -0.601  -1.250  0.00  0.00    -0.303 N 
ATOM      7  C3  <0> d           0.707  -0.490  -1.238  0.00  0.00     0.241 C 
ATOM      8  O1  <0> d           0.066  -0.782  -2.225  0.00  0.00    -0.272 OA
ATOM      9  H5  <0> d           2.563  -0.367  -0.460  0.00  0.00     0.171 HD
BRANCH   7  10
ATOM     10  C2  <0> d           0.002  -0.004   0.002  0.00  0.00     0.196 C 
ATOM     11  C1  <0> d          -0.019   1.526   0.010  0.00  0.00     0.036 C 
BRANCH  10  12
ATOM     12  S2  <0> d          -1.700  -0.632   0.015  0.00  0.00     0.153 S 
ATOM     13  O3  <0> d          -2.368  -0.143  -1.140  0.00  0.00    -0.227 OA
ATOM     14  O4  <0> d          -1.660  -2.033   0.249  0.00  0.00    -0.227 OA
ATOM     15  C10 <0> d          -2.413   0.174   1.475  0.00  0.00     0.162 C 
ENDBRANCH  10  12
ENDBRANCH   7  10
ENDBRANCH   1   6
BRANCH   4  16
ATOM     16  C6  <0> d           5.288  -2.288  -5.358  0.00  0.00     0.112 A 
ATOM     17  O2  <0> d           6.618  -2.325  -5.140  0.00  0.00    -0.320 OA
ATOM     18  C9  <0> d           7.239  -2.763  -6.248  0.00  0.00     0.142 A 
ATOM     19  C8  <0> d           6.312  -3.004  -7.197  0.00  0.00     0.027 A 
ATOM     20  C7  <0> d           5.057  -2.702  -6.635  0.00  0.00     0.042 A 
ENDBRANCH   4  16
TORSDOF 4
