REMARK  9 active torsions:
REMARK  status: ('A' for Active; 'I' for Inactive)
REMARK    1  A    between atoms: N1_2  and  C3_4 
REMARK    2  A    between atoms: C3_4  and  C4_5 
REMARK    3  A    between atoms: C4_5  and  C5_6 
REMARK    4  A    between atoms: C5_6  and  C6_7 
REMARK    5  A    between atoms: C6_7  and  N2_8 
REMARK       I    between atoms: N2_8  and  C7_9 
REMARK    6  A    between atoms: C7_9  and  C8_11 
REMARK       I    between atoms: N3_13  and  C16_21 
REMARK    7  A    between atoms: C16_21  and  C17_23 
REMARK    8  A    between atoms: C17_23  and  C18_24 
REMARK    9  A    between atoms: C18_24  and  C19_25 
ROOT
ATOM      1  C8  <0> d          -7.816  -1.031  -3.602  0.00  0.00     0.106 C 
ATOM      2  C9  <0> d          -7.821  -2.574  -3.685  0.00  0.00     0.140 C 
ATOM      3  N3  <0> d          -8.985  -2.899  -4.542  0.00  0.00    -0.351 N 
ATOM      4  C10 <0> d          -8.967  -1.858  -5.598  0.00  0.00     0.136 C 
ATOM      5  C11 <0> d          -8.569  -0.565  -4.860  0.00  0.00    -0.007 C 
ATOM      6  C12 <0> d          -7.654   0.283  -5.738  0.00  0.00     0.039 C 
ATOM      7  C13 <0> d          -8.441   0.783  -6.953  0.00  0.00     0.233 C 
ATOM      8  N4  <0> d          -9.592   1.575  -6.502  0.00  0.00    -0.075 N 
ATOM      9  C14 <0> d         -10.513   0.727  -5.735  0.00  0.00     0.233 C 
ATOM     10  C15 <0> d          -9.814   0.225  -4.469  0.00  0.00     0.039 C 
ATOM     11  C16 <0> d          -9.863  -3.911  -4.395  0.00  0.00     0.219 C 
ATOM     12  O2  <0> d         -10.771  -4.047  -5.188  0.00  0.00    -0.273 OA
ATOM     13  H25 <0> d          -9.269   2.332  -5.918  0.00  0.00     0.277 HD
ATOM     14  H43 <0> d         -10.073   1.953  -7.303  0.00  0.00     0.277 HD
ENDROOT
BRANCH   1  15
ATOM     15  C7  <0> d          -6.403  -0.509  -3.612  0.00  0.00     0.224 C 
ATOM     16  N2  <0> d          -6.109   0.655  -2.999  0.00  0.00    -0.361 N 
ATOM     17  H16 <0> d          -6.808   1.157  -2.551  0.00  0.00     0.162 HD
ATOM     18  O1  <0> d          -5.529  -1.137  -4.172  0.00  0.00    -0.273 OA
BRANCH  16  19
ATOM     19  C6  <0> d          -4.735   1.162  -3.010  0.00  0.00     0.122 C 
BRANCH  19  20
ATOM     20  C5  <0> d          -4.675   2.489  -2.250  0.00  0.00     0.021 C 
BRANCH  20  21
ATOM     21  C4  <0> d          -3.240   3.018  -2.261  0.00  0.00     0.029 C 
BRANCH  21  22
ATOM     22  C3  <0> d          -3.180   4.345  -1.501  0.00  0.00     0.234 C 
BRANCH  22  23
ATOM     23  N1  <0> d          -1.802   4.853  -1.512  0.00  0.00    -0.079 N 
ATOM     24  C1  <0> d          -1.409   5.177  -2.890  0.00  0.00     0.269 C 
ATOM     25  C2  <0> d          -1.720   6.063  -0.683  0.00  0.00     0.269 C 
ATOM     26  H44 <0> d          -1.181   4.149  -1.142  0.00  0.00     0.278 HD
ENDBRANCH  22  23
ENDBRANCH  21  22
ENDBRANCH  20  21
ENDBRANCH  19  20
ENDBRANCH  16  19
ENDBRANCH   1  15
BRANCH  11  27
ATOM     27  C17 <0> d          -9.715  -4.875  -3.246  0.00  0.00     0.103 C 
BRANCH  27  28
ATOM     28  C18 <0> d         -10.831  -5.920  -3.311  0.00  0.00     0.014 C 
BRANCH  28  29
ATOM     29  C19 <0> d         -10.681  -6.899  -2.144  0.00  0.00    -0.014 C 
ATOM     30  C23 <0> d         -11.866  -7.880  -2.124  0.00  0.00     0.004 C 
ATOM     31  C22 <0> d         -11.272  -9.293  -2.297  0.00  0.00     0.000 C 
ATOM     32  C21 <0> d          -9.809  -9.152  -1.808  0.00  0.00     0.000 C 
ATOM     33  C20 <0> d          -9.408  -7.750  -2.329  0.00  0.00     0.004 C 
ENDBRANCH  28  29
ENDBRANCH  27  28
ENDBRANCH  11  27
TORSDOF 9
