REMARK  9 active torsions:
REMARK  status: ('A' for Active; 'I' for Inactive)
REMARK    1  A    between atoms: C2_2  and  C3_3 
REMARK    2  A    between atoms: C3_3  and  C4_4 
REMARK       I    between atoms: C4_4  and  N1_6 
REMARK    3  A    between atoms: N1_6  and  C5_7 
REMARK    4  A    between atoms: C5_7  and  C6_8 
REMARK       I    between atoms: C6_8  and  N2_10 
REMARK    5  A    between atoms: N2_10  and  C7_11 
REMARK    6  A    between atoms: C10_14  and  N3_17 
REMARK    7  A    between atoms: N3_17  and  S1_18 
REMARK    8  A    between atoms: S1_18  and  C13_21 
REMARK    9  A    between atoms: C13_21  and  C14_22 
ROOT
ATOM      1  C7  <0> d          -5.524  -6.477  -0.070  0.00  0.00     0.034 A 
ATOM      2  C8  <0> d          -6.551  -5.547  -0.157  0.00  0.00     0.032 A 
ATOM      3  C9  <0> d          -7.862  -5.972  -0.236  0.00  0.00     0.034 A 
ATOM      4  C10 <0> d          -8.154  -7.330  -0.230  0.00  0.00     0.069 A 
ATOM      5  C11 <0> d          -7.126  -8.260  -0.143  0.00  0.00     0.034 A 
ATOM      6  C12 <0> d          -5.814  -7.834  -0.069  0.00  0.00     0.032 A 
ENDROOT
BRANCH   1   7
ATOM      7  N2  <0> d          -4.193  -6.045   0.010  0.00  0.00    -0.326 N 
ATOM      8  C6  <0> d          -3.217  -6.756  -0.589  0.00  0.00     0.239 C 
ATOM      9  O2  <0> d          -3.477  -7.812  -1.125  0.00  0.00    -0.271 OA
ATOM     10  H11 <0> d          -3.974  -5.234   0.496  0.00  0.00     0.169 HD
BRANCH   8  11
ATOM     11  C5  <0> d          -1.801  -6.238  -0.592  0.00  0.00     0.225 C 
BRANCH  11  12
ATOM     12  N1  <0> d          -0.936  -7.186  -1.299  0.00  0.00    -0.352 N 
ATOM     13  C4  <0> d           0.380  -6.929  -1.428  0.00  0.00     0.217 C 
ATOM     14  O1  <0> d           0.849  -5.914  -0.958  0.00  0.00    -0.274 OA
ATOM     15  H8  <0> d          -1.312  -7.998  -1.675  0.00  0.00     0.162 HD
BRANCH  13  16
ATOM     16  C3  <0> d           1.270  -7.904  -2.156  0.00  0.00     0.102 C 
BRANCH  16  17
ATOM     17  C2  <0> d           2.707  -7.379  -2.159  0.00  0.00     0.005 C 
ATOM     18  C1  <0> d           3.610  -8.368  -2.898  0.00  0.00     0.005 C 
ENDBRANCH  16  17
ENDBRANCH  13  16
ENDBRANCH  11  12
ENDBRANCH   8  11
ENDBRANCH   1   7
BRANCH   4  19
ATOM     19  N3  <0> d          -9.482  -7.761  -0.309  0.00  0.00    -0.165 NA
BRANCH  19  20
ATOM     20  S1  <0> d          -9.829  -9.380  -0.301  0.00  0.00     0.251 S 
ATOM     21  O3  <0> d          -9.236  -9.884  -1.490  0.00  0.00    -0.204 OA
ATOM     22  O4  <0> d          -9.399  -9.837   0.974  0.00  0.00    -0.204 OA
BRANCH  20  23
ATOM     23  C13 <0> d         -11.637  -9.470  -0.420  0.00  0.00     0.165 C 
BRANCH  23  24
ATOM     24  C14 <0> d         -12.076 -10.935  -0.421  0.00  0.00     0.012 C 
ATOM     25  C15 <0> d         -13.601 -11.011  -0.520  0.00  0.00     0.006 C 
ENDBRANCH  23  24
ENDBRANCH  20  23
ENDBRANCH  19  20
ENDBRANCH   4  19
TORSDOF 9
