REMARK  5 active torsions:
REMARK  status: ('A' for Active; 'I' for Inactive)
REMARK    1  A    between atoms: C2_2  and  C4_4 
REMARK    2  A    between atoms: C7_7  and  C10_12 
REMARK       I    between atoms: C10_12  and  N1_14 
REMARK    3  A    between atoms: N1_14  and  C11_15 
REMARK    4  A    between atoms: C14_18  and  N2_21 
REMARK       I    between atoms: N2_21  and  C17_22 
REMARK    5  A    between atoms: C17_22  and  C18_24 
ROOT
ATOM      1  C11 <0> d           6.080  -3.348   0.395  0.00  0.00     0.034 A 
ATOM      2  C12 <0> d           5.377  -4.135   1.298  0.00  0.00     0.032 A 
ATOM      3  C13 <0> d           6.029  -4.700   2.375  0.00  0.00     0.032 A 
ATOM      4  C14 <0> d           7.389  -4.481   2.556  0.00  0.00     0.034 A 
ATOM      5  C15 <0> d           8.092  -3.694   1.654  0.00  0.00     0.032 A 
ATOM      6  C16 <0> d           7.440  -3.133   0.573  0.00  0.00     0.032 A 
ENDROOT
BRANCH   1   7
ATOM      7  N1  <0> d           5.418  -2.774  -0.698  0.00  0.00    -0.326 N 
ATOM      8  C10 <0> d           6.063  -2.618  -1.870  0.00  0.00     0.234 C 
ATOM      9  O3  <0> d           7.187  -3.054  -2.007  0.00  0.00    -0.272 OA
ATOM     10  H12 <0> d           4.494  -2.490  -0.611  0.00  0.00     0.169 HD
BRANCH   8  11
ATOM     11  C7  <0> d           5.389  -1.901  -3.012  0.00  0.00     0.156 C 
ATOM     12  C6  <0> d           6.329  -1.857  -4.221  0.00  0.00     0.023 C 
ATOM     13  C5  <0> d           6.646  -3.280  -4.684  0.00  0.00     0.019 C 
ATOM     14  C4  <0> d           5.382  -3.940  -5.243  0.00  0.00     0.028 C 
ATOM     15  C28 <0> d           4.883  -3.153  -6.457  0.00  0.00     0.024 C 
ATOM     16  C9  <0> d           4.322  -3.933  -4.160  0.00  0.00     0.204 C 
ATOM     17  C8  <0> d           4.132  -2.646  -3.413  0.00  0.00     0.208 C 
ATOM     18  O2  <0> d           3.663  -4.915  -3.910  0.00  0.00    -0.288 OA
ATOM     19  O1  <0> d           3.032  -2.225  -3.144  0.00  0.00    -0.288 OA
BRANCH  14  20
ATOM     20  C2  <0> d           5.691  -5.381  -5.654  0.00  0.00    -0.007 C 
ATOM     21  C1  <0> d           6.701  -5.378  -6.803  0.00  0.00     0.011 C 
ATOM     22  C3  <0> d           6.279  -6.136  -4.460  0.00  0.00     0.011 C 
ENDBRANCH  14  20
ENDBRANCH   8  11
ENDBRANCH   1   7
BRANCH   4  23
ATOM     23  N2  <0> d           8.051  -5.054   3.650  0.00  0.00    -0.326 N 
ATOM     24  C17 <0> d           9.079  -4.405   4.231  0.00  0.00     0.239 C 
ATOM     25  O4  <0> d           9.370  -3.284   3.870  0.00  0.00    -0.272 OA
ATOM     26  H17 <0> d           7.769  -5.918   3.988  0.00  0.00     0.169 HD
BRANCH  24  27
ATOM     27  C18 <0> d           9.867  -5.071   5.329  0.00  0.00     0.117 C 
ATOM     28  C22 <0> d          11.045  -4.236   5.945  0.00  0.00    -0.009 C 
ATOM     29  C21 <0> d          11.479  -5.334   6.981  0.00  0.00     0.033 C 
ATOM     30  C23 <0> d          12.152  -3.962   4.925  0.00  0.00     0.018 C 
ATOM     31  C24 <0> d          10.554  -2.950   6.613  0.00  0.00     0.018 C 
ATOM     32  C20 <0> d          11.689  -6.556   6.035  0.00  0.00     0.020 C 
ATOM     33  C25 <0> d          10.135  -5.611   7.670  0.00  0.00     0.205 C 
ATOM     34  C27 <0> d          12.657  -4.980   7.891  0.00  0.00     0.025 C 
ATOM     35  C19 <0> d          10.616  -6.381   4.936  0.00  0.00     0.029 C 
ATOM     36  O5  <0> d           9.954  -5.904   8.828  0.00  0.00    -0.288 OA
ATOM     37  C26 <0> d           9.083  -5.424   6.601  0.00  0.00     0.214 C 
ATOM     38  O6  <0> d           7.886  -5.544   6.713  0.00  0.00    -0.288 OA
ENDBRANCH  24  27
ENDBRANCH   4  23
TORSDOF 5
