REMARK  3 active torsions:
REMARK  status: ('A' for Active; 'I' for Inactive)
REMARK    1  A    between atoms: C3_3  and  C11_14 
REMARK    2  A    between atoms: N2_6  and  C5_7 
REMARK    3  A    between atoms: C10_12  and  O1_13 
ROOT
ATOM      1  C1  <0> d          -0.018   1.503   0.010  0.00  0.00     0.071 C 
ATOM      2  C2  <0> d           0.002  -0.004   0.002  0.00  0.00     0.042 A 
ATOM      3  C3  <0> d           0.009  -0.818  -1.118  0.00  0.00     0.045 A 
ATOM      4  C4  <0> d           0.029  -2.156  -0.658  0.00  0.00     0.155 A 
ATOM      5  N1  <0> d           0.034  -2.134   0.645  0.00  0.00    -0.183 NA
ATOM      6  N2  <0> d           0.023  -0.804   1.078  0.00  0.00    -0.266 N 
ENDROOT
BRANCH   6   7
ATOM      7  C5  <0> d           0.031  -0.359   2.474  0.00  0.00     0.139 C 
ATOM      8  C10 <0> d          -1.204  -0.908   3.191  0.00  0.00     0.143 C 
ATOM      9  C9  <0> d          -1.196  -0.444   4.649  0.00  0.00     0.034 C 
ATOM     10  C8  <0> d           0.067  -0.960   5.342  0.00  0.00     0.003 C 
ATOM     11  C7  <0> d           1.302  -0.411   4.625  0.00  0.00     0.002 C 
ATOM     12  C6  <0> d           1.294  -0.875   3.167  0.00  0.00     0.030 C 
BRANCH   8  13
ATOM     13  O1  <0> d          -2.384  -0.427   2.544  0.00  0.00    -0.393 OA
ATOM     14  H15 <0> d          -3.207  -0.736   2.947  0.00  0.00     0.210 HD
ENDBRANCH   8  13
ENDBRANCH   6   7
BRANCH   3  15
ATOM     15  C11 <0> d          -0.004  -0.376  -2.517  0.00  0.00     0.273 C 
ATOM     16  O2  <0> d           0.004  -1.196  -3.412  0.00  0.00    -0.301 OA
ENDBRANCH   3  15
TORSDOF 3
