REMARK  3 active torsions:
REMARK  status: ('A' for Active; 'I' for Inactive)
REMARK    1  A    between atoms: C3_3  and  N2_14 
REMARK    2  A    between atoms: C5_5  and  N1_7 
REMARK       I    between atoms: N2_14  and  C10_15 
REMARK    3  A    between atoms: C10_15  and  C11_17 
ROOT
ATOM      1  C1  <0> d           3.836   7.753   0.180  0.00  0.00     0.004 A 
ATOM      2  C2  <0> d           3.031   6.633   0.092  0.00  0.00     0.029 A 
ATOM      3  C3  <0> d           1.648   6.766   0.113  0.00  0.00     0.037 A 
ATOM      4  C4  <0> d           1.075   8.025   0.218  0.00  0.00     0.059 A 
ATOM      5  C5  <0> d           1.886   9.147   0.312  0.00  0.00     0.047 A 
ATOM      6  C6  <0> d           3.268   9.008   0.290  0.00  0.00     0.030 A 
ENDROOT
BRANCH   3   7
ATOM      7  N2  <0> d           0.835   5.632   0.022  0.00  0.00    -0.321 N 
ATOM      8  C10 <0> d           1.231   4.575  -0.715  0.00  0.00     0.280 C 
ATOM      9  O3  <0> d           2.249   4.644  -1.378  0.00  0.00    -0.265 OA
ATOM     10  H11 <0> d          -0.015   5.606   0.490  0.00  0.00     0.169 HD
BRANCH   8  11
ATOM     11  C11 <0> d           0.436   3.345  -0.717  0.00  0.00     0.144 A 
ATOM     12  O4  <0> d          -0.707   3.137  -0.030  0.00  0.00    -0.298 OA
ATOM     13  C14 <0> d          -1.156   1.900  -0.278  0.00  0.00     0.122 A 
ATOM     14  C13 <0> d          -0.298   1.288  -1.127  0.00  0.00     0.048 A 
ATOM     15 Br1  <0> d          -2.727   1.133   0.443  0.00  0.00    -0.023 Br
ATOM     16  C12 <0> d           0.723   2.206  -1.416  0.00  0.00     0.046 A 
ENDBRANCH   8  11
ENDBRANCH   3   7
BRANCH   5  17
ATOM     17  N1  <0> d           1.313  10.416   0.424  0.00  0.00    -0.276 N 
ATOM     18  S1  <0> d           2.000  11.878  -0.025  0.00  0.00     0.233 S 
ATOM     19  C9  <0> d           0.709  13.057   0.547  0.00  0.00     0.165 C 
ATOM     20  O1  <0> d           3.178  12.001   0.760  0.00  0.00    -0.205 OA
ATOM     21  O2  <0> d           2.061  11.848  -1.445  0.00  0.00    -0.205 OA
ATOM     22  C8  <0> d          -0.029  12.154   1.582  0.00  0.00     0.038 C 
ATOM     23  C7  <0> d          -0.023  10.745   0.955  0.00  0.00     0.142 C 
ENDBRANCH   5  17
TORSDOF 3
