REMARK  4 active torsions:
REMARK  status: ('A' for Active; 'I' for Inactive)
REMARK    1  A    between atoms: O1_2  and  C2_3 
REMARK    2  A    between atoms: C5_6  and  O3_30 
REMARK    3  A    between atoms: C6_7  and  C8_9 
REMARK    4  A    between atoms: C12_13  and  C15_17 
ROOT
ATOM      1  C8  <0> d          -3.332   8.777  -0.007  0.00  0.00     0.157 C 
ATOM      2  C9  <0> d          -2.742   7.403   0.194  0.00  0.00     0.037 C 
ATOM      3  C10 <0> d          -2.480   6.823   1.379  0.00  0.00     0.022 C 
ATOM      4  C11 <0> d          -1.893   5.423   1.440  0.00  0.00     0.068 C 
ATOM      5  C12 <0> d          -0.992   5.180   0.231  0.00  0.00     0.038 C 
ATOM      6  C13 <0> d          -1.846   5.350  -1.031  0.00  0.00     0.094 C 
ATOM      7  C14 <0> d          -2.459   6.718  -1.011  0.00  0.00     0.160 C 
ATOM      8  O2  <0> d          -2.721   7.259  -2.068  0.00  0.00    -0.293 OA
ATOM      9  N1  <0> d          -2.717   7.394   2.586  0.00  0.00    -0.357 N 
ATOM     10  C19 <0> d          -2.380   8.698   2.931  0.00  0.00     0.059 A 
ATOM     11  C20 <0> d          -1.489   8.986   3.950  0.00  0.00     0.032 A 
ATOM     12  C21 <0> d          -1.287  10.305   4.321  0.00  0.00     0.002 A 
ATOM     13  C22 <0> d          -1.968  11.322   3.679  0.00  0.00     0.002 A 
ATOM     14  C23 <0> d          -2.842  11.037   2.645  0.00  0.00     0.031 A 
ATOM     15  C24 <0> d          -3.033   9.720   2.259  0.00  0.00     0.055 A 
ATOM     16  N2  <0> d          -3.866   9.386   1.192  0.00  0.00    -0.375 N 
ATOM     17  H16 <0> d          -3.212   6.816   3.380  0.00  0.00     0.166 HD
ATOM     18  H21 <0> d          -4.944   9.591   1.272  0.00  0.00     0.160 HD
ENDROOT
BRANCH   1  19
ATOM     19  C6  <0> d          -2.262   9.680  -0.564  0.00  0.00     0.005 A 
ATOM     20  C5  <0> d          -2.610  10.880  -1.165  0.00  0.00     0.077 A 
ATOM     21  C4  <0> d          -1.624  11.711  -1.678  0.00  0.00     0.040 A 
ATOM     22  C3  <0> d          -0.296  11.342  -1.589  0.00  0.00     0.039 A 
ATOM     23  C2  <0> d           0.052  10.142  -0.988  0.00  0.00     0.069 A 
ATOM     24  C7  <0> d          -0.933   9.314  -0.470  0.00  0.00     0.049 A 
BRANCH  20  25
ATOM     25  O3  <0> d          -3.917  11.242  -1.253  0.00  0.00    -0.355 OA
ATOM     26  C25 <0> d          -4.204  12.492  -1.885  0.00  0.00     0.210 C 
ENDBRANCH  20  25
BRANCH  23  27
ATOM     27  O1  <0> d           1.360   9.779  -0.901  0.00  0.00    -0.356 OA
ATOM     28  C1  <0> d           2.322  10.683  -1.449  0.00  0.00     0.210 C 
ENDBRANCH  23  27
ENDBRANCH   1  19
BRANCH   5  29
ATOM     29  C15 <0> d          -0.432   3.782   0.284  0.00  0.00    -0.013 A 
ATOM     30  S1  <0> d          -1.300   2.223   0.306  0.00  0.00    -0.106 SA
ATOM     31  C18 <0> d           0.120   1.144   0.374  0.00  0.00     0.050 A 
ATOM     32  C17 <0> d           1.146   2.030   0.369  0.00  0.00     0.008 A 
ATOM     33  C16 <0> d           0.863   3.383   0.323  0.00  0.00     0.015 A 
ENDBRANCH   5  29
TORSDOF 4
