REMARK  4 active torsions:
REMARK  status: ('A' for Active; 'I' for Inactive)
REMARK    1  A    between atoms: C4_5  and  S1_7 
REMARK    2  A    between atoms: S1_7  and  C6_8 
REMARK    3  A    between atoms: C6_8  and  C7_9 
REMARK    4  A    between atoms: C8_11  and  N4_18 
ROOT
ATOM      1  C7  <0> d           3.221  -4.318  -0.052  0.00  0.00     0.139 A 
ATOM      2  N2  <0> d           3.304  -4.966   1.096  0.00  0.00    -0.215 NA
ATOM      3  C8  <0> d           3.462  -6.278   1.155  0.00  0.00     0.136 A 
ATOM      4  C9  <0> d           3.546  -7.021  -0.055  0.00  0.00     0.046 A 
ATOM      5  C10 <0> d           3.717  -8.449  -0.259  0.00  0.00     0.025 A 
ATOM      6  C11 <0> d           3.769  -8.931  -1.509  0.00  0.00     0.053 A 
ATOM      7  S2  <0> d           3.590  -7.475  -2.524  0.00  0.00    -0.081 SA
ATOM      8  C12 <0> d           3.450  -6.260  -1.241  0.00  0.00     0.113 A 
ATOM      9  N3  <0> d           3.287  -4.952  -1.206  0.00  0.00    -0.225 NA
ENDROOT
BRANCH   1  10
ATOM     10  C6  <0> d           3.041  -2.821  -0.042  0.00  0.00     0.161 C 
BRANCH  10  11
ATOM     11  S1  <0> d           1.270  -2.426  -0.023  0.00  0.00    -0.103 SA
BRANCH  11  12
ATOM     12  C4  <0> d           1.228  -0.664  -0.013  0.00  0.00     0.093 A 
ATOM     13  N1  <0> d           2.361   0.020  -0.020  0.00  0.00    -0.254 NA
ATOM     14  C3  <0> d           2.373   1.340  -0.013  0.00  0.00     0.118 A 
ATOM     15  C2  <0> d           1.195   2.058   0.002  0.00  0.00     0.019 A 
ATOM     16  C1  <0> d          -0.017   1.379   0.010  0.00  0.00     0.004 A 
ATOM     17  C5  <0> d           0.002  -0.004   0.002  0.00  0.00     0.039 A 
ENDBRANCH  11  12
ENDBRANCH  10  11
ENDBRANCH   1  10
BRANCH   3  18
ATOM     18  N4  <0> d           3.545  -6.920   2.377  0.00  0.00    -0.383 N 
ATOM     19  H9  <0> d           3.487  -6.407   3.199  0.00  0.00     0.157 HD
ATOM     20  H10 <0> d           3.661  -7.882   2.413  0.00  0.00     0.157 HD
ENDBRANCH   3  18
TORSDOF 4
