REMARK  7 active torsions:
REMARK  status: ('A' for Active; 'I' for Inactive)
REMARK    1  A    between atoms: N1_2  and  C3_4 
REMARK    2  A    between atoms: C3_4  and  C4_5 
REMARK    3  A    between atoms: C4_5  and  C5_6 
REMARK    4  A    between atoms: C5_6  and  C6_7 
REMARK    5  A    between atoms: C6_7  and  N2_8 
REMARK    6  A    between atoms: N2_8  and  S1_9 
REMARK    7  A    between atoms: S1_9  and  C7_12 
ROOT
ATOM      1  S1  <0> d          -4.483  -6.100  -0.846  0.00  0.00     0.260 S 
ATOM      2  O1  <0> d          -5.881  -6.354  -0.882  0.00  0.00    -0.200 OA
ATOM      3  O2  <0> d          -3.675  -6.114  -2.014  0.00  0.00    -0.200 OA
ENDROOT
BRANCH   1   4
ATOM      4  N2  <0> d          -4.292  -4.607  -0.156  0.00  0.00    -0.315 N 
ATOM      5  H15 <0> d          -5.070  -4.091   0.108  0.00  0.00     0.172 HD
BRANCH   4   6
ATOM      6  C6  <0> d          -2.947  -4.065   0.057  0.00  0.00     0.132 C 
BRANCH   6   7
ATOM      7  C5  <0> d          -3.040  -2.563   0.333  0.00  0.00     0.022 C 
BRANCH   7   8
ATOM      8  C4  <0> d          -1.636  -1.997   0.555  0.00  0.00     0.029 C 
BRANCH   8   9
ATOM      9  C3  <0> d          -1.729  -0.495   0.831  0.00  0.00     0.234 C 
BRANCH   9  10
ATOM     10  N1  <0> d          -0.381   0.048   1.044  0.00  0.00    -0.079 N 
ATOM     11  C1  <0> d          -0.459   1.508   1.190  0.00  0.00     0.269 C 
ATOM     12  C2  <0> d           0.195  -0.536   2.263  0.00  0.00     0.269 C 
ATOM     13  H19 <0> d           0.202  -0.180   0.253  0.00  0.00     0.278 HD
ENDBRANCH   9  10
ENDBRANCH   8   9
ENDBRANCH   7   8
ENDBRANCH   6   7
ENDBRANCH   4   6
ENDBRANCH   1   4
BRANCH   1  14
ATOM     14  C7  <0> d          -3.786  -7.279   0.263  0.00  0.00     0.098 A 
ATOM     15  C12 <0> d          -4.336  -7.457   1.519  0.00  0.00     0.034 A 
ATOM     16  C11 <0> d          -3.792  -8.386   2.388  0.00  0.00     0.022 A 
ATOM     17 Br1  <0> d          -5.836  -6.434   2.048  0.00  0.00    -0.049 Br
ATOM     18  C10 <0> d          -2.692  -9.130   2.003  0.00  0.00     0.020 A 
ATOM     19  C9  <0> d          -2.139  -8.948   0.748  0.00  0.00     0.012 A 
ATOM     20  C8  <0> d          -2.686  -8.023  -0.121  0.00  0.00     0.045 A 
ATOM     21 Br2  <0> d          -0.634  -9.966   0.223  0.00  0.00    -0.051 Br
ENDBRANCH   1  14
TORSDOF 7
