REMARK  6 active torsions:
REMARK  status: ('A' for Active; 'I' for Inactive)
REMARK    1  A    between atoms: N1_5  and  C6_9 
REMARK    2  A    between atoms: C6_9  and  C7_10 
REMARK       I    between atoms: C7_10  and  N2_12 
REMARK    3  A    between atoms: N2_12  and  C8_13 
REMARK    4  A    between atoms: C8_13  and  C9_14 
REMARK    5  A    between atoms: C9_14  and  C10_15 
REMARK    6  A    between atoms: C10_15  and  C11_16 
REMARK       I    between atoms: C11_16  and  N3_18 
ROOT
ATOM      1  C7  <0> d           4.073  -0.979   1.378  0.00  0.00     0.235 C 
ATOM      2  O2  <0> d           3.401  -0.587   2.309  0.00  0.00    -0.272 OA
ATOM      3  N2  <0> d           5.220  -1.647   1.609  0.00  0.00    -0.360 N 
ATOM      4  H6  <0> d           5.758  -1.960   0.865  0.00  0.00     0.162 HD
ENDROOT
BRANCH   1   5
ATOM      5  C6  <0> d           3.625  -0.719  -0.037  0.00  0.00     0.234 C 
BRANCH   5   6
ATOM      6  N1  <0> d           2.359   0.019  -0.020  0.00  0.00    -0.315 N 
ATOM      7  C3  <0> d           2.373   1.365  -0.013  0.00  0.00     0.247 A 
ATOM      8  C2  <0> d           1.164   2.081   0.002  0.00  0.00     0.076 A 
ATOM      9  O1  <0> d           3.436   1.964  -0.020  0.00  0.00    -0.268 OA
ATOM     10  C1  <0> d          -0.017   1.398   0.010  0.00  0.00     0.026 A 
ATOM     11  C5  <0> d           0.002  -0.004   0.002  0.00  0.00     0.026 A 
ATOM     12  C4  <0> d           1.185  -0.664  -0.013  0.00  0.00     0.113 A 
ATOM     13 Br1  <0> d          -1.622  -0.973   0.012  0.00  0.00    -0.050 Br
ENDBRANCH   5   6
ENDBRANCH   1   5
BRANCH   3  14
ATOM     14  C8  <0> d           5.656  -1.900   2.985  0.00  0.00     0.123 C 
BRANCH  14  15
ATOM     15  C9  <0> d           6.978  -2.670   2.968  0.00  0.00     0.029 C 
BRANCH  15  16
ATOM     16  C10 <0> d           7.433  -2.935   4.404  0.00  0.00     0.104 C 
BRANCH  16  17
ATOM     17  C11 <0> d           8.735  -3.693   4.387  0.00  0.00     0.215 C 
ATOM     18  O3  <0> d           9.249  -3.993   3.330  0.00  0.00    -0.274 OA
ATOM     19  N3  <0> d           9.329  -4.039   5.547  0.00  0.00    -0.370 N 
ATOM     20  H13 <0> d           8.918  -3.799   6.392  0.00  0.00     0.159 HD
ATOM     21  H14 <0> d          10.167  -4.527   5.536  0.00  0.00     0.159 HD
ENDBRANCH  16  17
ENDBRANCH  15  16
ENDBRANCH  14  15
ENDBRANCH   3  14
TORSDOF 6
