REMARK  6 active torsions:
REMARK  status: ('A' for Active; 'I' for Inactive)
REMARK    1  A    between atoms: C2_2  and  O1_3 
REMARK    2  A    between atoms: O1_3  and  C3_4 
REMARK    3  A    between atoms: C5_6  and  C9_12 
REMARK    4  A    between atoms: C8_9  and  O2_10 
REMARK    5  A    between atoms: C10_13  and  C15_22 
REMARK       I    between atoms: C15_22  and  N5_24 
REMARK    6  A    between atoms: N5_24  and  C16_25 
ROOT
ATOM      1  C9  <0> d          -3.943   3.784   7.154  0.00  0.00     0.202 C 
ATOM      2  C10 <0> d          -2.454   3.576   7.069  0.00  0.00     0.062 C 
ATOM      3  C11 <0> d          -1.624   3.795   8.099  0.00  0.00     0.037 C 
ATOM      4  N1  <0> d          -2.073   4.235   9.320  0.00  0.00    -0.192 N 
ATOM      5  C12 <0> d          -3.378   4.702   9.390  0.00  0.00     0.725 A 
ATOM      6  N2  <0> d          -4.265   4.501   8.383  0.00  0.00    -0.084 N 
ATOM      7  N3  <0> d          -5.459   5.101   8.780  0.00  0.00    -0.149 NA
ATOM      8  C13 <0> d          -5.247   5.613   9.968  0.00  0.00     0.275 A 
ATOM      9  N4  <0> d          -3.985   5.367  10.334  0.00  0.00    -0.054 NA
ATOM     10  C14 <0> d          -0.149   3.548   7.910  0.00  0.00     0.070 C 
ATOM     11  H10 <0> d          -1.500   4.221  10.102  0.00  0.00     0.184 HD
ENDROOT
BRANCH   1  12
ATOM     12  C5  <0> d          -4.638   2.447   7.161  0.00  0.00    -0.024 A 
ATOM     13  C4  <0> d          -5.467   2.095   6.112  0.00  0.00     0.049 A 
ATOM     14  C3  <0> d          -6.102   0.864   6.114  0.00  0.00     0.103 A 
ATOM     15  C8  <0> d          -5.913  -0.012   7.178  0.00  0.00     0.116 A 
ATOM     16  C7  <0> d          -5.085   0.349   8.229  0.00  0.00     0.047 A 
ATOM     17  C6  <0> d          -4.449   1.577   8.219  0.00  0.00     0.031 A 
ATOM     18 Br1  <0> d          -4.824  -0.838   9.678  0.00  0.00    -0.048 Br
BRANCH  14  19
ATOM     19  O1  <0> d          -6.914   0.515   5.080  0.00  0.00    -0.349 OA
BRANCH  19  20
ATOM     20  C2  <0> d          -6.978   1.416   3.973  0.00  0.00     0.171 C 
ATOM     21  C1  <0> d          -8.022   0.919   2.970  0.00  0.00     0.034 C 
ENDBRANCH  19  20
ENDBRANCH  14  19
BRANCH  15  22
ATOM     22  O2  <0> d          -6.539  -1.219   7.187  0.00  0.00    -0.357 OA
ATOM     23  H9  <0> d          -7.410  -1.208   7.608  0.00  0.00     0.218 HD
ENDBRANCH  15  22
ENDBRANCH   1  12
BRANCH   2  24
ATOM     24  C15 <0> d          -1.905   3.134   5.842  0.00  0.00     0.256 C 
ATOM     25  O3  <0> d          -1.653   3.938   4.963  0.00  0.00    -0.267 OA
ATOM     26  N5  <0> d          -1.659   1.823   5.647  0.00  0.00    -0.323 N 
ATOM     27  H15 <0> d          -1.914   1.176   6.323  0.00  0.00     0.169 HD
BRANCH  26  28
ATOM     28  C16 <0> d          -1.038   1.396   4.469  0.00  0.00     0.041 A 
ATOM     29  C21 <0> d          -0.166   0.315   4.495  0.00  0.00    -0.035 A 
ATOM     30  C20 <0> d           0.441  -0.108   3.329  0.00  0.00     0.015 A 
ATOM     31  C22 <0> d           0.112  -0.399   5.793  0.00  0.00     0.050 C 
ATOM     32  C19 <0> d           0.191   0.550   2.139  0.00  0.00    -0.061 A 
ATOM     33  C18 <0> d          -0.677   1.627   2.110  0.00  0.00     0.009 A 
ATOM     34  C23 <0> d           0.860   0.089   0.870  0.00  0.00     0.048 C 
ATOM     35  C17 <0> d          -1.292   2.051   3.271  0.00  0.00     0.030 A 
ENDBRANCH  26  28
ENDBRANCH   2  24
TORSDOF 6
