REMARK  7 active torsions:
REMARK  status: ('A' for Active; 'I' for Inactive)
REMARK    1  A    between atoms: C5_6  and  N2_8 
REMARK    2  A    between atoms: C10_13  and  O3_30 
REMARK    3  A    between atoms: C11_14  and  C14_17 
REMARK    4  A    between atoms: C14_17  and  C16_19 
REMARK       I    between atoms: C16_19  and  N3_21 
REMARK    5  A    between atoms: N3_21  and  C17_22 
REMARK    6  A    between atoms: C17_22  and  C18_23 
REMARK    7  A    between atoms: C18_23  and  N4_24 
ROOT
ATOM      1  C1  <0> d           2.375  -0.489   3.610  0.00  0.00     0.017 C 
ATOM      2  C2  <0> d           2.870  -1.063   2.281  0.00  0.00     0.040 C 
ATOM      3  C3  <0> d           4.388  -0.996   2.234  0.00  0.00     0.029 A 
ATOM      4  C4  <0> d           5.018  -0.629   1.089  0.00  0.00     0.010 A 
ATOM      5  S1  <0> d           6.730  -0.715   1.542  0.00  0.00    -0.057 SA
ATOM      6  C5  <0> d           6.490  -1.219   3.188  0.00  0.00     0.144 A 
ATOM      7  N1  <0> d           5.177  -1.282   3.269  0.00  0.00    -0.339 N 
ATOM      8  C7  <0> d           4.399  -0.254  -0.210  0.00  0.00     0.058 C 
ATOM      9  C8  <0> d           2.918  -0.680  -0.203  0.00  0.00    -0.033 C 
ATOM     10  C9  <0> d           2.273  -0.260   1.120  0.00  0.00     0.033 C 
ATOM     11  C10 <0> d           0.770  -0.510   1.095  0.00  0.00     0.128 C 
ATOM     12  C11 <0> d           0.127   0.236  -0.073  0.00  0.00     0.027 C 
ATOM     13  C12 <0> d           0.739  -0.270  -1.382  0.00  0.00     0.009 C 
ATOM     14  C13 <0> d           2.236   0.034  -1.374  0.00  0.00     0.010 C 
ATOM     15  C23 <0> d           2.809  -2.195  -0.379  0.00  0.00     0.016 C 
ATOM     16  H39 <0> d           4.735  -1.584   4.230  0.00  0.00     0.168 HD
ENDROOT
BRANCH  12  17
ATOM     17  C14 <0> d           0.388   1.736   0.070  0.00  0.00     0.080 C 
ATOM     18  C15 <0> d          -0.145   2.221   1.420  0.00  0.00     0.020 C 
BRANCH  17  19
ATOM     19  C16 <0> d          -0.311   2.476  -1.041  0.00  0.00     0.221 C 
ATOM     20  O1  <0> d          -0.955   1.864  -1.866  0.00  0.00    -0.273 OA
ATOM     21  N3  <0> d          -0.220   3.819  -1.117  0.00  0.00    -0.359 N 
ATOM     22  H22 <0> d           0.364   4.375  -0.369  0.00  0.00     0.162 HD
BRANCH  21  23
ATOM     23  C17 <0> d          -0.899   4.538  -2.198  0.00  0.00     0.152 C 
BRANCH  23  24
ATOM     24  C18 <0> d          -0.638   6.039  -2.055  0.00  0.00     0.292 C 
BRANCH  24  25
ATOM     25  N4  <0> d          -1.319   6.760  -3.138  0.00  0.00     0.094 N 
ATOM     26  C22 <0> d          -1.291   8.211  -2.904  0.00  0.00     0.298 C 
ATOM     27  C21 <0> d          -2.061   8.919  -4.022  0.00  0.00     0.198 C 
ATOM     28  O2  <0> d          -1.492   8.563  -5.285  0.00  0.00    -0.388 OA
ATOM     29  C20 <0> d          -1.504   7.157  -5.546  0.00  0.00     0.198 C 
ATOM     30  C19 <0> d          -0.728   6.432  -4.443  0.00  0.00     0.298 C 
ENDBRANCH  24  25
ENDBRANCH  23  24
ENDBRANCH  21  23
ENDBRANCH  17  19
ENDBRANCH  12  17
BRANCH  11  31
ATOM     31  O3  <0> d           0.187  -0.064   2.320  0.00  0.00    -0.395 OA
ATOM     32  H35 <0> d          -0.897  -0.165   2.482  0.00  0.00     0.210 HD
ENDBRANCH  11  31
BRANCH   6  33
ATOM     33  N2  <0> d           7.437  -1.484   4.165  0.00  0.00    -0.375 N 
ATOM     34  C6  <0> d           8.863  -1.350   3.859  0.00  0.00     0.148 C 
ATOM     35  H9  <0> d           7.118  -1.796   5.170  0.00  0.00     0.161 HD
ENDBRANCH   6  33
TORSDOF 7
