REMARK  3 active torsions:
REMARK  status: ('A' for Active; 'I' for Inactive)
REMARK    1  A    between atoms: C2_2  and  C3_3 
REMARK    2  A    between atoms: C3_3  and  N1_4 
REMARK    3  A    between atoms: C9_13  and  C14_21 
ROOT
ATOM      1  N1  <0> d           1.149   3.489   0.013  0.00  0.00    -0.284 N 
ATOM      2  C4  <0> d          -0.033   4.195   0.032  0.00  0.00     0.124 A 
ATOM      3  C5  <0> d          -1.216   3.522   0.033  0.00  0.00     0.068 A 
ATOM      4  C6  <0> d          -1.196   2.113   0.019  0.00  0.00     0.262 A 
ATOM      5  O1  <0> d          -2.241   1.486   0.019  0.00  0.00    -0.267 OA
ATOM      6  N2  <0> d          -0.018   1.461   0.010  0.00  0.00    -0.270 N 
ATOM      7  C7  <0> d           1.141   2.144   0.003  0.00  0.00     0.332 A 
ATOM      8  O2  <0> d           2.195   1.538  -0.013  0.00  0.00    -0.246 OA
ATOM      9  C8  <0> d           0.002  -0.004   0.002  0.00  0.00     0.164 C 
ATOM     10  C9  <0> d          -2.550   4.225   0.038  0.00  0.00     0.102 C 
ATOM     11  C10 <0> d          -2.345   5.682   0.366  0.00  0.00     0.055 A 
ATOM     12  C11 <0> d          -1.118   6.262   0.355  0.00  0.00     0.048 A 
ATOM     13  N3  <0> d           0.024   5.575   0.056  0.00  0.00    -0.343 N 
ATOM     14  C12 <0> d          -1.318   7.703   0.723  0.00  0.00     0.237 A 
ATOM     15  O3  <0> d          -2.732   7.844   0.932  0.00  0.00    -0.312 OA
ATOM     16  C13 <0> d          -3.307   6.642   0.716  0.00  0.00     0.292 A 
ATOM     17  O4  <0> d          -4.499   6.421   0.813  0.00  0.00    -0.259 OA
ATOM     18  H12 <0> d           0.852   6.043  -0.134  0.00  0.00     0.167 HD
ENDROOT
BRANCH  10  19
ATOM     19  C14 <0> d          -3.189   4.100  -1.321  0.00  0.00    -0.044 A 
ATOM     20  C19 <0> d          -4.416   3.478  -1.452  0.00  0.00     0.011 A 
ATOM     21  C18 <0> d          -5.004   3.363  -2.698  0.00  0.00     0.043 A 
ATOM     22  C17 <0> d          -4.363   3.872  -3.814  0.00  0.00     0.116 A 
ATOM     23  C16 <0> d          -3.134   4.495  -3.682  0.00  0.00     0.043 A 
ATOM     24  F1  <0> d          -4.936   3.761  -5.033  0.00  0.00    -0.206 F 
ATOM     25  C15 <0> d          -2.551   4.614  -2.434  0.00  0.00     0.011 A 
ENDBRANCH  10  19
BRANCH   1  26
ATOM     26  C3  <0> d           2.425   4.208   0.004  0.00  0.00     0.135 C 
BRANCH  26  27
ATOM     27  C2  <0> d           2.853   4.470  -1.441  0.00  0.00     0.016 C 
ATOM     28  C1  <0> d           4.186   5.221  -1.450  0.00  0.00     0.006 C 
ENDBRANCH  26  27
ENDBRANCH   1  26
TORSDOF 3
