REMARK  2 active torsions:
REMARK  status: ('A' for Active; 'I' for Inactive)
REMARK    1  A    between atoms: C4_4  and  N1_9 
REMARK    2  A    between atoms: N1_9  and  C8_10 
ROOT
ATOM      1  C8  <0> d           0.151  -4.150  -2.428  0.00  0.00     0.171 A 
ATOM      2  C9  <0> d           0.267  -4.845  -3.648  0.00  0.00     0.100 A 
ATOM      3  C10 <0> d           0.388  -6.239  -3.591  0.00  0.00    -0.011 A 
ATOM      4  C11 <0> d           0.387  -6.840  -2.343  0.00  0.00     0.060 A 
ATOM      5  N2  <0> d           0.274  -6.105  -1.254  0.00  0.00    -0.153 NA
ATOM      6  N3  <0> d           0.167  -4.827  -1.289  0.00  0.00    -0.130 NA
ATOM      7  C12 <0> d           0.515  -8.337  -2.229  0.00  0.00     0.073 C 
ATOM      8  C13 <0> d           0.516  -7.060  -4.848  0.00  0.00     0.052 C 
ATOM      9  C14 <0> d           0.259  -4.152  -4.900  0.00  0.00     0.104 C 
ATOM     10  N4  <0> d           0.254  -3.601  -5.894  0.00  0.00    -0.191 NA
ENDROOT
BRANCH   1  11
ATOM     11  N1  <0> d           0.028  -2.771  -2.420  0.00  0.00    -0.338 N 
ATOM     12  H7  <0> d          -0.061  -2.286  -3.256  0.00  0.00     0.167 HD
BRANCH  11  13
ATOM     13  C4  <0> d           0.031  -2.076  -1.206  0.00  0.00     0.034 A 
ATOM     14  C3  <0> d           0.788  -2.542  -0.139  0.00  0.00     0.039 A 
ATOM     15  C2  <0> d           0.790  -1.854   1.058  0.00  0.00    -0.021 A 
ATOM     16  C1  <0> d           1.612  -2.360   2.216  0.00  0.00     0.051 C 
ATOM     17  C7  <0> d           0.034  -0.703   1.198  0.00  0.00     0.122 A 
ATOM     18  C6  <0> d          -0.718  -0.233   0.134  0.00  0.00     0.045 A 
ATOM     19  F1  <0> d           0.033  -0.035   2.372  0.00  0.00    -0.206 F 
ATOM     20  C5  <0> d          -0.723  -0.917  -1.065  0.00  0.00     0.032 A 
ENDBRANCH  11  13
ENDBRANCH   1  11
TORSDOF 2
