REMARK  7 active torsions:
REMARK  status: ('A' for Active; 'I' for Inactive)
REMARK    1  A    between atoms: C2_2  and  N1_3 
REMARK    2  A    between atoms: N1_3  and  C3_4 
REMARK    3  A    between atoms: C6_8  and  N4_10 
REMARK    4  A    between atoms: N4_10  and  C7_11 
REMARK    5  A    between atoms: C10_14  and  N5_17 
REMARK    6  A    between atoms: N5_17  and  S1_18 
REMARK    7  A    between atoms: S1_18  and  C13_21 
ROOT
ATOM      1  C7  <0> d           1.806  -5.897  -3.994  0.00  0.00     0.033 A 
ATOM      2  C8  <0> d           1.417  -7.020  -3.277  0.00  0.00     0.032 A 
ATOM      3  C9  <0> d           1.897  -8.266  -3.630  0.00  0.00     0.032 A 
ATOM      4  C10 <0> d           2.769  -8.395  -4.703  0.00  0.00     0.042 A 
ATOM      5  C11 <0> d           3.158  -7.271  -5.421  0.00  0.00     0.032 A 
ATOM      6  C12 <0> d           2.674  -6.027  -5.071  0.00  0.00     0.032 A 
ENDROOT
BRANCH   1   7
ATOM      7  N4  <0> d           1.319  -4.633  -3.636  0.00  0.00    -0.340 N 
ATOM      8  H8  <0> d           1.175  -3.958  -4.317  0.00  0.00     0.167 HD
BRANCH   7   9
ATOM      9  C6  <0> d           1.042  -4.349  -2.308  0.00  0.00     0.149 A 
ATOM     10  C5  <0> d           0.442  -3.139  -1.953  0.00  0.00     0.076 A 
ATOM     11  C4  <0> d           0.184  -2.898  -0.617  0.00  0.00     0.026 A 
ATOM     12  N2  <0> d           0.512  -3.814   0.282  0.00  0.00    -0.194 N 
ATOM     13  C21 <0> d          -0.463  -1.606  -0.187  0.00  0.00     0.069 C 
ATOM     14  C3  <0> d           1.081  -4.953  -0.084  0.00  0.00     0.702 A 
ATOM     15  H26 <0> d           0.333  -3.648   1.220  0.00  0.00     0.184 HD
ATOM     16  N3  <0> d           1.350  -5.221  -1.353  0.00  0.00    -0.047 NA
BRANCH  14  17
ATOM     17  N1  <0> d           1.409  -5.885   0.886  0.00  0.00    -0.225 N 
ATOM     18  H6  <0> d           1.830  -6.722   0.632  0.00  0.00     0.177 HD
BRANCH  17  19
ATOM     19  C2  <0> d           1.121  -5.608   2.295  0.00  0.00     0.134 C 
ATOM     20  C1  <0> d           1.578  -6.790   3.152  0.00  0.00     0.027 C 
ENDBRANCH  17  19
ENDBRANCH  14  17
ENDBRANCH   7   9
ENDBRANCH   1   7
BRANCH   4  21
ATOM     21  N5  <0> d           3.256  -9.657  -5.061  0.00  0.00    -0.281 N 
ATOM     22  H13 <0> d           3.584 -10.262  -4.378  0.00  0.00     0.179 HD
BRANCH  21  23
ATOM     23  S1  <0> d           3.272 -10.118  -6.652  0.00  0.00     0.263 S 
ATOM     24  O1  <0> d           3.763 -11.451  -6.683  0.00  0.00    -0.200 OA
ATOM     25  O2  <0> d           2.008  -9.758  -7.191  0.00  0.00    -0.200 OA
BRANCH  23  26
ATOM     26  C13 <0> d           4.472  -9.120  -7.471  0.00  0.00     0.085 A 
ATOM     27  C18 <0> d           5.810  -9.243  -7.147  0.00  0.00    -0.038 A 
ATOM     28  C17 <0> d           6.752  -8.463  -7.793  0.00  0.00     0.015 A 
ATOM     29  C19 <0> d           6.243 -10.229  -6.093  0.00  0.00     0.050 C 
ATOM     30  C16 <0> d           6.354  -7.555  -8.756  0.00  0.00    -0.061 A 
ATOM     31  C15 <0> d           5.015  -7.429  -9.076  0.00  0.00     0.008 A 
ATOM     32  C20 <0> d           7.380  -6.703  -9.457  0.00  0.00     0.048 C 
ATOM     33  C14 <0> d           4.074  -8.211  -8.434  0.00  0.00     0.026 A 
ENDBRANCH  23  26
ENDBRANCH  21  23
ENDBRANCH   4  21
TORSDOF 7
