REMARK  3 active torsions:
REMARK  status: ('A' for Active; 'I' for Inactive)
REMARK    1  A    between atoms: C5_5  and  C8_10 
REMARK       I    between atoms: C8_10  and  N1_12 
REMARK    2  A    between atoms: C10_14  and  C17_22 
REMARK       I    between atoms: C17_22  and  N3_24 
REMARK    3  A    between atoms: N3_24  and  C18_25 
ROOT
ATOM      1  C8  <0> d           0.137  -4.042  -0.089  0.00  0.00     0.257 C 
ATOM      2  O1  <0> d           0.170  -4.619   0.981  0.00  0.00    -0.267 OA
ATOM      3  N1  <0> d          -0.016  -4.745  -1.229  0.00  0.00    -0.346 N 
ATOM      4  C9  <0> d           0.027  -4.238  -2.621  0.00  0.00     0.141 C 
ATOM      5  C10 <0> d           0.779  -5.332  -3.412  0.00  0.00     0.106 C 
ATOM      6  C11 <0> d           0.581  -6.616  -2.589  0.00  0.00    -0.007 C 
ATOM      7  C12 <0> d          -0.260  -6.200  -1.374  0.00  0.00     0.136 C 
ATOM      8  C13 <0> d           1.929  -7.161  -2.128  0.00  0.00     0.039 C 
ATOM      9  C14 <0> d           1.711  -8.469  -1.361  0.00  0.00     0.233 C 
ATOM     10  N2  <0> d           1.039  -9.442  -2.231  0.00  0.00    -0.075 N 
ATOM     11  C15 <0> d          -0.296  -8.950  -2.595  0.00  0.00     0.233 C 
ATOM     12  C16 <0> d          -0.162  -7.663  -3.413  0.00  0.00     0.039 C 
ATOM     13  H16 <0> d           1.586  -9.577  -3.068  0.00  0.00     0.277 HD
ATOM     14  H26 <0> d           0.951 -10.321  -1.745  0.00  0.00     0.277 HD
ENDROOT
BRANCH   1  15
ATOM     15  C5  <0> d           0.265  -2.572  -0.139  0.00  0.00     0.073 A 
ATOM     16  C4  <0> d          -0.426  -1.840  -1.107  0.00  0.00     0.021 A 
ATOM     17  C3  <0> d          -0.303  -0.468  -1.150  0.00  0.00     0.011 A 
ATOM     18  C2  <0> d           0.502   0.189  -0.235  0.00  0.00    -0.020 A 
ATOM     19  C1  <0> d           0.630   1.690  -0.289  0.00  0.00     0.051 C 
ATOM     20  C7  <0> d           1.196  -0.527   0.725  0.00  0.00     0.161 A 
ATOM     21  C6  <0> d           1.078  -1.906   0.783  0.00  0.00     0.171 A 
ATOM     22  F1  <0> d           1.985   0.121   1.611  0.00  0.00    -0.202 F 
ATOM     23  F2  <0> d           1.750  -2.605   1.723  0.00  0.00    -0.202 F 
ENDBRANCH   1  15
BRANCH   5  24
ATOM     24  C17 <0> d           0.182  -5.489  -4.786  0.00  0.00     0.225 C 
ATOM     25  O2  <0> d          -1.000  -5.284  -4.961  0.00  0.00    -0.273 OA
ATOM     26  N3  <0> d           0.962  -5.858  -5.822  0.00  0.00    -0.347 N 
ATOM     27  H21 <0> d           1.908  -6.022  -5.681  0.00  0.00     0.163 HD
BRANCH  26  28
ATOM     28  C18 <0> d           0.382  -6.011  -7.158  0.00  0.00     0.186 C 
ATOM     29  C21 <0> d          -0.143  -7.421  -7.352  0.00  0.00     0.281 C 
ATOM     30  O3  <0> d           0.473  -7.971  -8.421  0.00  0.00    -0.320 OA
ATOM     31  O4  <0> d          -0.974  -7.962  -6.661  0.00  0.00    -0.263 OA
ATOM     32  C20 <0> d           1.770  -7.354  -8.565  0.00  0.00     0.181 C 
ATOM     33  C19 <0> d           1.477  -5.863  -8.246  0.00  0.00     0.062 C 
ENDBRANCH  26  28
ENDBRANCH   5  24
TORSDOF 3
