REMARK  6 active torsions:
REMARK  status: ('A' for Active; 'I' for Inactive)
REMARK    1  A    between atoms: C6_7  and  C9_10 
REMARK    2  A    between atoms: C9_10  and  C10_11 
REMARK    3  A    between atoms: C10_11  and  N2_12 
REMARK    4  A    between atoms: N2_12  and  C11_13 
REMARK    5  A    between atoms: N3_24  and  C21_27 
REMARK    6  A    between atoms: C21_27  and  C22_28 
ROOT
ATOM      1  C11 <0> d          -0.685  -5.250  -2.841  0.00  0.00     0.191 C 
ATOM      2  C12 <0> d          -1.549  -6.516  -2.836  0.00  0.00     0.037 C 
ATOM      3  C13 <0> d          -1.585  -7.114  -4.242  0.00  0.00     0.038 C 
ATOM      4  C14 <0> d          -1.992  -6.032  -5.237  0.00  0.00    -0.051 C 
ATOM      5  C15 <0> d          -1.915  -4.742  -4.918  0.00  0.00    -0.014 C 
ATOM      6  C16 <0> d          -1.422  -4.156  -3.625  0.00  0.00     0.079 C 
ATOM      7  S1  <0> d          -2.524  -3.826  -6.318  0.00  0.00    -0.105 SA
ATOM      8  C17 <0> d          -3.377  -5.226  -7.172  0.00  0.00     0.192 C 
ATOM      9  C18 <0> d          -2.476  -6.365  -6.626  0.00  0.00     0.143 C 
ATOM     10  C19 <0> d          -3.240  -7.658  -6.626  0.00  0.00     0.236 C 
ATOM     11  O1  <0> d          -2.646  -8.709  -6.739  0.00  0.00    -0.272 OA
ATOM     12  N3  <0> d          -4.581  -7.656  -6.503  0.00  0.00    -0.308 N 
ATOM     13  C20 <0> d          -5.250  -6.471  -6.306  0.00  0.00     0.207 C 
ATOM     14  N4  <0> d          -4.725  -5.330  -6.623  0.00  0.00    -0.267 NA
ENDROOT
BRANCH   1  15
ATOM     15  N2  <0> d          -0.461  -4.801  -1.460  0.00  0.00    -0.070 N 
ATOM     16  H14 <0> d          -0.057  -5.553  -0.923  0.00  0.00     0.277 HD
ATOM     17  H29 <0> d          -1.340  -4.528  -1.048  0.00  0.00     0.277 HD
BRANCH  15  18
ATOM     18  C10 <0> d           0.457  -3.653  -1.462  0.00  0.00     0.237 C 
BRANCH  18  19
ATOM     19  C9  <0> d           0.691  -3.186  -0.024  0.00  0.00     0.064 C 
BRANCH  19  20
ATOM     20  C6  <0> d           1.631  -2.008  -0.025  0.00  0.00    -0.048 A 
ATOM     21  C5  <0> d           3.143  -2.053  -0.041  0.00  0.00     0.155 A 
ATOM     22  N1  <0> d           3.587  -0.654  -0.037  0.00  0.00    -0.385 N 
ATOM     23  C4  <0> d           2.529   0.120  -0.022  0.00  0.00     0.038 A 
ATOM     24  H28 <0> d           4.509  -0.353  -0.045  0.00  0.00     0.160 HD
ATOM     25  C3  <0> d           2.391   1.535  -0.013  0.00  0.00     0.030 A 
ATOM     26  C7  <0> d           1.295  -0.698  -0.014  0.00  0.00    -0.006 A 
ATOM     27  C2  <0> d           1.166   2.101   0.002  0.00  0.00     0.002 A 
ATOM     28  C1  <0> d          -0.016   1.348   0.009  0.00  0.00     0.001 A 
ATOM     29  C8  <0> d           0.002  -0.004   0.002  0.00  0.00     0.014 A 
ENDBRANCH  19  20
ENDBRANCH  18  19
ENDBRANCH  15  18
ENDBRANCH   1  15
BRANCH  12  30
ATOM     30  C21 <0> d          -5.327  -8.915  -6.579  0.00  0.00     0.171 C 
BRANCH  30  31
ATOM     31  C22 <0> d          -5.453  -9.508  -5.200  0.00  0.00    -0.037 A 
ATOM     32  C27 <0> d          -6.536  -9.184  -4.405  0.00  0.00     0.051 A 
ATOM     33  C26 <0> d          -6.655  -9.734  -3.140  0.00  0.00     0.117 A 
ATOM     34  C25 <0> d          -5.683 -10.600  -2.669  0.00  0.00     0.042 A 
ATOM     35  F1  <0> d          -7.716  -9.422  -2.364  0.00  0.00    -0.206 F 
ATOM     36  C24 <0> d          -4.598 -10.919  -3.463  0.00  0.00     0.004 A 
ATOM     37  C23 <0> d          -4.483 -10.373  -4.728  0.00  0.00     0.009 A 
ENDBRANCH  30  31
ENDBRANCH  12  30
TORSDOF 6
