REMARK  4 active torsions:
REMARK  status: ('A' for Active; 'I' for Inactive)
REMARK    1  A    between atoms: C3_4  and  C5_7 
REMARK    2  A    between atoms: C8_10  and  C9_12 
REMARK    3  A    between atoms: C9_12  and  N2_13 
REMARK    4  A    between atoms: N2_13  and  C10_14 
ROOT
ATOM      1  C5  <0> d          -1.979  -3.081  -0.006  0.00  0.00     0.105 A 
ATOM      2  C6  <0> d          -3.294  -2.738  -0.004  0.00  0.00     0.042 A 
ATOM      3  C7  <0> d          -4.028  -3.942  -0.005  0.00  0.00     0.037 A 
ATOM      4  C8  <0> d          -3.134  -4.949  -0.009  0.00  0.00     0.071 A 
ATOM      5  O1  <0> d          -1.896  -4.425  -0.015  0.00  0.00    -0.311 OA
ENDROOT
BRANCH   4   6
ATOM      6  C9  <0> d          -3.466  -6.419  -0.012  0.00  0.00     0.186 C 
BRANCH   6   7
ATOM      7  N2  <0> d          -3.576  -6.892  -1.394  0.00  0.00    -0.367 N 
ATOM      8  H9  <0> d          -3.438  -6.275  -2.130  0.00  0.00     0.161 HD
BRANCH   7   9
ATOM      9  C10 <0> d          -3.878  -8.224  -1.651  0.00  0.00     0.143 A 
ATOM     10  N4  <0> d          -3.978  -8.654  -2.902  0.00  0.00    -0.216 NA
ATOM     11  C13 <0> d          -4.261  -9.925  -3.142  0.00  0.00     0.145 A 
ATOM     12  C12 <0> d          -4.462 -10.801  -2.090  0.00  0.00     0.160 A 
ATOM     13 Cl1  <0> d          -4.385 -10.491  -4.778  0.00  0.00    -0.061 Cl
ATOM     14  N3  <0> d          -4.368 -10.374  -0.842  0.00  0.00    -0.266 NA
ATOM     15  C11 <0> d          -4.082  -9.110  -0.595  0.00  0.00     0.166 A 
ENDBRANCH   7   9
ENDBRANCH   6   7
ENDBRANCH   4   6
BRANCH   1  16
ATOM     16  C3  <0> d          -0.837  -2.142  -0.007  0.00  0.00     0.098 A 
ATOM     17  N1  <0> d          -1.014  -0.827   0.002  0.00  0.00    -0.243 NA
ATOM     18  C2  <0> d           0.002  -0.004   0.002  0.00  0.00     0.071 A 
ATOM     19  C1  <0> d          -0.018   1.503   0.010  0.00  0.00     0.078 C 
ATOM     20  S1  <0> d           1.338  -1.027  -0.017  0.00  0.00    -0.085 SA
ATOM     21  C4  <0> d           0.461  -2.583  -0.015  0.00  0.00     0.086 A 
ENDBRANCH   1  16
TORSDOF 4
