REMARK  5 active torsions:
REMARK  status: ('A' for Active; 'I' for Inactive)
REMARK    1  A    between atoms: C2_2  and  C3_3 
REMARK    2  A    between atoms: C2_2  and  N3_11 
REMARK       I    between atoms: N3_11  and  C8_12 
REMARK    3  A    between atoms: C8_12  and  C9_14 
REMARK    4  A    between atoms: C9_14  and  C10_15 
REMARK    5  A    between atoms: C10_15  and  N4_16 
ROOT
ATOM      1  N3  <0> d           0.688  -0.476  -1.203  0.00  0.00    -0.351 N 
ATOM      2  C8  <0> d           0.006  -0.608  -2.358  0.00  0.00     0.219 C 
ATOM      3  O1  <0> d          -1.175  -0.336  -2.400  0.00  0.00    -0.274 OA
ATOM      4  H8  <0> d           1.632  -0.695  -1.170  0.00  0.00     0.163 HD
ENDROOT
BRANCH   2   5
ATOM      5  C9  <0> d           0.712  -1.094  -3.598  0.00  0.00     0.130 C 
BRANCH   5   6
ATOM      6  C10 <0> d          -0.282  -1.153  -4.761  0.00  0.00     0.244 C 
BRANCH   6   7
ATOM      7  N4  <0> d           0.406  -1.626  -5.969  0.00  0.00    -0.071 N 
ATOM      8  C17 <0> d          -0.518  -1.568  -7.110  0.00  0.00     0.235 C 
ATOM      9  C16 <0> d           0.128  -0.764  -8.245  0.00  0.00     0.028 C 
ATOM     10  C15 <0> d           1.185  -1.622  -8.937  0.00  0.00     0.002 C 
ATOM     11  C14 <0> d           2.436  -1.700  -8.062  0.00  0.00     0.000 C 
ATOM     12  C13 <0> d           2.601  -3.132  -7.550  0.00  0.00     0.002 C 
ATOM     13  C12 <0> d           1.231  -3.651  -7.098  0.00  0.00     0.028 C 
ATOM     14  C11 <0> d           0.860  -3.009  -5.762  0.00  0.00     0.235 C 
ATOM     15  H27 <0> d           1.204  -1.037  -6.154  0.00  0.00     0.279 HD
ENDBRANCH   6   7
ENDBRANCH   5   6
ENDBRANCH   2   5
BRANCH   1  16
ATOM     16  C2  <0> d           0.002  -0.004   0.002  0.00  0.00     0.134 C 
ATOM     17  C1  <0> d          -0.019   1.526   0.010  0.00  0.00     0.039 C 
BRANCH  16  18
ATOM     18  C3  <0> d           0.731  -0.503   1.223  0.00  0.00     0.075 A 
ATOM     19  N2  <0> d           2.029  -0.838   1.280  0.00  0.00    -0.225 NA
ATOM     20  C7  <0> d           2.313  -1.222   2.491  0.00  0.00     0.177 A 
ATOM     21  N1  <0> d           1.195  -1.161   3.280  0.00  0.00    -0.309 N 
ATOM     22  S1  <0> d           3.554  -1.819   3.615  0.00  0.00    -0.062 SA
ATOM     23  C4  <0> d           0.190  -0.695   2.437  0.00  0.00     0.128 A 
ATOM     24  C5  <0> d           1.339  -1.544   4.596  0.00  0.00     0.106 A 
ATOM     25  C6  <0> d           2.518  -1.952   5.063  0.00  0.00     0.071 A 
ENDBRANCH  16  18
ENDBRANCH   1  16
TORSDOF 5
