REMARK  7 active torsions:
REMARK  status: ('A' for Active; 'I' for Inactive)
REMARK    1  A    between atoms: C2_2  and  C4_4 
REMARK    2  A    between atoms: C4_4  and  C5_5 
REMARK    3  A    between atoms: C4_4  and  N4_20 
REMARK       I    between atoms: C5_5  and  N1_7 
REMARK    4  A    between atoms: N1_7  and  C6_8 
REMARK    5  A    between atoms: C10_12  and  C12_14 
REMARK    6  A    between atoms: C12_14  and  N2_15 
REMARK    7  A    between atoms: N4_20  and  C16_21 
ROOT
ATOM      1  C4  <0> d          -2.426   0.032   0.178  0.00  0.00     0.179 C 
ENDROOT
BRANCH   1   2
ATOM      2  C2  <0> d          -2.714   0.223  -1.313  0.00  0.00     0.009 C 
ATOM      3  C1  <0> d          -1.632   1.111  -1.931  0.00  0.00     0.012 C 
ATOM      4  C3  <0> d          -2.716  -1.139  -2.010  0.00  0.00     0.012 C 
ENDBRANCH   1   2
BRANCH   1   5
ATOM      5  C5  <0> d          -3.492  -0.842   0.787  0.00  0.00     0.245 C 
ATOM      6  O1  <0> d          -3.189  -1.894   1.309  0.00  0.00    -0.271 OA
ATOM      7  N1  <0> d          -4.783  -0.455   0.751  0.00  0.00    -0.325 N 
ATOM      8  H9  <0> d          -5.049   0.536   0.356  0.00  0.00     0.169 HD
BRANCH   7   9
ATOM      9  C6  <0> d          -5.784  -1.315   1.216  0.00  0.00     0.035 A 
ATOM     10  C11 <0> d          -6.918  -0.796   1.826  0.00  0.00     0.038 A 
ATOM     11  C10 <0> d          -7.905  -1.647   2.284  0.00  0.00    -0.036 A 
ATOM     12  C9  <0> d          -7.764  -3.015   2.136  0.00  0.00     0.009 A 
ATOM     13  C8  <0> d          -6.635  -3.535   1.530  0.00  0.00     0.003 A 
ATOM     14  C7  <0> d          -5.648  -2.689   1.064  0.00  0.00     0.029 A 
BRANCH  11  15
ATOM     15  C12 <0> d          -9.137  -1.085   2.946  0.00  0.00     0.189 C 
BRANCH  15  16
ATOM     16  N2  <0> d         -10.165  -0.835   1.933  0.00  0.00    -0.277 N 
ATOM     17  N3  <0> d         -10.013  -0.053   0.780  0.00  0.00    -0.185 NA
ATOM     18  C15 <0> d         -11.145  -0.068   0.124  0.00  0.00     0.140 A 
ATOM     19  C14 <0> d         -12.053  -0.858   0.837  0.00  0.00     0.040 A 
ATOM     20  C13 <0> d         -11.423  -1.323   1.941  0.00  0.00     0.114 A 
ENDBRANCH  15  16
ENDBRANCH  11  15
ENDBRANCH   7   9
ENDBRANCH   1   5
BRANCH   1  21
ATOM     21  N4  <0> d          -1.118  -0.605   0.345  0.00  0.00    -0.360 N 
ATOM     22  H19 <0> d          -1.048  -1.697   0.460  0.00  0.00     0.162 HD
BRANCH  21  23
ATOM     23  C16 <0> d           0.026   0.163   0.358  0.00  0.00     0.149 A 
ATOM     24  C18 <0> d           1.344  -0.468   0.526  0.00  0.00     0.034 A 
ATOM     25  C17 <0> d           2.385   0.472   0.514  0.00  0.00     0.095 A 
ATOM     26  C19 <0> d           1.694  -1.817   0.688  0.00  0.00     0.017 A 
ATOM     27  S1  <0> d           1.529   2.007   0.293  0.00  0.00     0.286 S 
ATOM     28  C22 <0> d           3.692   0.109   0.653  0.00  0.00     0.026 A 
ATOM     29  N5  <0> d          -0.048   1.449   0.224  0.00  0.00    -0.141 NA
ATOM     30  O2  <0> d           1.867   2.510  -0.993  0.00  0.00    -0.198 OA
ATOM     31  O3  <0> d           1.670   2.759   1.491  0.00  0.00    -0.198 OA
ATOM     32  C21 <0> d           4.020  -1.230   0.813  0.00  0.00     0.002 A 
ATOM     33  C20 <0> d           3.015  -2.180   0.829  0.00  0.00     0.001 A 
ENDBRANCH  21  23
ENDBRANCH   1  21
TORSDOF 7
