REMARK  7 active torsions:
REMARK  status: ('A' for Active; 'I' for Inactive)
REMARK    1  A    between atoms: C3_4  and  S1_8 
REMARK    2  A    between atoms: S1_8  and  N3_11 
REMARK    3  A    between atoms: N3_11  and  C6_12 
REMARK    4  A    between atoms: C6_12  and  C7_13 
REMARK    5  A    between atoms: C11_17  and  S2_19 
REMARK    6  A    between atoms: S2_19  and  N4_22 
REMARK    7  A    between atoms: N4_22  and  C13_23 
ROOT
ATOM      1  C7  <0> d          -0.902  -1.976  -5.352  0.00  0.00    -0.038 A 
ATOM      2  C8  <0> d          -0.394  -2.761  -6.371  0.00  0.00     0.009 A 
ATOM      3  C9  <0> d          -1.027  -2.794  -7.599  0.00  0.00     0.002 A 
ATOM      4  C10 <0> d          -2.168  -2.042  -7.809  0.00  0.00     0.025 A 
ATOM      5  C11 <0> d          -2.676  -1.258  -6.790  0.00  0.00     0.080 A 
ATOM      6  C12 <0> d          -2.045  -1.228  -5.560  0.00  0.00     0.034 A 
ENDROOT
BRANCH   1   7
ATOM      7  C6  <0> d          -0.211  -1.941  -4.013  0.00  0.00     0.170 C 
BRANCH   7   8
ATOM      8  N3  <0> d          -0.760  -2.992  -3.153  0.00  0.00    -0.310 N 
ATOM      9  H8  <0> d          -1.594  -3.427  -3.390  0.00  0.00     0.172 HD
BRANCH   8  10
ATOM     10  S1  <0> d           0.042  -3.437  -1.774  0.00  0.00     0.278 S 
ATOM     11  O1  <0> d           1.398  -3.650  -2.144  0.00  0.00    -0.199 OA
ATOM     12  O2  <0> d          -0.745  -4.444  -1.153  0.00  0.00    -0.199 OA
BRANCH  10  13
ATOM     13  C3  <0> d           0.028  -2.047  -0.691  0.00  0.00     0.188 A 
ATOM     14  N1  <0> d           0.008  -0.759  -1.063  0.00  0.00    -0.221 NA
ATOM     15  C2  <0> d           0.002  -0.004   0.002  0.00  0.00     0.103 A 
ATOM     16  C1  <0> d          -0.018   1.503   0.010  0.00  0.00     0.091 C 
ATOM     17  N2  <0> d           0.023  -0.797   1.095  0.00  0.00    -0.347 N 
ATOM     18  C4  <0> d           0.034  -2.093   0.655  0.00  0.00     0.137 A 
ATOM     19  C5  <0> d           0.030  -0.353   2.491  0.00  0.00     0.157 C 
ENDBRANCH  10  13
ENDBRANCH   8  10
ENDBRANCH   7   8
ENDBRANCH   1   7
BRANCH   5  20
ATOM     20  S2  <0> d          -4.130  -0.299  -7.058  0.00  0.00     0.259 S 
ATOM     21  O3  <0> d          -4.090   0.769  -6.121  0.00  0.00    -0.201 OA
ATOM     22  O4  <0> d          -4.220  -0.080  -8.459  0.00  0.00    -0.201 OA
BRANCH  20  23
ATOM     23  N4  <0> d          -5.424  -1.245  -6.643  0.00  0.00    -0.311 N 
ATOM     24  H15 <0> d          -6.063  -1.516  -7.319  0.00  0.00     0.172 HD
BRANCH  23  25
ATOM     25  C13 <0> d          -5.603  -1.672  -5.253  0.00  0.00     0.085 C 
ATOM     26  C14 <0> d          -6.548  -0.703  -4.539  0.00  0.00     0.032 C 
ATOM     27  C15 <0> d          -6.200  -3.080  -5.225  0.00  0.00     0.032 C 
ENDBRANCH  23  25
ENDBRANCH  20  23
ENDBRANCH   5  20
TORSDOF 7
