REMARK  5 active torsions:
REMARK  status: ('A' for Active; 'I' for Inactive)
REMARK    1  A    between atoms: C8_10  and  C9_12 
REMARK    2  A    between atoms: C9_12  and  C10_13 
REMARK       I    between atoms: C10_13  and  N2_15 
REMARK    3  A    between atoms: N2_15  and  C11_16 
REMARK    4  A    between atoms: C11_16  and  C12_17 
REMARK    5  A    between atoms: C12_17  and  N3_18 
ROOT
ATOM      1  C9  <0> d           3.693  -1.677   2.103  0.00  0.00     0.145 C 
ENDROOT
BRANCH   1   2
ATOM      2  C8  <0> d           3.647  -1.893   0.589  0.00  0.00     0.229 C 
ATOM      3  C7  <0> d           2.425  -2.703   0.235  0.00  0.00     0.252 C 
ATOM      4  N1  <0> d           1.250  -2.078   0.012  0.00  0.00    -0.323 N 
ATOM      5  O1  <0> d           2.498  -3.911   0.151  0.00  0.00    -0.270 OA
ATOM      6  C5  <0> d           1.213  -0.677  -0.012  0.00  0.00     0.068 A 
ATOM      7  H6  <0> d           0.440  -2.592  -0.130  0.00  0.00     0.169 HD
ATOM      8  C4  <0> d           2.408   0.040  -0.030  0.00  0.00     0.096 A 
ATOM      9  C6  <0> d           0.002  -0.004   0.002  0.00  0.00     0.032 A 
ATOM     10  C3  <0> d           2.381   1.424  -0.019  0.00  0.00     0.039 A 
ATOM     11  O2  <0> d           3.593  -0.626  -0.070  0.00  0.00    -0.334 OA
ATOM     12  C2  <0> d           1.169   2.090   0.002  0.00  0.00     0.003 A 
ATOM     13  C1  <0> d          -0.017   1.378   0.010  0.00  0.00     0.002 A 
ENDBRANCH   1   2
BRANCH   1  14
ATOM     14  C10 <0> d           4.975  -0.976   2.472  0.00  0.00     0.220 C 
ATOM     15  O3  <0> d           5.773  -0.678   1.608  0.00  0.00    -0.274 OA
ATOM     16  N2  <0> d           5.234  -0.679   3.760  0.00  0.00    -0.359 N 
ATOM     17  H9  <0> d           4.596  -0.917   4.451  0.00  0.00     0.162 HD
BRANCH  16  18
ATOM     18  C11 <0> d           6.480   0.003   4.119  0.00  0.00     0.143 C 
BRANCH  18  19
ATOM     19  C12 <0> d           6.526   0.220   5.633  0.00  0.00     0.148 C 
BRANCH  19  20
ATOM     20  N3  <0> d           7.772   0.902   5.991  0.00  0.00    -0.350 N 
ATOM     21  C15 <0> d           7.963   2.237   6.064  0.00  0.00     0.182 A 
ATOM     22  N4  <0> d           9.199   2.465   6.415  0.00  0.00    -0.361 N 
ATOM     23  C14 <0> d           9.838   1.295   6.568  0.00  0.00     0.106 A 
ATOM     24  H17 <0> d           9.594   3.341   6.541  0.00  0.00     0.166 HD
ATOM     25  C13 <0> d           8.963   0.305   6.308  0.00  0.00     0.108 A 
ENDBRANCH  19  20
ENDBRANCH  18  19
ENDBRANCH  16  18
ENDBRANCH   1  14
TORSDOF 5
