REMARK  4 active torsions:
REMARK  status: ('A' for Active; 'I' for Inactive)
REMARK    1  A    between atoms: C2_2  and  O1_3 
REMARK    2  A    between atoms: O1_3  and  C3_4 
REMARK    3  A    between atoms: C6_7  and  C9_10 
REMARK    4  A    between atoms: N2_20  and  C17_21 
ROOT
ATOM      1  C17 <0> d          -4.468  -6.543   0.301  0.00  0.00     0.222 C 
ATOM      2  C18 <0> d          -5.195  -5.263   0.334  0.00  0.00    -0.098 C 
ATOM      3  C19 <0> d          -5.774  -4.242   0.359  0.00  0.00     0.014 C 
ENDROOT
BRANCH   1   4
ATOM      4  N2  <0> d          -3.306  -6.423  -0.582  0.00  0.00    -0.312 N 
ATOM      5  C9  <0> d          -2.001  -6.093  -0.011  0.00  0.00     0.222 C 
ATOM      6  N1  <0> d          -0.930  -6.706  -0.807  0.00  0.00    -0.364 N 
ATOM      7  C10 <0> d          -1.007  -6.629  -2.193  0.00  0.00     0.045 A 
ATOM      8  H11 <0> d          -0.186  -7.154  -0.376  0.00  0.00     0.162 HD
ATOM      9  C15 <0> d          -2.282  -6.577  -2.784  0.00  0.00     0.058 A 
ATOM     10  C11 <0> d           0.125  -6.602  -2.990  0.00  0.00     0.030 A 
ATOM     11  C14 <0> d          -2.401  -6.494  -4.169  0.00  0.00     0.019 A 
ATOM     12  C16 <0> d          -3.465  -6.617  -1.905  0.00  0.00     0.258 C 
ATOM     13  C13 <0> d          -1.263  -6.467  -4.948  0.00  0.00     0.001 A 
ATOM     14  C12 <0> d          -0.007  -6.521  -4.363  0.00  0.00     0.002 A 
ATOM     15  O2  <0> d          -4.569  -6.825  -2.369  0.00  0.00    -0.267 OA
BRANCH   5  16
ATOM     16  C6  <0> d          -1.823  -4.597  -0.004  0.00  0.00    -0.016 A 
ATOM     17  C5  <0> d          -1.498  -3.946   1.173  0.00  0.00     0.014 A 
ATOM     18  C4  <0> d          -1.333  -2.575   1.182  0.00  0.00     0.037 A 
ATOM     19  C3  <0> d          -1.495  -1.850   0.010  0.00  0.00     0.068 A 
ATOM     20  C8  <0> d          -1.827  -2.504  -1.167  0.00  0.00     0.037 A 
ATOM     21  C7  <0> d          -1.984  -3.877  -1.173  0.00  0.00     0.014 A 
BRANCH  19  22
ATOM     22  O1  <0> d          -1.335  -0.500   0.017  0.00  0.00    -0.352 OA
BRANCH  22  23
ATOM     23  C2  <0> d          -0.994   0.106   1.265  0.00  0.00     0.171 C 
ATOM     24  C1  <0> d          -0.856   1.619   1.076  0.00  0.00     0.034 C 
ENDBRANCH  22  23
ENDBRANCH  19  22
ENDBRANCH   5  16
ENDBRANCH   1   4
TORSDOF 4
