REMARK  3 active torsions:
REMARK  status: ('A' for Active; 'I' for Inactive)
REMARK    1  A    between atoms: C2_2  and  C4_4 
REMARK    2  A    between atoms: N1_9  and  C9_12 
REMARK    3  A    between atoms: C9_12  and  C10_13 
ROOT
ATOM      1  C4  <0> d           0.742  -0.511   1.242  0.00  0.00     0.239 C 
ATOM      2  C5  <0> d           0.808  -2.053   1.234  0.00  0.00     0.128 A 
ATOM      3  C6  <0> d           2.209  -2.393   1.815  0.00  0.00     0.147 A 
ATOM      4  C7  <0> d           1.886  -3.078   3.124  0.00  0.00     0.235 A 
ATOM      5  O1  <0> d           2.703  -3.506   3.911  0.00  0.00    -0.272 OA
ATOM      6  N1  <0> d           0.559  -3.138   3.279  0.00  0.00    -0.285 N 
ATOM      7  C8  <0> d          -0.155  -2.595   2.266  0.00  0.00     0.233 A 
ATOM      8  O2  <0> d          -1.364  -2.545   2.190  0.00  0.00    -0.272 OA
ATOM      9  C14 <0> d           2.864  -1.031   2.072  0.00  0.00     0.279 A 
ATOM     10  N2  <0> d           2.160  -0.066   1.215  0.00  0.00     0.114 N 
ATOM     11  C15 <0> d           4.339  -1.067   1.790  0.00  0.00     0.019 A 
ATOM     12  C16 <0> d           5.082  -1.360   0.668  0.00  0.00     0.013 A 
ATOM     13  C17 <0> d           6.464  -1.304   0.718  0.00  0.00     0.002 A 
ATOM     14  C18 <0> d           7.096  -0.952   1.896  0.00  0.00     0.026 A 
ATOM     15  C19 <0> d           6.356  -0.658   3.023  0.00  0.00     0.061 A 
ATOM     16  C20 <0> d           4.964  -0.712   2.982  0.00  0.00     0.066 A 
ATOM     17  N3  <0> d           4.010  -0.464   3.971  0.00  0.00    -0.323 N 
ATOM     18  C21 <0> d           2.752  -0.630   3.518  0.00  0.00     0.267 A 
ATOM     19  O4  <0> d           1.728  -0.484   4.152  0.00  0.00    -0.270 OA
ATOM     20 Cl1  <0> d           7.161  -0.218   4.497  0.00  0.00    -0.082 Cl
ATOM     21  H20 <0> d           2.531  -0.094   0.277  0.00  0.00     0.318 HD
ATOM     22  H24 <0> d           4.227  -0.202   4.880  0.00  0.00     0.169 HD
ENDROOT
BRANCH   1  23
ATOM     23  C2  <0> d           0.002  -0.004   0.002  0.00  0.00     0.011 C 
ATOM     24  C1  <0> d          -0.019   1.526   0.010  0.00  0.00     0.012 C 
ATOM     25  C3  <0> d           0.718  -0.497  -1.257  0.00  0.00     0.012 C 
ENDBRANCH   1  23
BRANCH   6  26
ATOM     26  C9  <0> d          -0.075  -3.749   4.450  0.00  0.00     0.166 C 
BRANCH  26  27
ATOM     27  C10 <0> d          -0.275  -2.688   5.534  0.00  0.00     0.140 C 
ATOM     28  O3  <0> d          -1.232  -1.717   5.093  0.00  0.00    -0.384 OA
ATOM     29  C13 <0> d          -2.376  -1.728   5.965  0.00  0.00     0.168 C 
ATOM     30  C12 <0> d          -1.853  -2.287   7.312  0.00  0.00     0.029 C 
ATOM     31  C11 <0> d          -0.831  -3.345   6.815  0.00  0.00     0.035 C 
ENDBRANCH  26  27
ENDBRANCH   6  26
TORSDOF 3
