REMARK  4 active torsions:
REMARK  status: ('A' for Active; 'I' for Inactive)
REMARK    1  A    between atoms: C4_4  and  N2_12 
REMARK    2  A    between atoms: N2_12  and  C10_13 
REMARK    3  A    between atoms: C10_13  and  C11_14 
REMARK    4  A    between atoms: N3_17  and  C15_19 
ROOT
ATOM      1  C1  <0> d          -0.017   1.389   0.010  0.00  0.00     0.025 A 
ATOM      2  C2  <0> d           1.144   2.103   0.002  0.00  0.00     0.018 A 
ATOM      3  C3  <0> d           2.372   1.428  -0.013  0.00  0.00     0.017 A 
ATOM      4  C4  <0> d           3.600   2.133  -0.020  0.00  0.00     0.042 A 
ATOM      5  C5  <0> d           4.772   1.394  -0.035  0.00  0.00     0.047 A 
ATOM      6  C6  <0> d           4.711   0.007  -0.042  0.00  0.00     0.090 A 
ATOM      7  N1  <0> d           3.566  -0.636  -0.036  0.00  0.00    -0.365 N 
ATOM      8  C7  <0> d           2.396   0.013  -0.021  0.00  0.00     0.046 A 
ATOM      9  C8  <0> d           1.180  -0.690  -0.013  0.00  0.00     0.054 A 
ATOM     10  C9  <0> d           0.002  -0.004   0.002  0.00  0.00     0.036 A 
ATOM     11 Cl1  <0> d          -1.497  -0.879   0.012  0.00  0.00    -0.084 Cl
ATOM     12  H22 <0> d           3.569  -1.606  -0.041  0.00  0.00     0.165 HD
ENDROOT
BRANCH   4  13
ATOM     13  N2  <0> d           3.628   3.519  -0.013  0.00  0.00    -0.389 N 
ATOM     14  H7  <0> d           2.798   4.022  -0.003  0.00  0.00     0.159 HD
BRANCH  13  15
ATOM     15  C10 <0> d           4.912   4.226  -0.021  0.00  0.00     0.126 C 
BRANCH  15  16
ATOM     16  C11 <0> d           4.663   5.735  -0.011  0.00  0.00     0.031 C 
ATOM     17  C14 <0> d           6.000   6.518   0.028  0.00  0.00     0.241 C 
ATOM     18  N3  <0> d           5.684   7.834  -0.567  0.00  0.00    -0.066 N 
ATOM     19  C13 <0> d           4.505   7.684  -1.441  0.00  0.00     0.236 C 
ATOM     20  H21 <0> d           5.481   8.497   0.165  0.00  0.00     0.280 HD
ATOM     21  C12 <0> d           4.061   6.208  -1.361  0.00  0.00     0.035 C 
BRANCH  18  22
ATOM     22  C15 <0> d           6.828   8.307  -1.358  0.00  0.00     0.188 A 
ATOM     23  C17 <0> d           6.697   9.668  -2.045  0.00  0.00     0.035 A 
ATOM     24  C16 <0> d           7.606   9.512  -0.824  0.00  0.00     0.035 A 
ENDBRANCH  18  22
ENDBRANCH  15  16
ENDBRANCH  13  15
ENDBRANCH   4  13
TORSDOF 4
