REMARK  4 active torsions:
REMARK  status: ('A' for Active; 'I' for Inactive)
REMARK    1  A    between atoms: O1_2  and  C2_3 
REMARK    2  A    between atoms: C7_8  and  O2_9 
REMARK    3  A    between atoms: N2_15  and  C11_17 
REMARK    4  A    between atoms: C11_17  and  C12_18 
ROOT
ATOM      1  C2  <0> d           0.375   2.099   0.009  0.00  0.00     0.102 A 
ATOM      2  C3  <0> d          -0.557   3.120   0.024  0.00  0.00     0.057 A 
ATOM      3  C4  <0> d          -1.915   2.811   0.035  0.00  0.00     0.037 A 
ATOM      4  C5  <0> d          -2.335   1.471   0.026  0.00  0.00     0.051 A 
ATOM      5  C6  <0> d          -1.393   0.456   0.017  0.00  0.00     0.070 A 
ATOM      6  C7  <0> d          -0.043   0.769   0.006  0.00  0.00     0.103 A 
ATOM      7  N1  <0> d          -3.698   1.191   0.032  0.00  0.00    -0.332 N 
ATOM      8  H1  <0> d          -3.995   0.268   0.029  0.00  0.00     0.168 HD
ATOM      9  C9  <0> d          -4.610   2.177   0.040  0.00  0.00     0.180 A 
ATOM     10  S1  <0> d          -6.270   1.757   0.045  0.00  0.00    -0.040 SA
ATOM     11  N2  <0> d          -4.277   3.478   0.043  0.00  0.00    -0.303 N 
ATOM     12  C10 <0> d          -2.947   3.868   0.051  0.00  0.00     0.116 A 
ATOM     13  H10 <0> d          -1.709   5.487   0.048  0.00  0.00     0.157 HD
ATOM     14  N3  <0> d          -2.678   5.167   0.055  0.00  0.00    -0.385 N 
ATOM     15  H16 <0> d          -3.444   5.850   0.066  0.00  0.00     0.157 HD
ENDROOT
BRANCH  11  16
ATOM     16  C11 <0> d          -5.330   4.496   0.052  0.00  0.00     0.198 C 
BRANCH  16  17
ATOM     17  C12 <0> d          -5.685   4.839   1.476  0.00  0.00     0.070 A 
ATOM     18  O3  <0> d          -6.627   4.234   2.219  0.00  0.00    -0.325 OA
ATOM     19  C15 <0> d          -6.668   4.799   3.437  0.00  0.00     0.142 A 
ATOM     20  C14 <0> d          -5.746   5.777   3.483  0.00  0.00     0.027 A 
ATOM     21  C13 <0> d          -5.109   5.799   2.221  0.00  0.00     0.036 A 
ENDBRANCH  16  17
ENDBRANCH  11  16
BRANCH   1  22
ATOM     22  O1  <0> d           1.703   2.393  -0.002  0.00  0.00    -0.353 OA
ATOM     23  C1  <0> d           2.061   3.777   0.002  0.00  0.00     0.210 C 
ENDBRANCH   1  22
BRANCH   6  24
ATOM     24  O2  <0> d           0.880  -0.228  -0.008  0.00  0.00    -0.353 OA
ATOM     25  C8  <0> d           0.386  -1.569  -0.011  0.00  0.00     0.210 C 
ENDBRANCH   6  24
TORSDOF 4
