REMARK  6 active torsions:
REMARK  status: ('A' for Active; 'I' for Inactive)
REMARK    1  A    between atoms: C3_4  and  N2_5 
REMARK    2  A    between atoms: N2_5  and  C4_6 
REMARK    3  A    between atoms: N5_14  and  C9_18 
REMARK    4  A    between atoms: C11_20  and  O4_25 
REMARK    5  A    between atoms: C12_21  and  C13_23 
REMARK    6  A    between atoms: C13_23  and  O3_24 
ROOT
ATOM      1  C4  <0> d          -3.491  -0.699   0.032  0.00  0.00     0.710 A 
ATOM      2  N3  <0> d          -4.669  -0.014   0.041  0.00  0.00    -0.152 N 
ATOM      3  H1  <0> d          -4.663   0.956   0.043  0.00  0.00     0.187 HD
ATOM      4  C5  <0> d          -5.845  -0.679   0.048  0.00  0.00     0.292 A 
ATOM      5  O1  <0> d          -6.905  -0.076   0.055  0.00  0.00    -0.265 OA
ATOM      6  C6  <0> d          -5.817  -2.094   0.045  0.00  0.00     0.174 A 
ATOM      7  C7  <0> d          -4.575  -2.738   0.036  0.00  0.00     0.188 A 
ATOM      8  N4  <0> d          -3.451  -2.012   0.024  0.00  0.00    -0.044 NA
ATOM      9  N5  <0> d          -4.843  -4.081   0.035  0.00  0.00    -0.280 N 
ATOM     10  C8  <0> d          -6.200  -4.228   0.044  0.00  0.00     0.182 A 
ATOM     11  N6  <0> d          -6.771  -3.057   0.050  0.00  0.00    -0.214 NA
ATOM     12 Br1  <0> d          -7.115  -5.883   0.047  0.00  0.00    -0.008 Br
ENDROOT
BRANCH   9  13
ATOM     13  C9  <0> d          -3.855  -5.162   0.027  0.00  0.00     0.235 C 
ATOM     14  O2  <0> d          -4.264  -6.210  -0.879  0.00  0.00    -0.356 OA
ATOM     15  C12 <0> d          -3.537  -7.385  -0.453  0.00  0.00     0.176 C 
ATOM     16  C11 <0> d          -3.573  -7.335   1.090  0.00  0.00     0.153 C 
ATOM     17  C10 <0> d          -3.787  -5.840   1.413  0.00  0.00     0.088 C 
BRANCH  15  18
ATOM     18  C13 <0> d          -4.225  -8.653  -0.962  0.00  0.00     0.198 C 
BRANCH  18  19
ATOM     19  O3  <0> d          -4.079  -8.738  -2.381  0.00  0.00    -0.398 OA
ATOM     20  H16 <0> d          -4.492  -9.519  -2.773  0.00  0.00     0.209 HD
ENDBRANCH  18  19
ENDBRANCH  15  18
BRANCH  16  21
ATOM     21  O4  <0> d          -2.335  -7.794   1.637  0.00  0.00    -0.393 OA
ATOM     22  H17 <0> d          -2.283  -7.729   2.601  0.00  0.00     0.210 HD
ENDBRANCH  16  21
ENDBRANCH   9  13
BRANCH   1  23
ATOM     23  N2  <0> d          -2.308   0.006   0.024  0.00  0.00    -0.186 N 
ATOM     24  H18 <0> d          -2.321   0.976   0.029  0.00  0.00     0.185 HD
BRANCH  23  25
ATOM     25  C3  <0> d          -1.108  -0.665   0.009  0.00  0.00     0.195 C 
ATOM     26  N1  <0> d           0.002  -0.004   0.002  0.00  0.00    -0.385 N 
ATOM     27  C1  <0> d          -0.018   1.461   0.010  0.00  0.00     0.149 C 
ATOM     28  C2  <0> d           1.281  -0.719  -0.014  0.00  0.00     0.149 C 
ENDBRANCH  23  25
ENDBRANCH   1  23
TORSDOF 6
