REMARK  6 active torsions:
REMARK  status: ('A' for Active; 'I' for Inactive)
REMARK    1  A    between atoms: C2_2  and  C3_3 
REMARK    2  A    between atoms: C3_3  and  N1_4 
REMARK    3  A    between atoms: C6_7  and  C14_17 
REMARK    4  A    between atoms: C10_12  and  C12_15 
REMARK    5  A    between atoms: C14_17  and  C15_18 
REMARK    6  A    between atoms: C14_17  and  N2_22 
ROOT
ATOM      1  N1  <0> d          -3.160   0.370  -3.710  0.00  0.00    -0.313 N 
ATOM      2  C4  <0> d          -2.277   1.206  -3.012  0.00  0.00     0.071 A 
ATOM      3  C5  <0> d          -1.604   0.745  -1.892  0.00  0.00     0.042 A 
ATOM      4  C6  <0> d          -0.742   1.585  -1.213  0.00  0.00    -0.014 A 
ATOM      5  C7  <0> d          -0.550   2.884  -1.647  0.00  0.00     0.012 A 
ATOM      6  C8  <0> d          -1.207   3.345  -2.773  0.00  0.00     0.040 A 
ATOM      7  C9  <0> d          -2.070   2.509  -3.461  0.00  0.00     0.096 A 
ATOM      8  O1  <0> d          -2.712   2.948  -4.577  0.00  0.00    -0.334 OA
ATOM      9  C10 <0> d          -4.005   2.399  -4.841  0.00  0.00     0.221 C 
ATOM     10  C11 <0> d          -3.969   0.904  -4.649  0.00  0.00     0.254 C 
ATOM     11  O2  <0> d          -4.664   0.184  -5.335  0.00  0.00    -0.270 OA
ENDROOT
BRANCH   4  12
ATOM     12  C14 <0> d          -0.013   1.086   0.008  0.00  0.00     0.357 C 
BRANCH  12  13
ATOM     13  C15 <0> d          -0.729   1.579   1.267  0.00  0.00     0.421 C 
ATOM     14  F1  <0> d          -0.748   2.978   1.274  0.00  0.00    -0.168 F 
ATOM     15  F2  <0> d          -2.041   1.095   1.277  0.00  0.00    -0.168 F 
ATOM     16  F3  <0> d          -0.052   1.116   2.400  0.00  0.00    -0.168 F 
ENDBRANCH  12  13
BRANCH  12  17
ATOM     17  N2  <0> d           1.365   1.594  -0.002  0.00  0.00     0.096 N 
ATOM     18  H18 <0> d           1.897   1.230   0.889  0.00  0.00     0.314 HD
ATOM     19  H19 <0> d           1.880   1.240  -0.907  0.00  0.00     0.314 HD
ENDBRANCH  12  17
ENDBRANCH   4  12
BRANCH   1  20
ATOM     20  C3  <0> d          -3.204  -1.066  -3.423  0.00  0.00     0.132 C 
BRANCH  20  21
ATOM     21  C2  <0> d          -4.230  -1.335  -2.321  0.00  0.00     0.016 C 
ATOM     22  C1  <0> d          -4.275  -2.835  -2.021  0.00  0.00     0.006 C 
ENDBRANCH  20  21
ENDBRANCH   1  20
BRANCH   9  23
ATOM     23  C12 <0> d          -5.024   3.012  -3.878  0.00  0.00     0.038 C 
ATOM     24  C13 <0> d          -5.151   4.511  -4.157  0.00  0.00     0.008 C 
ENDBRANCH   9  23
TORSDOF 6
