REMARK  8 active torsions:
REMARK  status: ('A' for Active; 'I' for Inactive)
REMARK    1  A    between atoms: C2_2  and  C3_3 
REMARK    2  A    between atoms: C3_3  and  N1_4 
REMARK    3  A    between atoms: N1_4  and  C4_5 
REMARK    4  A    between atoms: C4_5  and  S1_26 
REMARK    5  A    between atoms: C5_6  and  C6_7 
REMARK    6  A    between atoms: C5_6  and  N3_19 
REMARK    7  A    between atoms: C6_7  and  C7_9 
REMARK    8  A    between atoms: C10_12  and  N2_15 
REMARK       I    between atoms: N2_15  and  C13_16 
ROOT
ATOM      1  C4  <0> d          -1.397   1.918  -0.008  0.00  0.00     0.094 C 
ATOM      2  C5  <0> d          -2.322   0.877   0.015  0.00  0.00     0.123 C 
ENDROOT
BRANCH   2   3
ATOM      3  C6  <0> d          -3.703   1.162  -0.008  0.00  0.00     0.211 C 
ATOM      4  O1  <0> d          -4.207   1.655  -1.003  0.00  0.00    -0.285 OA
BRANCH   3   5
ATOM      5  C7  <0> d          -4.539   0.863   1.173  0.00  0.00     0.017 A 
ATOM      6  C12 <0> d          -5.925   1.026   1.110  0.00  0.00     0.018 A 
ATOM      7  C11 <0> d          -6.701   0.747   2.212  0.00  0.00     0.030 A 
ATOM      8  C10 <0> d          -6.107   0.302   3.388  0.00  0.00     0.034 A 
ATOM      9  C9  <0> d          -4.727   0.138   3.455  0.00  0.00     0.030 A 
ATOM     10  C8  <0> d          -3.946   0.410   2.354  0.00  0.00     0.018 A 
BRANCH   8  11
ATOM     11  N2  <0> d          -6.896   0.020   4.504  0.00  0.00    -0.328 N 
ATOM     12  C13 <0> d          -8.133  -0.492   4.343  0.00  0.00     0.218 C 
ATOM     13  O2  <0> d          -8.522  -0.799   3.236  0.00  0.00    -0.274 OA
ATOM     14  C14 <0> d          -9.030  -0.684   5.538  0.00  0.00     0.117 C 
ATOM     15  H13 <0> d          -6.510   0.216   5.515  0.00  0.00     0.169 HD
ENDBRANCH   8  11
ENDBRANCH   3   5
ENDBRANCH   2   3
BRANCH   2  16
ATOM     16  N3  <0> d          -1.889  -0.428   0.061  0.00  0.00    -0.324 N 
ATOM     17  C19 <0> d          -2.184  -1.243  -0.943  0.00  0.00     0.136 A 
ATOM     18  C18 <0> d          -1.759  -2.561  -0.930  0.00  0.00     0.123 A 
ATOM     19  C17 <0> d          -1.025  -3.026   0.158  0.00  0.00     0.043 A 
ATOM     20  O3  <0> d          -2.059  -3.392  -1.963  0.00  0.00    -0.191 OA
ATOM     21  C16 <0> d          -0.741  -2.144   1.191  0.00  0.00     0.020 A 
ATOM     22  C15 <0> d          -1.192  -0.843   1.111  0.00  0.00     0.097 A 
ENDBRANCH   2  16
BRANCH   1  23
ATOM     23  N1  <0> d          -0.061   1.643  -0.127  0.00  0.00    -0.383 N 
ATOM     24  H8  <0> d           0.282   0.600  -0.199  0.00  0.00     0.160 HD
BRANCH  23  25
ATOM     25  C3  <0> d           0.912   2.737  -0.157  0.00  0.00     0.120 C 
BRANCH  25  26
ATOM     26  C2  <0> d           2.323   2.162  -0.301  0.00  0.00     0.015 C 
ATOM     27  C1  <0> d           3.339   3.305  -0.333  0.00  0.00     0.006 C 
ENDBRANCH  25  26
ENDBRANCH  23  25
ENDBRANCH   1  23
BRANCH   1  28
ATOM     28  S1  <0> d          -1.945   3.588   0.116  0.00  0.00    -0.123 SA
ATOM     29  H21 <0> d          -3.018   3.808   0.211  0.00  0.00     0.108 HD
ENDBRANCH   1  28
TORSDOF 8
