REMARK  4 active torsions:
REMARK  status: ('A' for Active; 'I' for Inactive)
REMARK    1  A    between atoms: C3_3  and  S1_8 
REMARK    2  A    between atoms: S1_8  and  N2_11 
REMARK    3  A    between atoms: N2_11  and  C6_12 
REMARK    4  A    between atoms: C6_12  and  C7_13 
ROOT
ATOM      1  N2  <0> d           1.570  -0.091  -3.285  0.00  0.00    -0.313 N 
ATOM      2  H8  <0> d           1.915   0.789  -3.504  0.00  0.00     0.172 HD
ENDROOT
BRANCH   1   3
ATOM      3  S1  <0> d          -0.008  -0.267  -2.813  0.00  0.00     0.263 S 
ATOM      4  O2  <0> d          -0.547  -1.328  -3.589  0.00  0.00    -0.200 OA
ATOM      5  O3  <0> d          -0.577   1.035  -2.802  0.00  0.00    -0.200 OA
BRANCH   3   6
ATOM      6  C3  <0> d           0.008  -0.824  -1.141  0.00  0.00     0.137 A 
ATOM      7  C2  <0> d           0.002  -0.004   0.002  0.00  0.00     0.084 A 
ATOM      8  C1  <0> d          -0.018   1.503   0.010  0.00  0.00     0.074 C 
ATOM      9  N1  <0> d           0.023  -0.775   1.052  0.00  0.00    -0.132 NA
ATOM     10  O1  <0> d           0.034  -2.119   0.606  0.00  0.00    -0.216 OA
ATOM     11  C4  <0> d           0.027  -2.108  -0.735  0.00  0.00     0.100 A 
ATOM     12  C5  <0> d           0.039  -3.320  -1.631  0.00  0.00     0.081 C 
ENDBRANCH   3   6
ENDBRANCH   1   3
BRANCH   1  13
ATOM     13  C6  <0> d           2.444  -1.263  -3.371  0.00  0.00     0.166 C 
BRANCH  13  14
ATOM     14  C7  <0> d           3.700  -0.905  -4.169  0.00  0.00     0.171 C 
ATOM     15  O5  <0> d           4.466   0.069  -3.451  0.00  0.00    -0.339 OA
ATOM     16  C14 <0> d           5.745   0.272  -3.872  0.00  0.00     0.102 A 
ATOM     17  C9  <0> d           6.381  -0.655  -4.688  0.00  0.00     0.102 A 
ATOM     18  C13 <0> d           6.417   1.419  -3.475  0.00  0.00     0.039 A 
ATOM     19  O4  <0> d           5.738  -1.784  -5.093  0.00  0.00    -0.346 OA
ATOM     20  C10 <0> d           7.687  -0.432  -5.097  0.00  0.00     0.039 A 
ATOM     21  C8  <0> d           4.567  -2.157  -4.357  0.00  0.00     0.209 C 
ATOM     22  C11 <0> d           8.353   0.712  -4.697  0.00  0.00     0.003 A 
ATOM     23  C12 <0> d           7.718   1.636  -3.888  0.00  0.00     0.003 A 
ENDBRANCH  13  14
ENDBRANCH   1  13
TORSDOF 4
