REMARK  5 active torsions:
REMARK  status: ('A' for Active; 'I' for Inactive)
REMARK    1  A    between atoms: C3_3  and  C18_24 
REMARK    2  A    between atoms: C5_7  and  C6_8 
REMARK       I    between atoms: C6_8  and  N2_10 
REMARK    3  A    between atoms: N2_10  and  C7_11 
REMARK    4  A    between atoms: C7_11  and  C8_12 
REMARK    5  A    between atoms: C13_17  and  N3_18 
ROOT
ATOM      1  C6  <0> d          -0.374  -0.768   2.561  0.00  0.00     0.269 C 
ATOM      2  O1  <0> d          -0.527   0.363   2.983  0.00  0.00    -0.266 OA
ATOM      3  N2  <0> d          -0.398  -1.814   3.410  0.00  0.00    -0.351 N 
ATOM      4  H5  <0> d          -0.276  -2.715   3.073  0.00  0.00     0.163 HD
ENDROOT
BRANCH   3   5
ATOM      5  C7  <0> d          -0.609  -1.590   4.842  0.00  0.00     0.164 C 
BRANCH   5   6
ATOM      6  C8  <0> d          -0.592  -2.912   5.565  0.00  0.00    -0.012 A 
ATOM      7  C13 <0> d           0.617  -3.520   5.874  0.00  0.00     0.066 A 
ATOM      8  C12 <0> d           0.628  -4.735   6.545  0.00  0.00     0.032 A 
ATOM      9  C11 <0> d          -0.563  -5.341   6.894  0.00  0.00     0.002 A 
ATOM     10  C10 <0> d          -1.766  -4.735   6.580  0.00  0.00     0.001 A 
ATOM     11  C9  <0> d          -1.780  -3.522   5.917  0.00  0.00     0.011 A 
BRANCH   7  12
ATOM     12  N3  <0> d           1.824  -2.906   5.513  0.00  0.00    -0.245 N 
ATOM     13  N4  <0> d           1.959  -1.684   4.841  0.00  0.00    -0.180 NA
ATOM     14  C16 <0> d           3.236  -1.441   4.686  0.00  0.00     0.140 A 
ATOM     15  C15 <0> d           3.955  -2.503   5.245  0.00  0.00     0.040 A 
ATOM     16  C14 <0> d           3.065  -3.390   5.747  0.00  0.00     0.120 A 
ENDBRANCH   7  12
ENDBRANCH   5   6
ENDBRANCH   3   5
BRANCH   1  17
ATOM     17  C5  <0> d          -0.164  -0.992   1.125  0.00  0.00     0.108 A 
ATOM     18  C2  <0> d          -0.118  -0.026   0.165  0.00  0.00    -0.014 A 
ATOM     19  C1  <0> d          -0.274   1.457   0.379  0.00  0.00     0.052 C 
ATOM     20  C3  <0> d           0.109  -0.680  -1.070  0.00  0.00     0.040 A 
ATOM     21  C4  <0> d           0.186  -2.038  -0.800  0.00  0.00     0.020 A 
ATOM     22  N1  <0> d           0.018  -2.217   0.518  0.00  0.00    -0.354 N 
ATOM     23  C17 <0> d           0.420  -3.127  -1.815  0.00  0.00     0.069 C 
ATOM     24  H1  <0> d           0.028  -3.073   0.974  0.00  0.00     0.166 HD
BRANCH  20  25
ATOM     25  C18 <0> d           0.237  -0.043  -2.384  0.00  0.00     0.158 C 
ATOM     26  O2  <0> d          -0.752   0.175  -3.051  0.00  0.00    -0.293 OA
ATOM     27  C19 <0> d           1.598   0.341  -2.906  0.00  0.00     0.097 C 
ENDBRANCH  20  25
ENDBRANCH   1  17
TORSDOF 5
