REMARK  6 active torsions:
REMARK  status: ('A' for Active; 'I' for Inactive)
REMARK    1  A    between atoms: C2_2  and  C3_3 
REMARK    2  A    between atoms: C3_3  and  C4_4 
REMARK    3  A    between atoms: C3_3  and  N3_21 
REMARK    4  A    between atoms: C4_4  and  C5_5 
REMARK    5  A    between atoms: C4_4  and  S2_11 
REMARK    6  A    between atoms: S2_11  and  C10_12 
ROOT
ATOM      1  C4  <0> d          -1.514  -2.059  -0.056  0.00  0.00     0.126 C 
ENDROOT
BRANCH   1   2
ATOM      2  C3  <0> d          -1.459  -0.532   0.028  0.00  0.00     0.202 C 
BRANCH   2   3
ATOM      3  C2  <0> d          -2.002   0.070  -1.269  0.00  0.00     0.030 C 
ATOM      4  C1  <0> d          -2.072   1.593  -1.134  0.00  0.00     0.007 C 
ENDBRANCH   2   3
BRANCH   2   5
ATOM      5  N3  <0> d          -0.067  -0.103   0.222  0.00  0.00    -0.074 N 
ATOM      6  H18 <0> d          -0.030   0.904   0.278  0.00  0.00     0.274 HD
ATOM      7  H19 <0> d           0.291  -0.500   1.078  0.00  0.00     0.274 HD
ATOM      8  H20 <0> d           0.493  -0.418  -0.556  0.00  0.00     0.274 HD
ENDBRANCH   2   5
ENDBRANCH   1   2
BRANCH   1   9
ATOM      9  C5  <0> d          -2.952  -2.506  -0.124  0.00  0.00     0.005 A 
ATOM     10  S1  <0> d          -4.173  -2.570   1.177  0.00  0.00    -0.105 SA
ATOM     11  C8  <0> d          -5.536  -3.201   0.213  0.00  0.00     0.051 A 
ATOM     12  C7  <0> d          -4.976  -3.326  -1.015  0.00  0.00     0.015 A 
ATOM     13  C6  <0> d          -3.652  -2.970  -1.188  0.00  0.00    -0.047 A 
ATOM     14  C9  <0> d          -2.997  -3.094  -2.539  0.00  0.00     0.049 C 
ENDBRANCH   1   9
BRANCH   1  15
ATOM     15  S2  <0> d          -0.728  -2.774   1.414  0.00  0.00    -0.080 SA
BRANCH  15  16
ATOM     16  C10 <0> d          -0.645  -4.498   1.057  0.00  0.00     0.170 A 
ATOM     17  N1  <0> d          -1.206  -4.960  -0.044  0.00  0.00    -0.229 NA
ATOM     18  C11 <0> d          -1.166  -6.253  -0.351  0.00  0.00     0.038 A 
ATOM     19  C12 <0> d          -0.535  -7.135   0.478  0.00  0.00     0.101 A 
ATOM     20  C14 <0> d          -1.819  -6.747  -1.617  0.00  0.00     0.070 C 
ATOM     21  C13 <0> d           0.066  -6.652   1.654  0.00  0.00     0.249 A 
ATOM     22  N2  <0> d           0.003  -5.330   1.919  0.00  0.00    -0.302 N 
ATOM     23  O1  <0> d           0.638  -7.413   2.417  0.00  0.00    -0.268 OA
ATOM     24  H3  <0> d           0.413  -4.974   2.723  0.00  0.00     0.171 HD
ENDBRANCH  15  16
ENDBRANCH   1  15
TORSDOF 6
