REMARK  4 active torsions:
REMARK  status: ('A' for Active; 'I' for Inactive)
REMARK    1  A    between atoms: C2_2  and  C5_5 
REMARK    2  A    between atoms: C8_8  and  N1_11 
REMARK       I    between atoms: N1_11  and  C11_12 
REMARK    3  A    between atoms: C11_12  and  C12_14 
REMARK    4  A    between atoms: N3_16  and  C16_21 
ROOT
ATOM      1  C12 <0> d          -4.853   0.944   0.241  0.00  0.00     0.123 C 
ATOM      2  N2  <0> d          -4.824  -0.352   0.227  0.00  0.00    -0.168 NA
ATOM      3  N3  <0> d          -5.999  -1.103   0.335  0.00  0.00    -0.232 N 
ATOM      4  C13 <0> d          -7.193  -0.541   0.062  0.00  0.00     0.240 C 
ATOM      5  O2  <0> d          -8.208  -1.199   0.147  0.00  0.00    -0.272 OA
ATOM      6  C14 <0> d          -7.262   0.907  -0.350  0.00  0.00     0.111 C 
ATOM      7  C15 <0> d          -6.157   1.687   0.365  0.00  0.00     0.076 C 
ENDROOT
BRANCH   1   8
ATOM      8  C11 <0> d          -3.599   1.697   0.130  0.00  0.00     0.272 C 
ATOM      9  N1  <0> d          -2.427   1.042   0.019  0.00  0.00    -0.322 N 
ATOM     10  H15 <0> d          -2.418   0.075  -0.064  0.00  0.00     0.169 HD
ATOM     11  O1  <0> d          -3.617   2.914   0.137  0.00  0.00    -0.266 OA
BRANCH   9  12
ATOM     12  C8  <0> d          -1.224   1.754   0.023  0.00  0.00     0.035 A 
ATOM     13  C7  <0> d          -1.104   2.913   0.780  0.00  0.00     0.030 A 
ATOM     14  C6  <0> d           0.087   3.611   0.787  0.00  0.00     0.010 A 
ATOM     15  C5  <0> d           1.159   3.161   0.038  0.00  0.00    -0.051 A 
ATOM     16  C10 <0> d           1.041   2.011  -0.722  0.00  0.00     0.010 A 
ATOM     17  C9  <0> d          -0.148   1.308  -0.734  0.00  0.00     0.030 A 
BRANCH  15  18
ATOM     18  C2  <0> d           2.458   3.925   0.048  0.00  0.00    -0.024 C 
ATOM     19  C1  <0> d           3.003   3.984   1.476  0.00  0.00     0.019 C 
ATOM     20  C3  <0> d           3.471   3.221  -0.856  0.00  0.00     0.019 C 
ATOM     21  C4  <0> d           2.217   5.346  -0.465  0.00  0.00     0.019 C 
ENDBRANCH  15  18
ENDBRANCH   9  12
ENDBRANCH   1   8
BRANCH   3  22
ATOM     22  C16 <0> d          -5.932  -2.509   0.742  0.00  0.00     0.128 C 
ATOM     23  C19 <0> d          -5.263  -2.619   2.142  0.00  0.00     0.167 C 
ATOM     24  S1  <0> d          -4.754  -4.390   2.134  0.00  0.00     0.146 S 
ATOM     25  C18 <0> d          -4.734  -4.693   0.320  0.00  0.00     0.142 C 
ATOM     26  O3  <0> d          -5.786  -5.170   2.722  0.00  0.00    -0.228 OA
ATOM     27  O4  <0> d          -3.428  -4.492   2.635  0.00  0.00    -0.228 OA
ATOM     28  C17 <0> d          -5.075  -3.300  -0.261  0.00  0.00     0.043 C 
ENDBRANCH   3  22
TORSDOF 4
