REMARK  4 active torsions:
REMARK  status: ('A' for Active; 'I' for Inactive)
REMARK    1  A    between atoms: N2_5  and  N3_8 
REMARK       I    between atoms: N3_8  and  C6_9 
REMARK    2  A    between atoms: C6_9  and  C7_11 
REMARK    3  A    between atoms: C9_13  and  S1_19 
REMARK    4  A    between atoms: S1_19  and  N4_22 
ROOT
ATOM      1  C7  <0> d           2.595  -5.859  -0.005  0.00  0.00     0.056 A 
ATOM      2  C8  <0> d           1.457  -6.668  -0.021  0.00  0.00     0.045 A 
ATOM      3  C9  <0> d           1.590  -8.038  -0.091  0.00  0.00     0.102 A 
ATOM      4  C10 <0> d           2.849  -8.614  -0.146  0.00  0.00     0.059 A 
ATOM      5  C11 <0> d           3.982  -7.818  -0.130  0.00  0.00     0.050 A 
ATOM      6  C12 <0> d           3.862  -6.444  -0.066  0.00  0.00     0.051 A 
ATOM      7 Cl1  <0> d           5.283  -5.447  -0.054  0.00  0.00    -0.083 Cl
ATOM      8 Cl2  <0> d           3.007 -10.340  -0.234  0.00  0.00    -0.083 Cl
ENDROOT
BRANCH   1   9
ATOM      9  C6  <0> d           2.460  -4.389   0.070  0.00  0.00     0.267 C 
ATOM     10  N3  <0> d           1.236  -3.828   0.130  0.00  0.00    -0.285 N 
ATOM     11  H12 <0> d           0.444  -4.388   0.123  0.00  0.00     0.184 HD
ATOM     12  O1  <0> d           3.452  -3.687   0.079  0.00  0.00    -0.266 OA
BRANCH  10  13
ATOM     13  N2  <0> d           1.111  -2.469   0.199  0.00  0.00    -0.225 NA
ATOM     14  C3  <0> d           0.349  -1.951  -0.946  0.00  0.00     0.141 C 
ATOM     15  C2  <0> d           0.282  -0.425  -0.862  0.00  0.00     0.250 C 
ATOM     16  N1  <0> d          -0.364  -0.031   0.397  0.00  0.00    -0.073 N 
ATOM     17  C1  <0> d          -0.444   1.434   0.469  0.00  0.00     0.269 C 
ATOM     18  C5  <0> d           0.421  -0.535   1.531  0.00  0.00     0.250 C 
ATOM     19  H23 <0> d          -1.294  -0.421   0.433  0.00  0.00     0.279 HD
ATOM     20  C4  <0> d           0.489  -2.062   1.467  0.00  0.00     0.141 C 
ENDBRANCH  10  13
ENDBRANCH   1   9
BRANCH   3  21
ATOM     21  S1  <0> d           0.155  -9.060  -0.111  0.00  0.00     0.262 S 
ATOM     22  O2  <0> d           0.387 -10.105   0.824  0.00  0.00    -0.200 OA
ATOM     23  O3  <0> d          -0.965  -8.190  -0.019  0.00  0.00    -0.200 OA
BRANCH  21  24
ATOM     24  N4  <0> d           0.080  -9.770  -1.606  0.00  0.00    -0.303 N 
ATOM     25  C16 <0> d           0.584 -11.135  -1.822  0.00  0.00     0.161 C 
ATOM     26  C15 <0> d           1.523 -11.123  -3.028  0.00  0.00     0.188 C 
ATOM     27  O4  <0> d           0.862 -10.508  -4.136  0.00  0.00    -0.388 OA
ATOM     28  C14 <0> d           0.509  -9.139  -3.920  0.00  0.00     0.188 C 
ATOM     29  C13 <0> d          -0.487  -9.052  -2.758  0.00  0.00     0.161 C 
ENDBRANCH  21  24
ENDBRANCH   3  21
TORSDOF 4
