REMARK  4 active torsions:
REMARK  status: ('A' for Active; 'I' for Inactive)
REMARK    1  A    between atoms: N1_8  and  C12_14 
REMARK    2  A    between atoms: C12_14  and  C14_16 
REMARK       I    between atoms: C14_16  and  N2_18 
REMARK    3  A    between atoms: N2_18  and  C15_19 
REMARK    4  A    between atoms: C16_20  and  C23_28 
REMARK       I    between atoms: C23_28  and  N3_30 
ROOT
ATOM      1  C14 <0> d          -1.690   1.751   0.759  0.00  0.00     0.245 C 
ATOM      2  O2  <0> d          -1.730   0.636   1.235  0.00  0.00    -0.271 OA
ATOM      3  N2  <0> d          -1.007   2.727   1.389  0.00  0.00    -0.319 N 
ATOM      4  H15 <0> d          -0.970   3.738   0.958  0.00  0.00     0.169 HD
ENDROOT
BRANCH   1   5
ATOM      5  C12 <0> d          -2.396   2.042  -0.539  0.00  0.00     0.181 C 
ATOM      6  C13 <0> d          -3.445   3.133  -0.315  0.00  0.00     0.043 C 
BRANCH   5   7
ATOM      7  N1  <0> d          -3.053   0.825  -1.022  0.00  0.00    -0.300 N 
ATOM      8  C7  <0> d          -2.356  -0.049  -1.828  0.00  0.00     0.055 A 
ATOM      9  C2  <0> d          -1.035   0.202  -2.181  0.00  0.00    -0.034 A 
ATOM     10  C6  <0> d          -2.984  -1.222  -2.288  0.00  0.00    -0.003 A 
ATOM     11  C1  <0> d          -0.345   1.450  -1.693  0.00  0.00     0.050 C 
ATOM     12  C3  <0> d          -0.360  -0.692  -2.984  0.00  0.00     0.009 A 
ATOM     13  C4  <0> d          -0.984  -1.845  -3.441  0.00  0.00     0.002 A 
ATOM     14  C5  <0> d          -2.279  -2.115  -3.102  0.00  0.00     0.014 A 
ATOM     15  C10 <0> d          -4.374  -1.480  -1.907  0.00  0.00    -0.044 A 
ATOM     16  C9  <0> d          -5.006  -0.579  -1.116  0.00  0.00     0.082 A 
ATOM     17  C11 <0> d          -5.085  -2.721  -2.382  0.00  0.00     0.049 C 
ATOM     18  C8  <0> d          -4.329   0.579  -0.676  0.00  0.00     0.249 A 
ATOM     19  O1  <0> d          -4.917   1.377   0.034  0.00  0.00    -0.268 OA
ENDBRANCH   5   7
ENDBRANCH   1   5
BRANCH   3  20
ATOM     20  C15 <0> d          -0.352   2.457   2.581  0.00  0.00     0.093 A 
ATOM     21  S1  <0> d          -0.266   0.959   3.447  0.00  0.00    -0.075 SA
ATOM     22  C18 <0> d           0.734   1.476   4.814  0.00  0.00    -0.008 A 
ATOM     23  C17 <0> d           0.984   2.783   4.584  0.00  0.00    -0.026 A 
ATOM     24  C19 <0> d           1.206   0.657   5.975  0.00  0.00     0.047 C 
ATOM     25  C16 <0> d           0.399   3.320   3.367  0.00  0.00     0.072 A 
ATOM     26  C22 <0> d           1.827   3.603   5.553  0.00  0.00     0.041 C 
ATOM     27  C21 <0> d           1.884   2.873   6.896  0.00  0.00     0.005 C 
ATOM     28  C20 <0> d           2.333   1.424   6.682  0.00  0.00     0.005 C 
BRANCH  25  29
ATOM     29  C23 <0> d           0.593   4.722   2.985  0.00  0.00     0.252 C 
ATOM     30  O3  <0> d          -0.193   5.571   3.363  0.00  0.00    -0.268 OA
ATOM     31  N3  <0> d           1.642   5.072   2.214  0.00  0.00    -0.366 N 
ATOM     32  H24 <0> d           1.788   6.124   1.927  0.00  0.00     0.159 HD
ATOM     33  H25 <0> d           2.353   4.305   1.872  0.00  0.00     0.159 HD
ENDBRANCH  25  29
ENDBRANCH   3  20
TORSDOF 4
