REMARK  5 active torsions:
REMARK  status: ('A' for Active; 'I' for Inactive)
REMARK    1  A    between atoms: O1_2  and  C2_3 
REMARK    2  A    between atoms: C5_6  and  N1_11 
REMARK    3  A    between atoms: C6_7  and  O2_9 
REMARK       I    between atoms: N1_11  and  C9_12 
REMARK    4  A    between atoms: C9_12  and  C10_14 
REMARK    5  A    between atoms: C10_14  and  C11_15 
ROOT
ATOM      1  N1  <0> d           2.546  -2.497   4.238  0.00  0.00    -0.325 N 
ATOM      2  C9  <0> d           3.192  -1.760   5.163  0.00  0.00     0.223 C 
ATOM      3  O3  <0> d           3.140  -0.549   5.118  0.00  0.00    -0.273 OA
ATOM      4  H11 <0> d           2.521  -3.463   4.319  0.00  0.00     0.169 HD
ENDROOT
BRANCH   2   5
ATOM      5  C10 <0> d           3.981  -2.440   6.253  0.00  0.00     0.128 C 
BRANCH   5   6
ATOM      6  C11 <0> d           4.610  -1.383   7.162  0.00  0.00     0.153 C 
ATOM      7  S1  <0> d           5.839  -0.424   6.225  0.00  0.00    -0.113 SA
ATOM      8  C18 <0> d           7.200  -1.554   6.123  0.00  0.00     0.028 A 
ATOM      9  C13 <0> d           7.389  -2.489   7.141  0.00  0.00     0.051 A 
ATOM     10  C17 <0> d           8.069  -1.500   5.046  0.00  0.00     0.021 A 
ATOM     11  N2  <0> d           6.525  -2.577   8.229  0.00  0.00    -0.325 N 
ATOM     12  C14 <0> d           8.472  -3.359   7.062  0.00  0.00     0.031 A 
ATOM     13  C12 <0> d           5.305  -2.058   8.317  0.00  0.00     0.236 C 
ATOM     14  H14 <0> d           6.847  -3.067   9.002  0.00  0.00     0.169 HD
ATOM     15  O4  <0> d           4.722  -2.131   9.378  0.00  0.00    -0.272 OA
ATOM     16  C15 <0> d           9.338  -3.297   5.989  0.00  0.00     0.002 A 
ATOM     17  C16 <0> d           9.139  -2.373   4.980  0.00  0.00     0.002 A 
ENDBRANCH   5   6
ENDBRANCH   2   5
BRANCH   1  18
ATOM     18  C5  <0> d           1.910  -1.867   3.158  0.00  0.00     0.068 A 
ATOM     19  C4  <0> d           2.337  -0.617   2.733  0.00  0.00     0.035 A 
ATOM     20  C3  <0> d           1.711   0.003   1.669  0.00  0.00     0.039 A 
ATOM     21  C2  <0> d           0.654  -0.622   1.024  0.00  0.00     0.070 A 
ATOM     22  C7  <0> d           0.219  -1.868   1.448  0.00  0.00     0.075 A 
ATOM     23  C6  <0> d           0.849  -2.495   2.511  0.00  0.00     0.097 A 
BRANCH  21  24
ATOM     24  O1  <0> d           0.040  -0.009  -0.024  0.00  0.00    -0.356 OA
ATOM     25  C1  <0> d           0.540   1.274  -0.408  0.00  0.00     0.210 C 
ENDBRANCH  21  24
BRANCH  23  26
ATOM     26  O2  <0> d           0.428  -3.720   2.925  0.00  0.00    -0.354 OA
ATOM     27  C8  <0> d          -0.666  -4.304   2.215  0.00  0.00     0.210 C 
ENDBRANCH  23  26
ENDBRANCH   1  18
TORSDOF 5
