REMARK  7 active torsions:
REMARK  status: ('A' for Active; 'I' for Inactive)
REMARK    1  A    between atoms: C2_2  and  C23_33 
REMARK    2  A    between atoms: N1_5  and  C5_9 
REMARK    3  A    between atoms: C5_9  and  C6_10 
REMARK       I    between atoms: C6_10  and  N3_12 
REMARK    4  A    between atoms: N3_12  and  N4_13 
REMARK       I    between atoms: N4_13  and  C7_14 
REMARK    5  A    between atoms: C7_14  and  C8_16 
REMARK    6  A    between atoms: N5_18  and  C17_27 
REMARK    7  A    between atoms: C10_20  and  C11_21 
ROOT
ATOM      1  N4  <0> d          -2.846  -3.190   0.011  0.00  0.00    -0.263 N 
ATOM      2  C7  <0> d          -1.504  -3.310  -0.003  0.00  0.00     0.274 C 
ATOM      3  O4  <0> d          -0.992  -4.413  -0.014  0.00  0.00    -0.266 OA
ATOM      4  H8  <0> d          -3.310  -2.193   0.022  0.00  0.00     0.190 HD
ENDROOT
BRANCH   1   5
ATOM      5  N3  <0> d          -3.652  -4.337   0.012  0.00  0.00    -0.266 N 
ATOM      6  C6  <0> d          -4.994  -4.217   0.026  0.00  0.00     0.254 C 
ATOM      7  O3  <0> d          -5.505  -3.117   0.038  0.00  0.00    -0.270 OA
ATOM      8  H7  <0> d          -3.189  -5.334   0.002  0.00  0.00     0.190 HD
BRANCH   6   9
ATOM      9  C5  <0> d          -5.861  -5.450   0.027  0.00  0.00     0.241 C 
BRANCH   9  10
ATOM     10  N1  <0> d          -7.271  -5.056   0.043  0.00  0.00    -0.259 N 
ATOM     11  C3  <0> d          -8.011  -4.845  -1.063  0.00  0.00     0.256 A 
ATOM     12  C2  <0> d          -9.391  -4.462  -0.567  0.00  0.00     0.116 A 
ATOM     13  O1  <0> d          -7.649  -4.941  -2.216  0.00  0.00    -0.270 OA
ATOM     14  C1  <0> d          -9.760  -3.053  -1.035  0.00  0.00     0.049 C 
ATOM     15  N2  <0> d          -9.256  -4.505   0.900  0.00  0.00    -0.324 N 
ATOM     16  C4  <0> d          -7.986  -4.865   1.158  0.00  0.00     0.326 A 
ATOM     17  H4  <0> d         -10.118  -4.263   1.539  0.00  0.00     0.165 HD
ATOM     18  O2  <0> d          -7.537  -5.000   2.280  0.00  0.00    -0.247 OA
BRANCH  12  19
ATOM     19  C23 <0> d         -10.435  -5.475  -1.041  0.00  0.00     0.023 A 
ATOM     20  C25 <0> d         -11.902  -5.177  -0.727  0.00  0.00     0.008 A 
ATOM     21  C24 <0> d         -11.384  -5.041  -2.160  0.00  0.00     0.008 A 
ENDBRANCH  12  19
ENDBRANCH   9  10
ENDBRANCH   6   9
ENDBRANCH   1   5
BRANCH   2  22
ATOM     22  C8  <0> d          -0.657  -2.105  -0.004  0.00  0.00     0.082 A 
ATOM     23  C10 <0> d           0.808  -2.061  -0.018  0.00  0.00     0.105 A 
ATOM     24  N6  <0> d           1.155  -0.794  -0.019  0.00  0.00    -0.166 NA
ATOM     25  N5  <0> d           0.002  -0.004   0.002  0.00  0.00    -0.244 N 
ATOM     26  C9  <0> d          -1.086  -0.794   0.008  0.00  0.00     0.138 A 
BRANCH  23  27
ATOM     27  C11 <0> d           1.725  -3.226  -0.033  0.00  0.00    -0.005 A 
ATOM     28  C16 <0> d           2.927  -3.162  -0.736  0.00  0.00     0.014 A 
ATOM     29  C15 <0> d           3.776  -4.249  -0.747  0.00  0.00     0.001 A 
ATOM     30  C14 <0> d           3.437  -5.402  -0.061  0.00  0.00     0.000 A 
ATOM     31  C13 <0> d           2.246  -5.472   0.638  0.00  0.00     0.001 A 
ATOM     32  C12 <0> d           1.391  -4.389   0.660  0.00  0.00     0.014 A 
ENDBRANCH  23  27
BRANCH  25  33
ATOM     33  C17 <0> d          -0.017   1.397   0.010  0.00  0.00     0.058 A 
ATOM     34  C22 <0> d           1.175   2.109   0.002  0.00  0.00     0.031 A 
ATOM     35  C21 <0> d           1.153   3.490   0.009  0.00  0.00     0.002 A 
ATOM     36  C20 <0> d          -0.054   4.163   0.024  0.00  0.00     0.000 A 
ATOM     37  C19 <0> d          -1.243   3.457   0.032  0.00  0.00     0.002 A 
ATOM     38  C18 <0> d          -1.228   2.076   0.019  0.00  0.00     0.031 A 
ENDBRANCH  25  33
ENDBRANCH   2  22
TORSDOF 7
