REMARK  5 active torsions:
REMARK  status: ('A' for Active; 'I' for Inactive)
REMARK    1  A    between atoms: N1_2  and  C2_3 
REMARK    2  A    between atoms: N1_2  and  C7_9 
REMARK    3  A    between atoms: C2_3  and  C3_4 
REMARK    4  A    between atoms: N2_12  and  S1_15 
REMARK    5  A    between atoms: S1_15  and  C12_18 
ROOT
ATOM      1  C7  <0> d           2.242   0.168  -1.090  0.00  0.00     0.191 C 
ATOM      2  C8  <0> d           0.858  -0.479  -1.176  0.00  0.00     0.054 C 
ATOM      3  C9  <0> d           0.002  -0.004   0.002  0.00  0.00     0.137 C 
ATOM      4  N2  <0> d          -0.018   1.465   0.010  0.00  0.00    -0.307 N 
ATOM      5  C10 <0> d           1.261   2.189   0.002  0.00  0.00     0.137 C 
ATOM      6  C11 <0> d           2.103   1.689  -1.177  0.00  0.00     0.054 C 
ENDROOT
BRANCH   4   7
ATOM      7  S1  <0> d          -1.454   2.289   0.021  0.00  0.00     0.260 S 
ATOM      8  O2  <0> d          -1.189   3.575  -0.524  0.00  0.00    -0.200 OA
ATOM      9  O3  <0> d          -2.429   1.414  -0.530  0.00  0.00    -0.200 OA
BRANCH   7  10
ATOM     10  C12 <0> d          -1.898   2.539   1.708  0.00  0.00     0.080 A 
ATOM     11  C17 <0> d          -2.664   1.609   2.352  0.00  0.00     0.039 A 
ATOM     12  C16 <0> d          -3.012   1.805   3.692  0.00  0.00    -0.008 A 
ATOM     13  C15 <0> d          -2.581   2.963   4.366  0.00  0.00     0.045 A 
ATOM     14  C18 <0> d          -3.828   0.827   4.414  0.00  0.00     0.019 A 
ATOM     15  C14 <0> d          -1.807   3.900   3.688  0.00  0.00     0.032 A 
ATOM     16  N3  <0> d          -2.932   3.155   5.686  0.00  0.00    -0.323 N 
ATOM     17  C13 <0> d          -1.471   3.683   2.370  0.00  0.00     0.027 A 
ATOM     18  C20 <0> d          -3.681   2.250   6.340  0.00  0.00     0.245 A 
ATOM     19  H2  <0> d          -2.599   4.058   6.218  0.00  0.00     0.169 HD
ATOM     20  C19 <0> d          -4.138   1.072   5.710  0.00  0.00     0.075 A 
ATOM     21  O4  <0> d          -3.973   2.452   7.506  0.00  0.00    -0.268 OA
ENDBRANCH   7  10
ENDBRANCH   4   7
BRANCH   1  22
ATOM     22  N1  <0> d           3.077  -0.311  -2.200  0.00  0.00    -0.068 N 
ATOM     23  C1  <0> d           2.553   0.155  -3.491  0.00  0.00     0.270 C 
ATOM     24  H28 <0> d           3.043  -1.411  -2.198  0.00  0.00     0.280 HD
BRANCH  22  25
ATOM     25  C2  <0> d           4.476   0.097  -2.021  0.00  0.00     0.266 C 
BRANCH  25  26
ATOM     26  C3  <0> d           5.353  -0.620  -3.049  0.00  0.00     0.147 C 
ATOM     27  O1  <0> d           5.281  -2.042  -2.859  0.00  0.00    -0.384 OA
ATOM     28  C6  <0> d           6.560  -2.635  -3.115  0.00  0.00     0.168 C 
ATOM     29  C5  <0> d           7.542  -1.495  -3.459  0.00  0.00     0.029 C 
ATOM     30  C4  <0> d           6.843  -0.258  -2.832  0.00  0.00     0.036 C 
ENDBRANCH  25  26
ENDBRANCH  22  25
ENDBRANCH   1  22
TORSDOF 5
