REMARK  4 active torsions:
REMARK  status: ('A' for Active; 'I' for Inactive)
REMARK    1  A    between atoms: C2_2  and  C4_4 
REMARK    2  A    between atoms: C4_4  and  C5_5 
REMARK    3  A    between atoms: C4_4  and  N1_17 
REMARK    4  A    between atoms: C8_8  and  C9_10 
ROOT
ATOM      1  C5  <0> d           0.037  -0.025   2.481  0.00  0.00     0.014 A 
ATOM      2  C6  <0> d           0.347   1.025   3.284  0.00  0.00     0.018 A 
ATOM      3  C7  <0> d          -0.446   1.292   4.378  0.00  0.00     0.021 A 
ATOM      4  C8  <0> d          -1.525   0.484   4.621  0.00  0.00     0.015 A 
ATOM      5  S1  <0> d          -1.427  -0.677   3.269  0.00  0.00    -0.092 SA
ENDROOT
BRANCH   1   6
ATOM      6  C4  <0> d           0.742  -0.511   1.242  0.00  0.00     0.226 C 
BRANCH   6   7
ATOM      7  C2  <0> d           0.002  -0.004   0.002  0.00  0.00     0.013 C 
ATOM      8  C1  <0> d          -0.019   1.526   0.010  0.00  0.00     0.012 C 
ATOM      9  C3  <0> d           0.718  -0.497  -1.257  0.00  0.00     0.012 C 
ENDBRANCH   6   7
BRANCH   6  10
ATOM     10  N1  <0> d           0.762  -1.980   1.234  0.00  0.00    -0.070 N 
ATOM     11  H15 <0> d          -0.185  -2.329   1.241  0.00  0.00     0.275 HD
ATOM     12  H16 <0> d           1.234  -2.305   0.403  0.00  0.00     0.275 HD
ATOM     13  H17 <0> d           1.250  -2.314   2.051  0.00  0.00     0.275 HD
ENDBRANCH   6  10
ENDBRANCH   1   6
BRANCH   4  14
ATOM     14  C9  <0> d          -2.517   0.559   5.715  0.00  0.00    -0.019 A 
ATOM     15  C14 <0> d          -3.555  -0.372   5.784  0.00  0.00     0.014 A 
ATOM     16  C13 <0> d          -4.474  -0.300   6.810  0.00  0.00     0.019 A 
ATOM     17  C12 <0> d          -4.375   0.698   7.764  0.00  0.00     0.006 A 
ATOM     18  C11 <0> d          -3.351   1.627   7.697  0.00  0.00     0.019 A 
ATOM     19  I1  <0> d          -5.780   0.803   9.314  0.00  0.00    -0.045 I 
ATOM     20  C10 <0> d          -2.422   1.563   6.679  0.00  0.00     0.014 A 
ENDBRANCH   4  14
TORSDOF 4
