REMARK  2 active torsions:
REMARK  status: ('A' for Active; 'I' for Inactive)
REMARK    1  A    between atoms: C9_9  and  N1_12 
REMARK    2  A    between atoms: C10_10  and  O1_11 
ROOT
ATOM      1  C1  <0> d          -0.019   1.372   0.013  0.00  0.00     0.001 A 
ATOM      2  C2  <0> d           1.172   2.076   0.009  0.00  0.00     0.001 A 
ATOM      3  C3  <0> d           2.370   1.393  -0.003  0.00  0.00     0.010 A 
ATOM      4  C4  <0> d           2.392   0.004  -0.013  0.00  0.00    -0.021 A 
ATOM      5  C5  <0> d           1.207  -0.696  -0.015  0.00  0.00    -0.049 A 
ATOM      6  C6  <0> d           0.001  -0.007   0.002  0.00  0.00     0.007 A 
ATOM      7  C7  <0> d           1.154  -2.201  -0.042  0.00  0.00     0.041 C 
ATOM      8  C8  <0> d           2.500  -2.793   0.372  0.00  0.00     0.043 C 
ATOM      9  C9  <0> d           3.599  -2.130  -0.467  0.00  0.00     0.257 C 
ATOM     10  C10 <0> d           3.736  -0.676  -0.019  0.00  0.00     0.185 C 
ENDROOT
BRANCH   9  11
ATOM     11  N1  <0> d           4.872  -2.834  -0.260  0.00  0.00     0.104 N 
ATOM     12  C16 <0> d           4.731  -4.273  -0.542  0.00  0.00     0.349 C 
ATOM     13  C15 <0> d           6.100  -4.905  -0.448  0.00  0.00     0.112 A 
ATOM     14  N2  <0> d           7.252  -4.190  -0.459  0.00  0.00    -0.342 N 
ATOM     15  N3  <0> d           6.395  -6.165  -0.343  0.00  0.00    -0.353 N 
ATOM     16  C12 <0> d           7.306  -2.730  -0.569  0.00  0.00     0.160 C 
ATOM     17  C13 <0> d           8.282  -5.072  -0.353  0.00  0.00     0.109 A 
ATOM     18  C11 <0> d           5.942  -2.236  -1.070  0.00  0.00     0.293 C 
ATOM     19  C14 <0> d           7.731  -6.302  -0.282  0.00  0.00     0.106 A 
ATOM     20  H20 <0> d           5.754  -6.893  -0.314  0.00  0.00     0.166 HD
ENDBRANCH   9  11
BRANCH  10  21
ATOM     21  O1  <0> d           4.289  -0.638   1.298  0.00  0.00    -0.389 OA
ATOM     22  H11 <0> d           4.421   0.255   1.643  0.00  0.00     0.210 HD
ENDBRANCH  10  21
TORSDOF 2
