REMARK  4 active torsions:
REMARK  status: ('A' for Active; 'I' for Inactive)
REMARK    1  A    between atoms: C3_3  and  S1_9 
REMARK    2  A    between atoms: S1_9  and  N3_12 
REMARK    3  A    between atoms: N3_12  and  C6_13 
REMARK    4  A    between atoms: C6_13  and  C7_14 
ROOT
ATOM      1  S1  <0> d          -0.008  -0.247  -2.770  0.00  0.00     0.262 S 
ATOM      2  O1  <0> d          -0.548  -1.312  -3.541  0.00  0.00    -0.200 OA
ATOM      3  O2  <0> d          -0.578   1.055  -2.765  0.00  0.00    -0.200 OA
ENDROOT
BRANCH   1   4
ATOM      4  C3  <0> d           0.008  -0.796  -1.095  0.00  0.00     0.129 A 
ATOM      5  C2  <0> d           0.002  -0.004   0.002  0.00  0.00     0.049 A 
ATOM      6  C1  <0> d          -0.018   1.503   0.010  0.00  0.00     0.071 C 
ATOM      7  N2  <0> d           0.024  -0.805   1.088  0.00  0.00    -0.281 N 
ATOM      8  N1  <0> d           0.035  -2.134   0.643  0.00  0.00    -0.178 NA
ATOM      9  H1  <0> d           0.029  -0.513   2.013  0.00  0.00     0.189 HD
ATOM     10  C4  <0> d           0.028  -2.127  -0.666  0.00  0.00     0.076 A 
ATOM     11  C5  <0> d           0.040  -3.343  -1.556  0.00  0.00     0.074 C 
ENDBRANCH   1   4
BRANCH   1  12
ATOM     12  N3  <0> d           1.569  -0.072  -3.243  0.00  0.00    -0.315 N 
ATOM     13  H9  <0> d           1.914   0.806  -3.466  0.00  0.00     0.172 HD
BRANCH  12  14
ATOM     14  C6  <0> d           2.444  -1.245  -3.324  0.00  0.00     0.138 C 
BRANCH  14  15
ATOM     15  C7  <0> d           3.699  -0.890  -4.123  0.00  0.00     0.030 C 
ATOM     16  C11 <0> d           4.668  -2.074  -4.105  0.00  0.00     0.240 C 
ATOM     17  N4  <0> d           5.872  -1.738  -4.874  0.00  0.00    -0.074 N 
ATOM     18  C10 <0> d           5.518  -1.504  -6.279  0.00  0.00     0.234 C 
ATOM     19  C12 <0> d           6.831  -2.847  -4.790  0.00  0.00     0.269 C 
ATOM     20  H23 <0> d           6.292  -0.904  -4.491  0.00  0.00     0.279 HD
ATOM     21  C9  <0> d           4.583  -0.298  -6.380  0.00  0.00     0.028 C 
ATOM     22  C8  <0> d           3.312  -0.575  -5.571  0.00  0.00     0.009 C 
ENDBRANCH  14  15
ENDBRANCH  12  14
ENDBRANCH   1  12
TORSDOF 4
