REMARK  5 active torsions:
REMARK  status: ('A' for Active; 'I' for Inactive)
REMARK    1  A    between atoms: C2_2  and  C5_9 
REMARK    2  A    between atoms: C9_13  and  N3_15 
REMARK       I    between atoms: N3_15  and  C11_16 
REMARK    3  A    between atoms: C11_16  and  C12_18 
REMARK    4  A    between atoms: C12_18  and  C13_19 
REMARK    5  A    between atoms: C16_22  and  C19_25 
ROOT
ATOM      1  N3  <0> d          -4.376  -0.414  -2.196  0.00  0.00    -0.327 N 
ATOM      2  C11 <0> d          -5.595  -0.983  -2.285  0.00  0.00     0.226 C 
ATOM      3  O3  <0> d          -5.993  -1.705  -1.395  0.00  0.00    -0.273 OA
ATOM      4  H10 <0> d          -4.089   0.223  -2.869  0.00  0.00     0.169 HD
ENDROOT
BRANCH   1   5
ATOM      5  C9  <0> d          -3.527  -0.740  -1.134  0.00  0.00     0.035 A 
ATOM      6  C8  <0> d          -3.544  -2.021  -0.597  0.00  0.00     0.029 A 
ATOM      7  C7  <0> d          -2.704  -2.340   0.452  0.00  0.00     0.003 A 
ATOM      8  C6  <0> d          -1.846  -1.386   0.967  0.00  0.00     0.010 A 
ATOM      9  C5  <0> d          -1.826  -0.110   0.435  0.00  0.00    -0.019 A 
ATOM     10  C10 <0> d          -2.667   0.217  -0.610  0.00  0.00     0.039 A 
BRANCH   9  11
ATOM     11  C2  <0> d          -0.889   0.927   1.000  0.00  0.00     0.139 A 
ATOM     12  C1  <0> d          -1.675   2.130   1.526  0.00  0.00     0.054 C 
ATOM     13  N2  <0> d          -0.056   0.346   2.066  0.00  0.00    -0.321 N 
ATOM     14  C4  <0> d           1.222   0.453   1.658  0.00  0.00     0.324 A 
ATOM     15  H5  <0> d          -0.367  -0.039   2.901  0.00  0.00     0.165 HD
ATOM     16  N1  <0> d           1.327   1.032   0.457  0.00  0.00    -0.277 N 
ATOM     17  O2  <0> d           2.173   0.067   2.308  0.00  0.00    -0.247 OA
ATOM     18  C3  <0> d           0.120   1.364  -0.043  0.00  0.00     0.258 A 
ATOM     19  H4  <0> d           2.168   1.194   0.001  0.00  0.00     0.173 HD
ATOM     20  O1  <0> d          -0.110   1.900  -1.106  0.00  0.00    -0.270 OA
ENDBRANCH   9  11
ENDBRANCH   1   5
BRANCH   2  21
ATOM     21  C12 <0> d          -6.462  -0.724  -3.489  0.00  0.00     0.141 C 
BRANCH  21  22
ATOM     22  C13 <0> d          -7.762  -1.472  -3.342  0.00  0.00    -0.049 A 
ATOM     23  C18 <0> d          -8.840  -0.866  -2.723  0.00  0.00     0.008 A 
ATOM     24  C17 <0> d         -10.035  -1.545  -2.591  0.00  0.00     0.013 A 
ATOM     25  C16 <0> d         -10.150  -2.847  -3.073  0.00  0.00    -0.026 A 
ATOM     26  C15 <0> d          -9.059  -3.455  -3.691  0.00  0.00     0.013 A 
ATOM     27  C14 <0> d          -7.871  -2.765  -3.823  0.00  0.00     0.008 A 
BRANCH  25  28
ATOM     28  C19 <0> d         -11.430  -3.584  -2.929  0.00  0.00    -0.026 A 
ATOM     29  C24 <0> d         -12.521  -2.976  -2.311  0.00  0.00     0.012 A 
ATOM     30  C23 <0> d         -13.711  -3.664  -2.185  0.00  0.00     0.001 A 
ATOM     31  C22 <0> d         -13.818  -4.958  -2.660  0.00  0.00     0.000 A 
ATOM     32  C21 <0> d         -12.737  -5.569  -3.269  0.00  0.00     0.001 A 
ATOM     33  C20 <0> d         -11.544  -4.888  -3.406  0.00  0.00     0.012 A 
ENDBRANCH  25  28
ENDBRANCH  21  22
ENDBRANCH   2  21
TORSDOF 5
