REMARK  3 active torsions:
REMARK  status: ('A' for Active; 'I' for Inactive)
REMARK    1  A    between atoms: C5_5  and  C8_8 
REMARK    2  A    between atoms: C14_17  and  C16_20 
REMARK    3  A    between atoms: C16_20  and  O4_22 
ROOT
ATOM      1  C8  <0> d           0.059  -4.275  -0.021  0.00  0.00     0.269 C 
ATOM      2  C9  <0> d           1.462  -4.798   0.274  0.00  0.00     0.132 C 
ATOM      3  C10 <0> d           1.045  -6.266   0.666  0.00  0.00     0.142 C 
ATOM      4  C11 <0> d           2.300  -6.971   0.564  0.00  0.00     0.234 C 
ATOM      5  O1  <0> d           2.679  -7.905   1.237  0.00  0.00    -0.272 OA
ATOM      6  N1  <0> d           2.970  -6.354  -0.463  0.00  0.00    -0.292 N 
ATOM      7  C12 <0> d           2.403  -5.152  -0.834  0.00  0.00     0.233 C 
ATOM      8  O2  <0> d           2.612  -4.516  -1.845  0.00  0.00    -0.272 OA
ATOM      9  C13 <0> d           4.173  -6.904  -1.093  0.00  0.00     0.162 C 
ATOM     10  C14 <0> d          -0.060  -6.066   1.612  0.00  0.00     0.254 C 
ATOM     11  N2  <0> d          -0.756  -4.822   1.112  0.00  0.00     0.113 N 
ATOM     12  C15 <0> d          -1.024  -7.254   1.564  0.00  0.00     0.061 C 
ATOM     13  H14 <0> d          -0.845  -4.144   1.854  0.00  0.00     0.318 HD
ENDROOT
BRANCH   1  14
ATOM     14  C5  <0> d           0.040  -2.768  -0.013  0.00  0.00    -0.024 A 
ATOM     15  C4  <0> d           0.025  -2.071  -1.206  0.00  0.00     0.010 A 
ATOM     16  C3  <0> d           0.006  -0.689  -1.199  0.00  0.00     0.007 A 
ATOM     17  C2  <0> d           0.002  -0.004   0.002  0.00  0.00    -0.062 A 
ATOM     18  C1  <0> d          -0.018   1.503   0.010  0.00  0.00     0.048 C 
ATOM     19  C7  <0> d           0.023  -0.702   1.195  0.00  0.00     0.007 A 
ATOM     20  C6  <0> d           0.037  -2.084   1.188  0.00  0.00     0.010 A 
ENDBRANCH   1  14
BRANCH  10  21
ATOM     21  C16 <0> d           0.471  -5.876   3.009  0.00  0.00     0.298 C 
ATOM     22  O3  <0> d           1.550  -6.329   3.312  0.00  0.00    -0.262 OA
BRANCH  21  23
ATOM     23  O4  <0> d          -0.253  -5.203   3.917  0.00  0.00    -0.324 OA
ATOM     24  C17 <0> d           0.312  -5.060   5.222  0.00  0.00     0.213 C 
ENDBRANCH  21  23
ENDBRANCH  10  21
TORSDOF 3
