REMARK  4 active torsions:
REMARK  status: ('A' for Active; 'I' for Inactive)
REMARK    1  A    between atoms: C6_6  and  N1_8 
REMARK    2  A    between atoms: C10_12  and  C21_28 
REMARK    3  A    between atoms: C21_28  and  C22_29 
REMARK    4  A    between atoms: C25_32  and  O4_35 
ROOT
ATOM      1  N1  <0> d           0.050  -2.798   2.395  0.00  0.00    -0.252 N 
ATOM      2  C8  <0> d           0.141  -2.196   3.587  0.00  0.00     0.238 A 
ATOM      3  O1  <0> d           0.223  -0.999   3.762  0.00  0.00    -0.272 OA
ATOM      4  C9  <0> d           0.124  -3.240   4.680  0.00  0.00     0.129 A 
ATOM      5  C10 <0> d           1.501  -3.273   5.375  0.00  0.00     0.240 C 
ATOM      6  N2  <0> d           2.318  -4.211   4.560  0.00  0.00     0.114 N 
ATOM      7  C11 <0> d           1.374  -5.279   4.183  0.00  0.00     0.279 A 
ATOM      8  C12 <0> d           0.022  -4.578   3.896  0.00  0.00     0.147 A 
ATOM      9  C13 <0> d          -0.030  -4.133   2.452  0.00  0.00     0.239 A 
ATOM     10  O2  <0> d          -0.127  -4.870   1.494  0.00  0.00    -0.272 OA
ATOM     11  C14 <0> d           1.862  -6.049   2.989  0.00  0.00     0.020 A 
ATOM     12  C15 <0> d           2.177  -5.694   1.697  0.00  0.00     0.054 A 
ATOM     13  C16 <0> d           2.615  -6.656   0.801  0.00  0.00     0.117 A 
ATOM     14  C17 <0> d           2.733  -7.974   1.209  0.00  0.00     0.044 A 
ATOM     15  C18 <0> d           2.416  -8.332   2.503  0.00  0.00     0.033 A 
ATOM     16  C19 <0> d           1.976  -7.371   3.410  0.00  0.00     0.044 A 
ATOM     17  N3  <0> d           1.601  -7.485   4.751  0.00  0.00    -0.324 N 
ATOM     18  C20 <0> d           1.234  -6.301   5.278  0.00  0.00     0.267 A 
ATOM     19  O3  <0> d           0.862  -6.098   6.415  0.00  0.00    -0.270 OA
ATOM     20  F1  <0> d           2.925  -6.309  -0.468  0.00  0.00    -0.206 F 
ATOM     21  H11 <0> d           2.689  -3.751   3.743  0.00  0.00     0.318 HD
ATOM     22  H15 <0> d           1.604  -8.320   5.245  0.00  0.00     0.169 HD
ENDROOT
BRANCH   5  23
ATOM     23  C21 <0> d           2.131  -1.879   5.377  0.00  0.00     0.075 C 
BRANCH  23  24
ATOM     24  C22 <0> d           3.414  -1.908   6.166  0.00  0.00    -0.056 A 
ATOM     25  C27 <0> d           4.609  -2.194   5.530  0.00  0.00     0.010 A 
ATOM     26  C26 <0> d           5.787  -2.216   6.250  0.00  0.00     0.037 A 
ATOM     27  C25 <0> d           5.771  -1.961   7.614  0.00  0.00     0.065 A 
ATOM     28  C24 <0> d           4.570  -1.680   8.250  0.00  0.00     0.037 A 
ATOM     29  C23 <0> d           3.395  -1.654   7.525  0.00  0.00     0.010 A 
BRANCH  27  30
ATOM     30  O4  <0> d           6.928  -1.986   8.325  0.00  0.00    -0.361 OA
ATOM     31  H22 <0> d           7.146  -2.855   8.691  0.00  0.00     0.217 HD
ENDBRANCH  27  30
ENDBRANCH  23  24
ENDBRANCH   5  23
BRANCH   1  32
ATOM     32  C6  <0> d           0.035  -2.089   1.186  0.00  0.00     0.045 A 
ATOM     33  C5  <0> d           1.169  -1.406   0.766  0.00  0.00     0.030 A 
ATOM     34  C4  <0> d           1.151  -0.708  -0.425  0.00  0.00     0.003 A 
ATOM     35  C3  <0> d           0.006  -0.689  -1.200  0.00  0.00     0.007 A 
ATOM     36  C2  <0> d          -1.124  -1.368  -0.785  0.00  0.00    -0.060 A 
ATOM     37  C1  <0> d          -2.370  -1.345  -1.632  0.00  0.00     0.048 C 
ATOM     38  C7  <0> d          -1.115  -2.063   0.409  0.00  0.00     0.037 A 
ENDBRANCH   1  32
TORSDOF 4
