REMARK  3 active torsions:
REMARK  status: ('A' for Active; 'I' for Inactive)
REMARK    1  A    between atoms: C5_6  and  C6_7 
REMARK       I    between atoms: C6_7  and  N1_9 
REMARK    2  A    between atoms: N1_9  and  N2_10 
REMARK       I    between atoms: N2_10  and  C7_11 
REMARK    3  A    between atoms: C7_11  and  C8_13 
ROOT
ATOM      1  N2  <0> d           0.058  -0.732   4.900  0.00  0.00    -0.263 N 
ATOM      2  C7  <0> d           0.080  -1.625   5.909  0.00  0.00     0.277 C 
ATOM      3  O2  <0> d           0.094  -2.817   5.666  0.00  0.00    -0.265 OA
ATOM      4  H7  <0> d           0.047   0.219   5.094  0.00  0.00     0.190 HD
ENDROOT
BRANCH   2   5
ATOM      5  C8  <0> d           0.087  -1.161   7.298  0.00  0.00     0.075 A 
ATOM      6  S2  <0> d           0.070   0.516   7.922  0.00  0.00    -0.083 SA
ATOM      7  C11 <0> d           0.095   0.132   9.640  0.00  0.00     0.027 A 
ATOM      8  C10 <0> d           0.117  -1.270   9.679  0.00  0.00    -0.015 A 
ATOM      9  C12 <0> d           0.105   0.947  10.849  0.00  0.00     0.015 A 
ATOM     10  C9  <0> d           0.114  -1.909   8.467  0.00  0.00     0.035 A 
ATOM     11  C18 <0> d           0.138  -1.933  11.052  0.00  0.00     0.215 C 
ATOM     12  O3  <0> d           0.750  -1.052  11.992  0.00  0.00    -0.346 OA
ATOM     13  C17 <0> d           0.427   0.262  12.041  0.00  0.00     0.080 A 
ATOM     14  C16 <0> d           0.433   0.960  13.235  0.00  0.00     0.037 A 
ATOM     15  C15 <0> d           0.143   2.312  13.250  0.00  0.00     0.003 A 
ATOM     16  C14 <0> d          -0.159   2.983  12.078  0.00  0.00     0.001 A 
ATOM     17  C13 <0> d          -0.179   2.303  10.875  0.00  0.00     0.015 A 
ENDBRANCH   2   5
BRANCH   1  18
ATOM     18  N1  <0> d           0.052  -1.176   3.571  0.00  0.00    -0.263 N 
ATOM     19  C6  <0> d           0.030  -0.283   2.562  0.00  0.00     0.277 C 
ATOM     20  O1  <0> d           0.016   0.910   2.805  0.00  0.00    -0.265 OA
ATOM     21  H6  <0> d           0.063  -2.126   3.378  0.00  0.00     0.190 HD
BRANCH  19  22
ATOM     22  C5  <0> d           0.023  -0.748   1.172  0.00  0.00     0.080 A 
ATOM     23  C2  <0> d           0.002  -0.004   0.002  0.00  0.00    -0.039 A 
ATOM     24  C1  <0> d          -0.018   1.503   0.010  0.00  0.00     0.050 C 
ATOM     25  C3  <0> d           0.007  -0.729  -1.166  0.00  0.00     0.015 A 
ATOM     26  C4  <0> d           0.026  -2.083  -1.101  0.00  0.00     0.051 A 
ATOM     27  S1  <0> d           0.038  -2.416   0.545  0.00  0.00    -0.096 SA
ENDBRANCH  19  22
ENDBRANCH   1  18
TORSDOF 3
