REMARK  3 active torsions:
REMARK  status: ('A' for Active; 'I' for Inactive)
REMARK    1  A    between atoms: C3_3  and  N2_11 
REMARK    2  A    between atoms: C6_6  and  C7_7 
REMARK    3  A    between atoms: C7_7  and  C8_8 
ROOT
ATOM      1  C1  <0> d           0.793   0.029   1.137  0.00  0.00     0.010 A 
ATOM      2  C2  <0> d           1.981   0.733   1.132  0.00  0.00     0.031 A 
ATOM      3  C3  <0> d           2.381   1.409  -0.013  0.00  0.00     0.045 A 
ATOM      4  C4  <0> d           1.584   1.375  -1.150  0.00  0.00     0.031 A 
ATOM      5  C5  <0> d           0.397   0.669  -1.139  0.00  0.00     0.010 A 
ATOM      6  C6  <0> d           0.002  -0.003   0.003  0.00  0.00    -0.052 A 
ENDROOT
BRANCH   3   7
ATOM      7  N2  <0> d           3.586   2.125  -0.021  0.00  0.00    -0.252 N 
ATOM      8  C12 <0> d           4.786   1.530   0.062  0.00  0.00     0.240 A 
ATOM      9  C11 <0> d           5.856   2.587   0.023  0.00  0.00     0.050 A 
ATOM     10  O2  <0> d           4.976   0.336   0.152  0.00  0.00    -0.272 OA
ATOM     11  C10 <0> d           5.084   3.907  -0.089  0.00  0.00     0.123 A 
ATOM     12  C16 <0> d           6.798   2.394  -1.167  0.00  0.00     0.020 C 
ATOM     13  C13 <0> d           6.710   2.557   1.298  0.00  0.00     0.020 C 
ATOM     14  C9  <0> d           3.636   3.462  -0.107  0.00  0.00     0.232 A 
ATOM     15  O1  <0> d           2.675   4.197  -0.187  0.00  0.00    -0.273 OA
ATOM     16  C15 <0> d           8.219   2.257  -0.576  0.00  0.00     0.001 C 
ATOM     17  C14 <0> d           7.982   1.775   0.878  0.00  0.00     0.001 C 
ENDBRANCH   3   7
BRANCH   6  18
ATOM     18  C7  <0> d          -1.294  -0.773   0.012  0.00  0.00     0.107 C 
BRANCH  18  19
ATOM     19  C8  <0> d          -2.413   0.131   0.461  0.00  0.00     0.075 C 
ATOM     20  S1  <0> d          -2.107   1.655   0.837  0.00  0.00    -0.066 SA
ATOM     21  N1  <0> d          -3.671  -0.344   0.546  0.00  0.00    -0.393 N 
ATOM     22  H7  <0> d          -3.856  -1.269   0.318  0.00  0.00     0.156 HD
ATOM     23  H8  <0> d          -4.391   0.238   0.836  0.00  0.00     0.156 HD
ENDBRANCH  18  19
ENDBRANCH   6  18
TORSDOF 3
