REMARK  3 active torsions:
REMARK  status: ('A' for Active; 'I' for Inactive)
REMARK    1  A    between atoms: S1_2  and  C2_4 
REMARK    2  A    between atoms: C5_7  and  C8_10 
REMARK       I    between atoms: C8_10  and  N1_12 
REMARK    3  A    between atoms: N1_12  and  C9_13 
ROOT
ATOM      1  C8  <0> d           2.889  -1.390  -5.083  0.00  0.00     0.257 C 
ATOM      2  O2  <0> d           2.264  -1.535  -6.116  0.00  0.00    -0.267 OA
ATOM      3  N1  <0> d           4.228  -1.540  -5.078  0.00  0.00    -0.301 N 
ATOM      4  H8  <0> d           4.726  -1.424  -4.254  0.00  0.00     0.171 HD
ENDROOT
BRANCH   1   5
ATOM      5  C5  <0> d           2.179  -1.049  -3.832  0.00  0.00     0.032 A 
ATOM      6  C4  <0> d           0.791  -0.893  -3.834  0.00  0.00     0.018 A 
ATOM      7  C3  <0> d           0.135  -0.575  -2.663  0.00  0.00     0.022 A 
ATOM      8  C2  <0> d           0.848  -0.411  -1.489  0.00  0.00     0.031 A 
ATOM      9  C7  <0> d           2.224  -0.559  -1.482  0.00  0.00     0.022 A 
ATOM     10  C6  <0> d           2.892  -0.882  -2.644  0.00  0.00     0.018 A 
BRANCH   8  11
ATOM     11  S1  <0> d           0.002  -0.004   0.002  0.00  0.00     0.045 S 
ATOM     12  C1  <0> d          -0.022   1.810   0.012  0.00  0.00     0.133 C 
ATOM     13  O1  <0> d           0.868  -0.472   1.027  0.00  0.00    -0.253 OA
ENDBRANCH   8  11
ENDBRANCH   1   5
BRANCH   3  14
ATOM     14  C9  <0> d           4.895  -1.860  -6.254  0.00  0.00     0.174 A 
ATOM     15  S2  <0> d           6.545  -2.096  -6.490  0.00  0.00    -0.054 SA
ATOM     16  C11 <0> d           6.486  -2.456  -8.229  0.00  0.00     0.011 A 
ATOM     17  C10 <0> d           5.164  -2.355  -8.503  0.00  0.00     0.050 A 
ATOM     18  C12 <0> d           7.290  -2.806  -9.444  0.00  0.00     0.049 C 
ATOM     19  N2  <0> d           4.394  -2.048  -7.450  0.00  0.00    -0.228 NA
ATOM     20  C14 <0> d           4.962  -2.632  -9.991  0.00  0.00     0.061 C 
ATOM     21  C13 <0> d           6.252  -3.335 -10.460  0.00  0.00     0.011 C 
ENDBRANCH   3  14
TORSDOF 3
