REMARK  3 active torsions:
REMARK  status: ('A' for Active; 'I' for Inactive)
REMARK    1  A    between atoms: C3_3  and  N4_16 
REMARK    2  A    between atoms: C6_6  and  N1_7 
REMARK       I    between atoms: N1_7  and  C7_8 
REMARK    3  A    between atoms: C7_8  and  C8_10 
ROOT
ATOM      1  C1  <0> d          -0.013   1.374   0.195  0.00  0.00     0.032 A 
ATOM      2  C2  <0> d           1.172   2.083   0.193  0.00  0.00     0.035 A 
ATOM      3  C3  <0> d           2.377   1.422   0.003  0.00  0.00     0.078 A 
ATOM      4  C4  <0> d           2.392   0.044  -0.185  0.00  0.00     0.145 A 
ATOM      5  C5  <0> d           1.206  -0.665  -0.182  0.00  0.00     0.074 A 
ATOM      6  C6  <0> d           0.001  -0.002   0.007  0.00  0.00     0.038 A 
ATOM      7  F1  <0> d           3.565  -0.600  -0.369  0.00  0.00    -0.204 F 
ENDROOT
BRANCH   6   8
ATOM      8  N1  <0> d          -1.200  -0.720   0.010  0.00  0.00    -0.322 N 
ATOM      9  C7  <0> d          -2.325  -0.153  -0.470  0.00  0.00     0.266 C 
ATOM     10  O1  <0> d          -2.278   0.944  -0.992  0.00  0.00    -0.267 OA
ATOM     11  H4  <0> d          -1.223  -1.626   0.356  0.00  0.00     0.169 HD
BRANCH   9  12
ATOM     12  C8  <0> d          -3.610  -0.863  -0.362  0.00  0.00     0.112 A 
ATOM     13  S1  <0> d          -3.982  -2.460   0.342  0.00  0.00     0.041 SA
ATOM     14  N3  <0> d          -5.578  -2.473   0.059  0.00  0.00    -0.110 NA
ATOM     15  N2  <0> d          -5.819  -1.357  -0.531  0.00  0.00    -0.154 NA
ATOM     16  C9  <0> d          -4.878  -0.481  -0.784  0.00  0.00     0.167 A 
ENDBRANCH   9  12
ENDBRANCH   6   8
BRANCH   3  17
ATOM     17  N4  <0> d           3.582   2.144   0.001  0.00  0.00    -0.312 N 
ATOM     18  C12 <0> d           3.849   3.265  -0.717  0.00  0.00     0.214 A 
ATOM     19  N5  <0> d           5.069   3.647  -0.454  0.00  0.00    -0.254 NA
ATOM     20  C11 <0> d           5.622   2.793   0.421  0.00  0.00     0.135 A 
ATOM     21  C10 <0> d           4.711   1.847   0.718  0.00  0.00     0.117 A 
ENDBRANCH   3  17
TORSDOF 3
