REMARK  5 active torsions:
REMARK  status: ('A' for Active; 'I' for Inactive)
REMARK    1  A    between atoms: C4_6  and  C7_12 
REMARK    2  A    between atoms: C7_12  and  C8_13 
REMARK       I    between atoms: C8_13  and  N5_15 
REMARK    3  A    between atoms: N5_15  and  C9_16 
REMARK    4  A    between atoms: C9_16  and  C10_17 
REMARK    5  A    between atoms: C10_17  and  C11_18 
ROOT
ATOM      1  C8  <0> d          -2.602   5.205  -6.451  0.00  0.00     0.224 C 
ATOM      2  O2  <0> d          -2.724   4.013  -6.635  0.00  0.00    -0.273 OA
ATOM      3  N5  <0> d          -2.750   6.064  -7.479  0.00  0.00    -0.360 N 
ATOM      4  H10 <0> d          -2.652   7.018  -7.332  0.00  0.00     0.162 HD
ENDROOT
BRANCH   1   5
ATOM      5  C7  <0> d          -2.285   5.726  -5.073  0.00  0.00     0.182 C 
BRANCH   5   6
ATOM      6  C4  <0> d          -2.172   4.570  -4.113  0.00  0.00     0.132 C 
ATOM      7  N2  <0> d          -1.888   4.709  -2.763  0.00  0.00    -0.337 N 
ATOM      8  C3  <0> d          -2.059   3.379  -2.172  0.00  0.00     0.318 C 
ATOM      9  H5  <0> d          -1.629   5.522  -2.303  0.00  0.00     0.164 HD
ATOM     10  N1  <0> d          -0.878   2.941  -1.417  0.00  0.00    -0.354 N 
ATOM     11  N4  <0> d          -2.144   2.482  -3.348  0.00  0.00    -0.191 N 
ATOM     12  C2  <0> d          -0.742   1.585  -1.213  0.00  0.00     0.009 C 
ATOM     13  H7  <0> d          -0.227   3.574  -1.079  0.00  0.00     0.163 HD
ATOM     14  C1  <0> d          -0.013   1.086   0.008  0.00  0.00     0.068 C 
ATOM     15  C6  <0> d          -1.248   0.699  -2.096  0.00  0.00     0.100 C 
ATOM     16  C5  <0> d          -1.936   1.156  -3.256  0.00  0.00     0.268 C 
ATOM     17  O1  <0> d          -2.313   0.386  -4.122  0.00  0.00    -0.266 OA
ATOM     18  N3  <0> d          -2.329   3.334  -4.450  0.00  0.00    -0.152 NA
ENDBRANCH   5   6
ENDBRANCH   1   5
BRANCH   3  19
ATOM     19  C9  <0> d          -3.058   5.558  -8.819  0.00  0.00     0.127 C 
BRANCH  19  20
ATOM     20  C10 <0> d          -3.173   6.731  -9.793  0.00  0.00     0.056 C 
BRANCH  20  21
ATOM     21  C11 <0> d          -3.490   6.210 -11.172  0.00  0.00    -0.048 A 
ATOM     22  C18 <0> d          -2.504   5.714 -12.205  0.00  0.00     0.155 A 
ATOM     23  N6  <0> d          -3.305   5.317 -13.368  0.00  0.00    -0.385 N 
ATOM     24  C17 <0> d          -4.569   5.540 -13.100  0.00  0.00     0.038 A 
ATOM     25  H20 <0> d          -2.958   4.953 -14.197  0.00  0.00     0.160 HD
ATOM     26  C12 <0> d          -4.714   6.097 -11.736  0.00  0.00    -0.004 A 
ATOM     27  C16 <0> d          -5.749   5.340 -13.869  0.00  0.00     0.031 A 
ATOM     28  C13 <0> d          -6.064   6.412 -11.255  0.00  0.00     0.037 A 
ATOM     29  C14 <0> d          -7.121   6.184 -12.069  0.00  0.00     0.035 A 
ATOM     30  C15 <0> d          -6.958   5.654 -13.357  0.00  0.00     0.026 A 
ATOM     31 Cl1  <0> d          -8.720   6.556 -11.503  0.00  0.00    -0.084 Cl
ENDBRANCH  20  21
ENDBRANCH  19  20
ENDBRANCH   3  19
TORSDOF 5
