REMARK  4 active torsions:
REMARK  status: ('A' for Active; 'I' for Inactive)
REMARK    1  A    between atoms: C5_5  and  N1_8 
REMARK    2  A    between atoms: C8_9  and  O2_28 
REMARK    3  A    between atoms: C9_10  and  C12_14 
REMARK    4  A    between atoms: N4_18  and  C16_21 
ROOT
ATOM      1  N1  <0> d           0.069  -3.798   1.207  0.00  0.00    -0.210 N 
ATOM      2  C8  <0> d           0.731  -4.762   1.876  0.00  0.00     0.176 A 
ATOM      3  C9  <0> d           0.459  -5.976   1.232  0.00  0.00     0.044 A 
ATOM      4  C10 <0> d          -0.428  -5.651   0.113  0.00  0.00     0.066 A 
ATOM      5  N2  <0> d          -0.634  -4.365   0.141  0.00  0.00    -0.169 NA
ATOM      6  C11 <0> d          -1.002  -6.626  -0.882  0.00  0.00     0.073 C 
ENDROOT
BRANCH   3   7
ATOM      7  C12 <0> d           0.943  -7.252   1.589  0.00  0.00     0.037 C 
ATOM      8  C13 <0> d           2.310  -7.501   1.592  0.00  0.00     0.061 A 
ATOM      9  C15 <0> d           2.999  -8.704   2.075  0.00  0.00     0.281 A 
ATOM     10  C14 <0> d           3.382  -6.615   1.117  0.00  0.00     0.067 A 
ATOM     11  N4  <0> d           4.314  -8.489   1.870  0.00  0.00    -0.197 N 
ATOM     12  O1  <0> d           2.486  -9.698   2.562  0.00  0.00    -0.265 OA
ATOM     13  N3  <0> d           4.510  -7.231   1.300  0.00  0.00    -0.168 NA
ATOM     14  C22 <0> d           3.204  -5.241   0.525  0.00  0.00     0.073 C 
BRANCH  11  15
ATOM     15  C16 <0> d           5.335  -9.393   2.188  0.00  0.00     0.062 A 
ATOM     16  C21 <0> d           6.661  -9.063   1.939  0.00  0.00     0.032 A 
ATOM     17  C20 <0> d           7.665  -9.955   2.259  0.00  0.00     0.002 A 
ATOM     18  C19 <0> d           7.351 -11.181   2.817  0.00  0.00     0.000 A 
ATOM     19  C18 <0> d           6.032 -11.515   3.062  0.00  0.00     0.002 A 
ATOM     20  C17 <0> d           5.023 -10.625   2.749  0.00  0.00     0.032 A 
ENDBRANCH  11  15
ENDBRANCH   3   7
BRANCH   2  21
ATOM     21  O2  <0> d           1.512  -4.590   2.966  0.00  0.00    -0.344 OA
ATOM     22  H20 <0> d           1.037  -4.660   3.805  0.00  0.00     0.219 HD
ENDBRANCH   2  21
BRANCH   1  23
ATOM     23  C5  <0> d           0.079  -2.435   1.533  0.00  0.00     0.061 A 
ATOM     24  C4  <0> d           0.029  -1.479   0.528  0.00  0.00     0.032 A 
ATOM     25  C3  <0> d           0.039  -0.136   0.853  0.00  0.00     0.009 A 
ATOM     26  C2  <0> d           0.099   0.255   2.178  0.00  0.00    -0.062 A 
ATOM     27  C1  <0> d           0.109   1.721   2.529  0.00  0.00     0.048 C 
ATOM     28  C7  <0> d           0.154  -0.695   3.181  0.00  0.00     0.009 A 
ATOM     29  C6  <0> d           0.139  -2.039   2.863  0.00  0.00     0.032 A 
ENDBRANCH   1  23
TORSDOF 4
