REMARK  4 active torsions:
REMARK  status: ('A' for Active; 'I' for Inactive)
REMARK    1  A    between atoms: C3_3  and  C5_6 
REMARK    2  A    between atoms: C5_6  and  C6_7 
REMARK       I    between atoms: C6_7  and  N1_9 
REMARK    3  A    between atoms: C15_18  and  N3_23 
REMARK       I    between atoms: N3_23  and  C18_24 
REMARK    4  A    between atoms: C18_24  and  C19_26 
ROOT
ATOM      1  C6  <0> d          -8.129   0.988   3.467  0.00  0.00     0.224 C 
ATOM      2  O1  <0> d          -8.125   2.135   3.862  0.00  0.00    -0.273 OA
ATOM      3  N1  <0> d          -8.972   0.618   2.482  0.00  0.00    -0.351 N 
ATOM      4  C7  <0> d          -9.891   1.589   1.877  0.00  0.00     0.132 C 
ATOM      5  C8  <0> d          -9.780   1.544   0.359  0.00  0.00     0.023 C 
ATOM      6  C9  <0> d          -9.881   0.103  -0.142  0.00  0.00     0.020 C 
ATOM      7  C10 <0> d          -8.756  -0.714   0.498  0.00  0.00     0.054 C 
ATOM      8  C11 <0> d          -8.990  -0.769   1.991  0.00  0.00     0.136 C 
ATOM      9  C12 <0> d          -7.429  -0.034   0.253  0.00  0.00     0.020 C 
ATOM     10  C13 <0> d          -6.317  -0.816   0.260  0.00  0.00     0.028 C 
ATOM     11  C14 <0> d          -5.043  -0.243   0.171  0.00  0.00     0.037 C 
ATOM     12  C15 <0> d          -4.936   1.120   0.094  0.00  0.00     0.104 C 
ATOM     13  C16 <0> d          -6.109   1.899   0.087  0.00  0.00     0.274 C 
ATOM     14  O2  <0> d          -6.027   3.117   0.078  0.00  0.00    -0.265 OA
ATOM     15  N2  <0> d          -7.329   1.306   0.084  0.00  0.00    -0.315 N 
ATOM     16  C17 <0> d          -8.489   2.172  -0.134  0.00  0.00     0.138 C 
ENDROOT
BRANCH  12  17
ATOM     17  N3  <0> d          -3.677   1.730   0.029  0.00  0.00    -0.318 N 
ATOM     18  C18 <0> d          -3.365   2.520  -1.018  0.00  0.00     0.256 C 
ATOM     19  O3  <0> d          -4.139   2.631  -1.948  0.00  0.00    -0.267 OA
ATOM     20  H18 <0> d          -3.030   1.584   0.737  0.00  0.00     0.169 HD
BRANCH  18  21
ATOM     21  C19 <0> d          -2.078   3.254  -1.033  0.00  0.00     0.035 A 
ATOM     22  C23 <0> d          -1.171   3.136   0.024  0.00  0.00     0.036 A 
ATOM     23  C22 <0> d           0.015   3.842  -0.029  0.00  0.00     0.117 A 
ATOM     24  N4  <0> d           0.297   4.614  -1.060  0.00  0.00    -0.273 NA
ATOM     25  C21 <0> d          -0.527   4.749  -2.080  0.00  0.00     0.117 A 
ATOM     26  C20 <0> d          -1.735   4.079  -2.109  0.00  0.00     0.036 A 
ENDBRANCH  18  21
ENDBRANCH  12  17
BRANCH   1  27
ATOM     27  C5  <0> d          -7.192  -0.023   4.077  0.00  0.00     0.149 C 
BRANCH  27  28
ATOM     28  C3  <0> d          -6.364   0.641   5.146  0.00  0.00    -0.009 A 
ATOM     29  C2  <0> d          -6.626   0.773   6.470  0.00  0.00     0.015 A 
ATOM     30  C1  <0> d          -5.711   1.428   7.272  0.00  0.00     0.008 A 
ATOM     31  C4  <0> d          -4.578   1.919   6.712  0.00  0.00     0.050 A 
ATOM     32  S1  <0> d          -4.780   1.451   5.001  0.00  0.00    -0.106 SA
ENDBRANCH  27  28
ENDBRANCH   1  27
TORSDOF 4
