REMARK  4 active torsions:
REMARK  status: ('A' for Active; 'I' for Inactive)
REMARK    1  A    between atoms: C2_2  and  C4_4 
REMARK    2  A    between atoms: C7_7  and  C10_10 
REMARK    3  A    between atoms: C18_20  and  N3_28 
REMARK    4  A    between atoms: C21_23  and  O1_25 
ROOT
ATOM      1  C10 <0> d           3.655   1.320   0.069  0.00  0.00     0.243 C 
ATOM      2  N1  <0> d           3.745   2.691  -0.469  0.00  0.00    -0.357 N 
ATOM      3  C11 <0> d           2.667   3.509  -0.234  0.00  0.00     0.087 A 
ATOM      4  C12 <0> d           1.381   3.006   0.005  0.00  0.00     0.057 A 
ATOM      5  C13 <0> d           0.345   3.999   0.217  0.00  0.00    -0.024 A 
ATOM      6  C14 <0> d           0.750   5.291   0.170  0.00  0.00     0.018 A 
ATOM      7  S1  <0> d           2.490   5.210  -0.157  0.00  0.00    -0.074 SA
ATOM      8  C15 <0> d          -0.110   6.500   0.355  0.00  0.00     0.282 C 
ATOM      9  C16 <0> d          -1.786   4.911   1.087  0.00  0.00     0.240 C 
ATOM     10  C17 <0> d          -1.120   3.670   0.485  0.00  0.00     0.068 C 
ATOM     11  C21 <0> d           1.217   1.530  -0.001  0.00  0.00     0.173 C 
ATOM     12  N2  <0> d           2.297   0.798  -0.010  0.00  0.00    -0.235 NA
ATOM     13  H13 <0> d           4.523   2.997  -0.961  0.00  0.00     0.162 HD
ATOM     14  N3  <0> d          -1.525   6.077   0.218  0.00  0.00    -0.063 N 
ATOM     15  H28 <0> d          -1.702   5.813  -0.758  0.00  0.00     0.280 HD
ENDROOT
BRANCH   1  16
ATOM     16  C7  <0> d           4.089   1.329   1.512  0.00  0.00    -0.014 A 
ATOM     17  C6  <0> d           3.553   0.415   2.400  0.00  0.00     0.011 A 
ATOM     18  C5  <0> d           3.950   0.423   3.724  0.00  0.00     0.008 A 
ATOM     19  C4  <0> d           4.884   1.344   4.160  0.00  0.00    -0.055 A 
ATOM     20  C9  <0> d           5.420   2.258   3.272  0.00  0.00     0.008 A 
ATOM     21  C8  <0> d           5.026   2.247   1.947  0.00  0.00     0.011 A 
BRANCH  19  22
ATOM     22  C2  <0> d           5.318   1.352   5.603  0.00  0.00     0.010 C 
ATOM     23  C1  <0> d           6.826   1.105   5.684  0.00  0.00     0.015 C 
ATOM     24  C3  <0> d           4.989   2.710   6.227  0.00  0.00     0.015 C 
ENDBRANCH  19  22
ENDBRANCH   1  16
BRANCH  11  25
ATOM     25  O1  <0> d          -0.011   0.963   0.007  0.00  0.00    -0.344 OA
ATOM     26  H27 <0> d           0.002  -0.004   0.002  0.00  0.00     0.219 HD
ENDBRANCH  11  25
BRANCH  14  27
ATOM     27  C18 <0> d          -2.424   7.192   0.585  0.00  0.00     0.180 C 
ATOM     28  C19 <0> d          -2.175   7.626   2.031  0.00  0.00     0.039 C 
ATOM     29  C20 <0> d          -2.162   8.372  -0.353  0.00  0.00     0.039 C 
ENDBRANCH  14  27
TORSDOF 4
