REMARK  2 active torsions:
REMARK  status: ('A' for Active; 'I' for Inactive)
REMARK    1  A    between atoms: C6_6  and  C7_8 
REMARK       I    between atoms: N3_21  and  C18_22 
REMARK    2  A    between atoms: C18_22  and  C19_24 
ROOT
ATOM      1  C7  <0> d          -0.011  -2.664   2.332  0.00  0.00     0.190 C 
ATOM      2  C8  <0> d           1.173  -2.097   3.083  0.00  0.00     0.046 A 
ATOM      3  C9  <0> d           2.293  -2.803   3.352  0.00  0.00    -0.019 A 
ATOM      4  C10 <0> d           3.186  -1.920   4.075  0.00  0.00    -0.001 A 
ATOM      5  C11 <0> d           4.469  -2.095   4.603  0.00  0.00     0.014 A 
ATOM      6  C12 <0> d           5.028  -1.017   5.243  0.00  0.00     0.001 A 
ATOM      7  C13 <0> d           4.364   0.193   5.365  0.00  0.00     0.002 A 
ATOM      8  C14 <0> d           3.095   0.393   4.852  0.00  0.00     0.030 A 
ATOM      9  C15 <0> d           2.502  -0.684   4.197  0.00  0.00     0.043 A 
ATOM     10  N2  <0> d           1.289  -0.829   3.586  0.00  0.00    -0.356 N 
ATOM     11  H2  <0> d           0.612  -0.137   3.519  0.00  0.00     0.166 HD
ATOM     12  C16 <0> d           2.518  -4.240   2.957  0.00  0.00     0.061 C 
ATOM     13  C17 <0> d           1.520  -4.617   1.856  0.00  0.00     0.132 C 
ATOM     14  N3  <0> d           0.185  -4.120   2.229  0.00  0.00    -0.332 N 
ATOM     15  C18 <0> d          -0.830  -4.973   2.470  0.00  0.00     0.260 C 
ATOM     16  O1  <0> d          -0.677  -6.167   2.291  0.00  0.00    -0.267 OA
ENDROOT
BRANCH   1  17
ATOM     17  C6  <0> d          -0.082  -2.058   0.955  0.00  0.00     0.063 A 
ATOM     18  C5  <0> d          -0.088  -2.882  -0.155  0.00  0.00     0.030 A 
ATOM     19  C4  <0> d          -0.154  -2.314  -1.418  0.00  0.00     0.004 A 
ATOM     20  C3  <0> d          -0.210  -0.932  -1.518  0.00  0.00     0.027 A 
ATOM     21  C2  <0> d          -0.200  -0.172  -0.364  0.00  0.00     0.031 A 
ATOM     22  C1  <0> d          -0.261   1.330  -0.461  0.00  0.00     0.070 C 
ATOM     23  N1  <0> d          -0.131  -0.747   0.821  0.00  0.00    -0.256 NA
ENDBRANCH   1  17
BRANCH  15  24
ATOM     24  C19 <0> d          -2.123  -4.461   2.948  0.00  0.00     0.100 A 
ATOM     25  C23 <0> d          -2.465  -4.525   4.324  0.00  0.00     0.261 A 
ATOM     26  N4  <0> d          -3.651  -4.047   4.734  0.00  0.00    -0.326 N 
ATOM     27  O2  <0> d          -1.686  -5.005   5.128  0.00  0.00    -0.267 OA
ATOM     28  C22 <0> d          -4.554  -3.514   3.862  0.00  0.00     0.018 A 
ATOM     29  H3  <0> d          -3.873  -4.086   5.677  0.00  0.00     0.169 HD
ATOM     30  C21 <0> d          -4.269  -3.431   2.542  0.00  0.00    -0.034 A 
ATOM     31  C24 <0> d          -5.865  -3.042   4.441  0.00  0.00     0.057 C 
ATOM     32  C20 <0> d          -3.041  -3.908   2.062  0.00  0.00     0.032 A 
ATOM     33  C27 <0> d          -5.218  -2.836   1.535  0.00  0.00     0.040 C 
ATOM     34  C26 <0> d          -6.635  -2.773   2.099  0.00  0.00     0.005 C 
ATOM     35  C25 <0> d          -6.574  -2.097   3.474  0.00  0.00     0.006 C 
ENDBRANCH  15  24
TORSDOF 2
