REMARK  6 active torsions:
REMARK  status: ('A' for Active; 'I' for Inactive)
REMARK    1  A    between atoms: C2_2  and  N1_4 
REMARK       I    between atoms: N1_4  and  C4_5 
REMARK    2  A    between atoms: C4_5  and  C5_7 
REMARK    3  A    between atoms: C5_7  and  C6_8 
REMARK    4  A    between atoms: C6_8  and  N2_9 
REMARK       I    between atoms: N2_9  and  C7_10 
REMARK    5  A    between atoms: C7_10  and  C8_12 
REMARK       I    between atoms: C8_12  and  N3_14 
REMARK    6  A    between atoms: N3_14  and  C9_15 
ROOT
ATOM      1  C8  <0> d          -6.134  -5.904  -1.565  0.00  0.00     0.314 C 
ATOM      2  O3  <0> d          -7.030  -5.220  -1.114  0.00  0.00    -0.262 OA
ATOM      3  N3  <0> d          -6.406  -7.126  -2.065  0.00  0.00    -0.317 N 
ATOM      4  H14 <0> d          -5.706  -7.639  -2.497  0.00  0.00     0.169 HD
ENDROOT
BRANCH   1   5
ATOM      5  C7  <0> d          -4.731  -5.392  -1.565  0.00  0.00     0.309 C 
ATOM      6  N2  <0> d          -4.460  -4.170  -1.064  0.00  0.00    -0.352 N 
ATOM      7  H13 <0> d          -5.176  -3.624  -0.704  0.00  0.00     0.162 HD
ATOM      8  O2  <0> d          -3.836  -6.076  -2.015  0.00  0.00    -0.262 OA
BRANCH   6   9
ATOM      9  C6  <0> d          -3.083  -3.668  -1.064  0.00  0.00     0.132 C 
BRANCH   9  10
ATOM     10  C5  <0> d          -3.051  -2.269  -0.446  0.00  0.00     0.122 C 
BRANCH  10  11
ATOM     11  C4  <0> d          -1.635  -1.753  -0.446  0.00  0.00     0.219 C 
ATOM     12  N1  <0> d          -1.364  -0.531   0.054  0.00  0.00    -0.357 N 
ATOM     13  H8  <0> d          -2.079   0.016   0.414  0.00  0.00     0.162 HD
ATOM     14  O1  <0> d          -0.740  -2.436  -0.896  0.00  0.00    -0.274 OA
BRANCH  12  15
ATOM     15  C2  <0> d           0.013  -0.029   0.054  0.00  0.00     0.076 C 
ATOM     16  C1  <0> d          -0.003   1.501   0.063  0.00  0.00     0.032 C 
ATOM     17  C3  <0> d           0.742  -0.539   1.298  0.00  0.00     0.032 C 
ENDBRANCH  12  15
ENDBRANCH  10  11
ENDBRANCH   9  10
ENDBRANCH   6   9
ENDBRANCH   1   5
BRANCH   3  18
ATOM     18  C9  <0> d          -7.697  -7.653  -1.960  0.00  0.00     0.059 A 
ATOM     19  C14 <0> d          -8.133  -8.607  -2.872  0.00  0.00     0.063 A 
ATOM     20  C13 <0> d          -9.408  -9.135  -2.767  0.00  0.00     0.065 A 
ATOM     21 Cl1  <0> d          -7.074  -9.144  -4.138  0.00  0.00    -0.082 Cl
ATOM     22  C12 <0> d         -10.253  -8.700  -1.760  0.00  0.00     0.103 A 
ATOM     23  C11 <0> d          -9.822  -7.743  -0.852  0.00  0.00     0.104 A 
ATOM     24  O4  <0> d         -11.515  -9.210  -1.653  0.00  0.00    -0.348 OA
ATOM     25  C10 <0> d          -8.546  -7.217  -0.949  0.00  0.00     0.071 A 
ATOM     26  O5  <0> d         -10.665  -7.322   0.136  0.00  0.00    -0.348 OA
ATOM     27  C17 <0> d         -10.978  -8.287   1.143  0.00  0.00     0.178 C 
ATOM     28  C16 <0> d         -12.126  -9.179   0.697  0.00  0.00     0.053 C 
ATOM     29  C15 <0> d         -11.763 -10.030  -0.510  0.00  0.00     0.178 C 
ENDBRANCH   3  18
TORSDOF 6
