REMARK  3 active torsions:
REMARK  status: ('A' for Active; 'I' for Inactive)
REMARK    1  A    between atoms: C2_2  and  S1_3 
REMARK    2  A    between atoms: S1_3  and  C3_4 
REMARK    3  A    between atoms: C10_16  and  C11_17 
ROOT
ATOM      1  C3  <0> d           2.271   5.324   0.355  0.00  0.00     0.173 A 
ATOM      2  N1  <0> d           1.201   6.004  -0.001  0.00  0.00    -0.185 NA
ATOM      3  C4  <0> d           0.074   5.373  -0.369  0.00  0.00     0.280 A 
ATOM      4  O1  <0> d          -0.913   6.015  -0.696  0.00  0.00    -0.265 OA
ATOM      5  C5  <0> d           0.038   3.963  -0.373  0.00  0.00     0.065 A 
ATOM      6  C6  <0> d           1.150   3.271  -0.004  0.00  0.00     0.124 A 
ATOM      7  N2  <0> d           2.274   3.962   0.363  0.00  0.00    -0.316 N 
ATOM      8  C7  <0> d           3.481   3.235   0.766  0.00  0.00     0.160 C 
ATOM      9  N3  <0> d           1.145   1.892   0.001  0.00  0.00    -0.312 N 
ATOM     10  C8  <0> d          -0.014   1.208   0.009  0.00  0.00     0.224 C 
ATOM     11  O2  <0> d           0.002  -0.004   0.002  0.00  0.00    -0.273 OA
ATOM     12  C9  <0> d          -1.332   1.938   0.019  0.00  0.00     0.117 C 
ATOM     13  C10 <0> d          -1.212   3.232  -0.782  0.00  0.00     0.070 C 
ATOM     14  H10 <0> d           1.986   1.409  -0.000  0.00  0.00     0.170 HD
ENDROOT
BRANCH  13  15
ATOM     15  C11 <0> d          -1.144   2.905  -2.252  0.00  0.00    -0.046 A 
ATOM     16  C16 <0> d          -2.106   3.397  -3.113  0.00  0.00     0.047 A 
ATOM     17  C15 <0> d          -2.047   3.096  -4.466  0.00  0.00     0.102 A 
ATOM     18  C14 <0> d          -1.015   2.303  -4.953  0.00  0.00     0.102 A 
ATOM     19  O3  <0> d          -3.006   3.582  -5.301  0.00  0.00    -0.346 OA
ATOM     20  C13 <0> d          -0.053   1.811  -4.083  0.00  0.00     0.040 A 
ATOM     21  O4  <0> d          -0.933   2.002  -6.278  0.00  0.00    -0.346 OA
ATOM     22  C12 <0> d          -0.117   2.117  -2.736  0.00  0.00     0.011 A 
ATOM     23  C18 <0> d          -2.119   2.198  -7.056  0.00  0.00     0.202 C 
ATOM     24  C17 <0> d          -2.706   3.571  -6.701  0.00  0.00     0.202 C 
ENDBRANCH  13  15
BRANCH   1  25
ATOM     25  S1  <0> d           3.728   6.194   0.831  0.00  0.00    -0.092 SA
BRANCH  25  26
ATOM     26  C2  <0> d           3.155   7.899   0.633  0.00  0.00     0.078 C 
ATOM     27  C1  <0> d           4.285   8.863   1.000  0.00  0.00     0.016 C 
ENDBRANCH  25  26
ENDBRANCH   1  25
TORSDOF 3
