REMARK  6 active torsions:
REMARK  status: ('A' for Active; 'I' for Inactive)
REMARK    1  A    between atoms: C6_7  and  O2_11 
REMARK    2  A    between atoms: O2_11  and  C9_12 
REMARK    3  A    between atoms: C16_20  and  C18_23 
REMARK    4  A    between atoms: C17_21  and  O3_22 
REMARK       I    between atoms: C18_23  and  N3_25 
REMARK    5  A    between atoms: N3_25  and  C19_26 
REMARK    6  A    between atoms: C19_26  and  C20_27 
ROOT
ATOM      1  C9  <0> d           0.067  -6.843   0.658  0.00  0.00     0.077 A 
ATOM      2  C10 <0> d           0.105  -6.860  -0.740  0.00  0.00     0.038 A 
ATOM      3  C11 <0> d           0.086  -8.037  -1.424  0.00  0.00     0.018 A 
ATOM      4  C12 <0> d           0.028  -9.249  -0.723  0.00  0.00     0.011 A 
ATOM      5  C13 <0> d          -0.011  -9.241   0.696  0.00  0.00    -0.003 A 
ATOM      6  C14 <0> d           0.015  -8.018   1.377  0.00  0.00     0.051 A 
ATOM      7  C15 <0> d          -0.069 -10.471   1.382  0.00  0.00     0.130 A 
ATOM      8  N2  <0> d          -0.086 -11.598   0.721  0.00  0.00    -0.252 NA
ATOM      9  C16 <0> d          -0.051 -11.654  -0.614  0.00  0.00     0.158 A 
ATOM     10  C17 <0> d           0.007 -10.495  -1.385  0.00  0.00     0.111 A 
ENDROOT
BRANCH   1  11
ATOM     11  O2  <0> d           0.087  -5.654   1.314  0.00  0.00    -0.311 OA
BRANCH  11  12
ATOM     12  C6  <0> d          -1.103  -5.055   1.585  0.00  0.00     0.079 A 
ATOM     13  C5  <0> d          -1.126  -3.832   2.250  0.00  0.00     0.040 A 
ATOM     14  C4  <0> d          -2.314  -3.217   2.529  0.00  0.00     0.037 A 
ATOM     15  C3  <0> d          -3.515  -3.816   2.146  0.00  0.00     0.093 A 
ATOM     16  N1  <0> d          -4.824  -3.467   2.274  0.00  0.00    -0.226 NA
ATOM     17  C8  <0> d          -3.496  -5.049   1.476  0.00  0.00     0.109 A 
ATOM     18  C2  <0> d          -5.559  -4.392   1.736  0.00  0.00     0.142 A 
ATOM     19  C1  <0> d          -7.065  -4.370   1.677  0.00  0.00     0.100 C 
ATOM     20  O1  <0> d          -4.787  -5.374   1.244  0.00  0.00    -0.294 OA
ATOM     21  C7  <0> d          -2.284  -5.663   1.198  0.00  0.00     0.077 A 
ENDBRANCH  11  12
ENDBRANCH   1  11
BRANCH  10  22
ATOM     22  O3  <0> d           0.042 -10.562  -2.737  0.00  0.00    -0.357 OA
ATOM     23  H11 <0> d           0.934 -10.610  -3.106  0.00  0.00     0.217 HD
ENDBRANCH  10  22
BRANCH   9  24
ATOM     24  C18 <0> d          -0.073 -12.967  -1.283  0.00  0.00     0.273 C 
ATOM     25  O4  <0> d          -0.041 -13.031  -2.498  0.00  0.00    -0.266 OA
ATOM     26  N3  <0> d          -0.128 -14.096  -0.550  0.00  0.00    -0.346 N 
ATOM     27  H12 <0> d          -0.153 -14.045   0.418  0.00  0.00     0.163 HD
BRANCH  26  28
ATOM     28  C19 <0> d          -0.150 -15.401  -1.216  0.00  0.00     0.236 C 
BRANCH  28  29
ATOM     29  C20 <0> d          -0.212 -16.493  -0.178  0.00  0.00     0.191 C 
ATOM     30  O5  <0> d          -0.236 -16.207   1.006  0.00  0.00    -0.647 OA
ATOM     31  O6  <0> d          -0.239 -17.662  -0.525  0.00  0.00    -0.647 OA
ENDBRANCH  28  29
ENDBRANCH  26  28
ENDBRANCH   9  24
TORSDOF 6
