REMARK  4 active torsions:
REMARK  status: ('A' for Active; 'I' for Inactive)
REMARK       I    between atoms: C2_2  and  N1_4 
REMARK    1  A    between atoms: N1_4  and  C3_5 
REMARK    2  A    between atoms: C5_7  and  N2_13 
REMARK       I    between atoms: N2_13  and  C9_14 
REMARK    3  A    between atoms: C9_14  and  C10_16 
REMARK    4  A    between atoms: C10_16  and  N3_17 
ROOT
ATOM      1  N2  <0> d           0.134  -5.012   1.018  0.00  0.00    -0.323 N 
ATOM      2  C9  <0> d          -0.075  -4.400   2.200  0.00  0.00     0.240 C 
ATOM      3  O2  <0> d          -0.158  -3.191   2.251  0.00  0.00    -0.271 OA
ATOM      4  H7  <0> d           0.265  -5.972   0.985  0.00  0.00     0.169 HD
ENDROOT
BRANCH   1   5
ATOM      5  C5  <0> d           0.163  -4.260  -0.165  0.00  0.00     0.076 A 
ATOM      6  C4  <0> d           0.684  -2.975  -0.158  0.00  0.00     0.065 A 
ATOM      7  C3  <0> d           0.712  -2.233  -1.330  0.00  0.00     0.076 A 
ATOM      8  C8  <0> d           0.212  -2.777  -2.507  0.00  0.00     0.146 A 
ATOM      9  C7  <0> d          -0.303  -4.061  -2.513  0.00  0.00     0.089 A 
ATOM     10  F1  <0> d           0.234  -2.053  -3.648  0.00  0.00    -0.204 F 
ATOM     11  C6  <0> d          -0.331  -4.802  -1.346  0.00  0.00     0.146 A 
ATOM     12  F2  <0> d          -0.840  -6.054  -1.353  0.00  0.00    -0.204 F 
BRANCH   7  13
ATOM     13  N1  <0> d           1.238  -0.934  -1.325  0.00  0.00    -0.325 N 
ATOM     14  C2  <0> d           2.279  -0.632  -0.524  0.00  0.00     0.218 C 
ATOM     15  C1  <0> d           2.909   0.736  -0.592  0.00  0.00     0.117 C 
ATOM     16  O1  <0> d           2.708  -1.460   0.251  0.00  0.00    -0.274 OA
ATOM     17  H4  <0> d           0.853  -0.253  -1.898  0.00  0.00     0.169 HD
ENDBRANCH   7  13
ENDBRANCH   1   5
BRANCH   2  18
ATOM     18  C10 <0> d          -0.206  -5.218   3.459  0.00  0.00     0.236 C 
BRANCH  18  19
ATOM     19  N3  <0> d          -0.427  -4.326   4.600  0.00  0.00    -0.299 N 
ATOM     20  C14 <0> d          -1.686  -3.997   4.946  0.00  0.00     0.262 A 
ATOM     21  C13 <0> d          -1.893  -3.128   6.066  0.00  0.00     0.068 A 
ATOM     22  O3  <0> d          -2.635  -4.435   4.319  0.00  0.00    -0.267 OA
ATOM     23  C12 <0> d          -0.726  -2.680   6.712  0.00  0.00     0.114 A 
ATOM     24  C15 <0> d          -3.135  -2.635   6.633  0.00  0.00     0.027 A 
ATOM     25  N4  <0> d           0.487  -3.046   6.307  0.00  0.00    -0.235 NA
ATOM     26  S1  <0> d          -1.345  -1.646   8.014  0.00  0.00    -0.081 SA
ATOM     27  C11 <0> d           0.642  -3.844   5.284  0.00  0.00     0.214 A 
ATOM     28  C16 <0> d          -3.091  -1.816   7.695  0.00  0.00     0.053 A 
ENDBRANCH  18  19
ENDBRANCH   2  18
TORSDOF 4
