REMARK  5 active torsions:
REMARK  status: ('A' for Active; 'I' for Inactive)
REMARK    1  A    between atoms: C3_3  and  C7_8 
REMARK    2  A    between atoms: C8_11  and  S1_14 
REMARK    3  A    between atoms: N3_12  and  N4_13 
REMARK    4  A    between atoms: S1_14  and  C9_15 
REMARK    5  A    between atoms: C9_15  and  C10_16 
REMARK       I    between atoms: C10_16  and  N5_18 
ROOT
ATOM      1  C7  <0> d           3.657   2.162  -0.022  0.00  0.00     0.179 A 
ATOM      2  N1  <0> d           3.804   3.439  -0.284  0.00  0.00    -0.127 NA
ATOM      3  N2  <0> d           5.045   3.764  -0.202  0.00  0.00    -0.121 NA
ATOM      4  C8  <0> d           5.766   2.712   0.118  0.00  0.00     0.206 A 
ATOM      5  N3  <0> d           4.908   1.658   0.250  0.00  0.00    -0.235 N 
ENDROOT
BRANCH   4   6
ATOM      6  S1  <0> d           7.513   2.672   0.343  0.00  0.00    -0.080 SA
BRANCH   6   7
ATOM      7  C9  <0> d           8.035   4.381   0.031  0.00  0.00     0.186 C 
BRANCH   7   8
ATOM      8  C10 <0> d           9.530   4.487   0.193  0.00  0.00     0.236 C 
ATOM      9  O1  <0> d          10.179   3.507   0.488  0.00  0.00    -0.272 OA
ATOM     10  N5  <0> d          10.145   5.672   0.008  0.00  0.00    -0.288 N 
ATOM     11  C14 <0> d           9.513   6.812  -0.321  0.00  0.00     0.226 C 
ATOM     12  C11 <0> d          11.592   5.883   0.134  0.00  0.00     0.135 C 
ATOM     13  C13 <0> d          10.511   7.941  -0.452  0.00  0.00     0.105 C 
ATOM     14  O2  <0> d           8.317   6.920  -0.486  0.00  0.00    -0.273 OA
ATOM     15  C12 <0> d          11.876   7.226  -0.573  0.00  0.00     0.029 C 
ENDBRANCH   7   8
ENDBRANCH   6   7
ENDBRANCH   4   6
BRANCH   5  16
ATOM     16  N4  <0> d           5.226   0.371   0.580  0.00  0.00    -0.239 NA
ATOM     17  H5  <0> d           5.425  -0.175  -0.244  0.00  0.00     0.143 HD
ATOM     18  H6  <0> d           6.000   0.345   1.228  0.00  0.00     0.143 HD
ENDBRANCH   5  16
BRANCH   1  19
ATOM     19  C3  <0> d           2.385   1.408  -0.013  0.00  0.00     0.014 A 
ATOM     20  C2  <0> d           1.167   2.088   0.002  0.00  0.00     0.015 A 
ATOM     21  C1  <0> d          -0.017   1.379   0.010  0.00  0.00     0.002 A 
ATOM     22  C6  <0> d           0.002  -0.004   0.002  0.00  0.00     0.019 A 
ATOM     23  C5  <0> d           1.207  -0.686  -0.013  0.00  0.00     0.011 A 
ATOM     24  C4  <0> d           2.398   0.012  -0.021  0.00  0.00     0.034 A 
ATOM     25 Br1  <0> d           1.221  -2.577  -0.024  0.00  0.00    -0.051 Br
ENDBRANCH   1  19
TORSDOF 5
