REMARK  6 active torsions:
REMARK  status: ('A' for Active; 'I' for Inactive)
REMARK    1  A    between atoms: C2_2  and  N1_5 
REMARK    2  A    between atoms: C9_14  and  N5_16 
REMARK    3  A    between atoms: N5_16  and  C10_17 
REMARK    4  A    between atoms: C10_17  and  C11_18 
REMARK    5  A    between atoms: C15_22  and  C17_24 
REMARK    6  A    between atoms: C17_24  and  N6_25 
ROOT
ATOM      1  N5  <0> d           0.553  -5.261  -0.921  0.00  0.00    -0.220 N 
ATOM      2  H12 <0> d           0.786  -6.111  -1.324  0.00  0.00     0.178 HD
ENDROOT
BRANCH   1   3
ATOM      3  C9  <0> d           0.899  -4.088  -1.543  0.00  0.00     0.705 A 
ATOM      4  N3  <0> d           1.571  -4.144  -2.728  0.00  0.00    -0.153 N 
ATOM      5  C8  <0> d           1.926  -3.006  -3.365  0.00  0.00     0.275 A 
ATOM      6  H1  <0> d           1.795  -5.004  -3.116  0.00  0.00     0.187 HD
ATOM      7  C6  <0> d           1.582  -1.767  -2.769  0.00  0.00     0.100 A 
ATOM      8  O1  <0> d           2.527  -3.044  -4.425  0.00  0.00    -0.267 OA
ATOM      9  C5  <0> d           0.889  -1.776  -1.547  0.00  0.00     0.183 A 
ATOM     10  C7  <0> d           1.777  -0.417  -3.125  0.00  0.00     0.160 A 
ATOM     11  N1  <0> d           0.688  -0.476  -1.203  0.00  0.00    -0.242 N 
ATOM     12  N4  <0> d           0.572  -2.948  -0.979  0.00  0.00    -0.044 NA
ATOM     13  N2  <0> d           1.243   0.333  -2.202  0.00  0.00    -0.181 NA
BRANCH  11  14
ATOM     14  C2  <0> d           0.002  -0.004   0.002  0.00  0.00     0.047 C 
ATOM     15  C1  <0> d          -0.019   1.526   0.010  0.00  0.00     0.040 C 
ATOM     16  C3  <0> d           0.742  -0.511   1.242  0.00  0.00     0.040 C 
ATOM     17  C4  <0> d          -1.433  -0.534   0.013  0.00  0.00     0.040 C 
ENDBRANCH  11  14
ENDBRANCH   1   3
BRANCH   1  18
ATOM     18  C10 <0> d          -0.169  -5.228   0.354  0.00  0.00     0.176 C 
BRANCH  18  19
ATOM     19  C11 <0> d          -0.427  -6.637   0.822  0.00  0.00    -0.039 A 
ATOM     20  C16 <0> d           0.497  -7.278   1.626  0.00  0.00     0.017 A 
ATOM     21  C15 <0> d           0.258  -8.569   2.059  0.00  0.00    -0.032 A 
ATOM     22  C14 <0> d          -0.899  -9.223   1.679  0.00  0.00     0.009 A 
ATOM     23  C13 <0> d          -1.820  -8.583   0.870  0.00  0.00     0.001 A 
ATOM     24  C12 <0> d          -1.584  -7.291   0.441  0.00  0.00     0.009 A 
BRANCH  21  25
ATOM     25  C17 <0> d           1.262  -9.265   2.941  0.00  0.00     0.273 C 
BRANCH  25  26
ATOM     26  N6  <0> d           2.234  -9.983   2.105  0.00  0.00    -0.067 N 
ATOM     27  C21 <0> d           3.155 -10.770   2.954  0.00  0.00     0.235 C 
ATOM     28  C20 <0> d           4.538 -10.729   2.279  0.00  0.00     0.029 C 
ATOM     29  C19 <0> d           4.348  -9.850   1.022  0.00  0.00     0.029 C 
ATOM     30  C18 <0> d           3.088  -9.017   1.368  0.00  0.00     0.235 C 
ATOM     31  H29 <0> d           1.755 -10.590   1.457  0.00  0.00     0.280 HD
ENDBRANCH  25  26
ENDBRANCH  21  25
ENDBRANCH  18  19
ENDBRANCH   1  18
TORSDOF 6
