REMARK  4 active torsions:
REMARK  status: ('A' for Active; 'I' for Inactive)
REMARK    1  A    between atoms: C5_5  and  N1_8 
REMARK    2  A    between atoms: N1_8  and  C8_9 
REMARK    3  A    between atoms: C8_9  and  C10_11 
REMARK       I    between atoms: C10_11  and  N2_13 
REMARK    4  A    between atoms: N2_13  and  C12_15 
ROOT
ATOM      1  C8  <0> d           0.074  -4.907   1.244  0.00  0.00     0.170 C 
ATOM      2  C9  <0> d          -1.358  -5.075   1.754  0.00  0.00     0.042 C 
ENDROOT
BRANCH   1   3
ATOM      3  N1  <0> d           0.058  -4.167  -0.021  0.00  0.00    -0.377 N 
ATOM      4  H10 <0> d           0.060  -4.648  -0.864  0.00  0.00     0.160 HD
BRANCH   3   5
ATOM      5  C5  <0> d           0.040  -2.771  -0.013  0.00  0.00     0.028 A 
ATOM      6  C4  <0> d           0.024  -2.068  -1.212  0.00  0.00     0.029 A 
ATOM      7  C3  <0> d           0.006  -0.687  -1.200  0.00  0.00     0.009 A 
ATOM      8  C2  <0> d           0.002  -0.004   0.002  0.00  0.00    -0.062 A 
ATOM      9  C1  <0> d          -0.018   1.503   0.010  0.00  0.00     0.048 C 
ATOM     10  C7  <0> d           0.023  -0.700   1.197  0.00  0.00     0.009 A 
ATOM     11  C6  <0> d           0.036  -2.081   1.193  0.00  0.00     0.029 A 
ENDBRANCH   3   5
ENDBRANCH   1   3
BRANCH   1  12
ATOM     12  C10 <0> d           0.692  -6.264   1.024  0.00  0.00     0.242 C 
ATOM     13  O1  <0> d           1.080  -6.582  -0.080  0.00  0.00    -0.271 OA
ATOM     14  N2  <0> d           0.812  -7.124   2.055  0.00  0.00    -0.349 N 
ATOM     15  C11 <0> d           0.343  -6.739   3.389  0.00  0.00     0.153 C 
BRANCH  14  16
ATOM     16  C12 <0> d           1.412  -8.443   1.842  0.00  0.00     0.101 C 
ATOM     17  C15 <0> d           0.377  -9.540   2.187  0.00  0.00     0.165 C 
ATOM     18  S1  <0> d           1.432 -10.909   2.816  0.00  0.00     0.146 S 
ATOM     19  C14 <0> d           3.079 -10.087   2.733  0.00  0.00     0.142 C 
ATOM     20  O2  <0> d           1.403 -11.981   1.884  0.00  0.00    -0.228 OA
ATOM     21  O3  <0> d           1.106 -11.156   4.176  0.00  0.00    -0.228 OA
ATOM     22  C13 <0> d           2.651  -8.591   2.741  0.00  0.00     0.041 C 
ENDBRANCH  14  16
ENDBRANCH   1  12
TORSDOF 4
