REMARK  4 active torsions:
REMARK  status: ('A' for Active; 'I' for Inactive)
REMARK    1  A    between atoms: N1_5  and  C5_7 
REMARK    2  A    between atoms: C5_7  and  C6_8 
REMARK       I    between atoms: C6_8  and  N3_10 
REMARK    3  A    between atoms: C10_14  and  C12_16 
REMARK    4  A    between atoms: C12_16  and  N4_17 
REMARK       I    between atoms: N4_17  and  C13_18 
ROOT
ATOM      1  C6  <0> d           1.482  -3.681   1.774  0.00  0.00     0.239 C 
ATOM      2  O1  <0> d           2.393  -3.031   1.307  0.00  0.00    -0.271 OA
ATOM      3  N3  <0> d           1.747  -4.750   2.552  0.00  0.00    -0.350 N 
ATOM      4  C7  <0> d           0.655  -5.551   3.120  0.00  0.00     0.126 C 
ATOM      5  C8  <0> d           0.853  -5.651   4.636  0.00  0.00     0.020 C 
ATOM      6  C9  <0> d           2.252  -6.198   4.928  0.00  0.00     0.009 C 
ATOM      7  C10 <0> d           3.305  -5.240   4.365  0.00  0.00     0.021 C 
ATOM      8  C11 <0> d           3.134  -5.139   2.842  0.00  0.00     0.132 C 
ENDROOT
BRANCH   1   9
ATOM      9  C5  <0> d           0.055  -3.295   1.486  0.00  0.00     0.254 C 
BRANCH   9  10
ATOM     10  N1  <0> d           0.034  -2.109   0.625  0.00  0.00    -0.264 N 
ATOM     11  C4  <0> d           0.028  -2.108  -0.725  0.00  0.00     0.051 A 
ATOM     12  C3  <0> d           0.008  -0.818  -1.136  0.00  0.00     0.083 A 
ATOM     13  C15 <0> d           0.041  -3.324  -1.615  0.00  0.00     0.072 C 
ATOM     14  C2  <0> d           0.002  -0.004   0.002  0.00  0.00     0.074 A 
ATOM     15 Cl1  <0> d          -0.008  -0.271  -2.784  0.00  0.00    -0.080 Cl
ATOM     16  C1  <0> d          -0.018   1.503   0.010  0.00  0.00     0.074 C 
ATOM     17  N2  <0> d           0.023  -0.777   1.058  0.00  0.00    -0.175 NA
ENDBRANCH   9  10
ENDBRANCH   1   9
BRANCH   7  18
ATOM     18  C12 <0> d           4.703  -5.771   4.687  0.00  0.00     0.128 C 
BRANCH  18  19
ATOM     19  N4  <0> d           5.707  -4.796   4.254  0.00  0.00    -0.361 N 
ATOM     20  C13 <0> d           7.018  -5.052   4.438  0.00  0.00     0.213 C 
ATOM     21  O2  <0> d           7.365  -6.089   4.962  0.00  0.00    -0.274 OA
ATOM     22  C14 <0> d           8.051  -4.050   3.992  0.00  0.00     0.117 C 
ATOM     23  H17 <0> d           5.429  -3.967   3.835  0.00  0.00     0.162 HD
ENDBRANCH  18  19
ENDBRANCH   7  18
TORSDOF 4
