REMARK  4 active torsions:
REMARK  status: ('A' for Active; 'I' for Inactive)
REMARK    1  A    between atoms: C5_5  and  C7_7 
REMARK    2  A    between atoms: C8_10  and  C16_21 
REMARK    3  A    between atoms: C9_11  and  C11_15 
REMARK    4  A    between atoms: C16_21  and  O1_22 
ROOT
ATOM      1  C7  <0> d           1.263  -2.160   0.034  0.00  0.00     0.135 A 
ATOM      2  N1  <0> d           2.291  -2.969   0.059  0.00  0.00    -0.157 NA
ATOM      3  N2  <0> d           2.123  -4.349   0.007  0.00  0.00    -0.208 N 
ATOM      4  C8  <0> d           2.910  -5.490   0.010  0.00  0.00     0.091 A 
ATOM      5  C9  <0> d           2.081  -6.562  -0.064  0.00  0.00     0.097 A 
ATOM      6  N3  <0> d           0.812  -6.106  -0.113  0.00  0.00    -0.220 NA
ATOM      7  C10 <0> d           0.833  -4.806  -0.071  0.00  0.00     0.197 A 
ATOM      8  S1  <0> d          -0.110  -3.299  -0.062  0.00  0.00    -0.028 SA
ENDROOT
BRANCH   1   9
ATOM      9  C5  <0> d           1.243  -0.682   0.079  0.00  0.00     0.040 A 
ATOM     10  C4  <0> d           2.440   0.034   0.154  0.00  0.00     0.129 A 
ATOM     11  C3  <0> d           2.413   1.416   0.196  0.00  0.00     0.043 A 
ATOM     12  F1  <0> d           3.621  -0.621   0.186  0.00  0.00    -0.205 F 
ATOM     13  C2  <0> d           1.204   2.087   0.163  0.00  0.00     0.003 A 
ATOM     14  C1  <0> d           0.016   1.383   0.088  0.00  0.00     0.001 A 
ATOM     15  C6  <0> d           0.028   0.004   0.046  0.00  0.00     0.017 A 
ENDBRANCH   1   9
BRANCH   4  16
ATOM     16  C16 <0> d           4.415  -5.532   0.083  0.00  0.00     0.226 C 
BRANCH  16  17
ATOM     17  O1  <0> d           4.828  -5.458   1.449  0.00  0.00    -0.395 OA
ATOM     18  H11 <0> d           5.787  -5.480   1.572  0.00  0.00     0.209 HD
ENDBRANCH  16  17
ENDBRANCH   4  16
BRANCH   5  19
ATOM     19  C11 <0> d           2.497  -7.984  -0.089  0.00  0.00    -0.003 A 
ATOM     20  C15 <0> d           1.880  -8.898  -0.950  0.00  0.00     0.033 A 
ATOM     21  C14 <0> d           2.300 -10.212  -0.944  0.00  0.00     0.117 A 
ATOM     22  N4  <0> d           3.264 -10.611  -0.135  0.00  0.00    -0.273 NA
ATOM     23  C13 <0> d           3.868  -9.782   0.696  0.00  0.00     0.117 A 
ATOM     24  C12 <0> d           3.513  -8.451   0.751  0.00  0.00     0.033 A 
ENDBRANCH   5  19
TORSDOF 4
