REMARK  8 active torsions:
REMARK  status: ('A' for Active; 'I' for Inactive)
REMARK    1  A    between atoms: C2_2  and  O1_3 
REMARK    2  A    between atoms: O1_3  and  C3_4 
REMARK    3  A    between atoms: C3_4  and  C4_6 
REMARK    4  A    between atoms: C5_7  and  N2_16 
REMARK       I    between atoms: N2_16  and  C12_17 
REMARK    5  A    between atoms: C12_17  and  C13_19 
REMARK    6  A    between atoms: C13_19  and  C14_20 
REMARK    7  A    between atoms: C14_20  and  N3_21 
REMARK    8  A    between atoms: C17_24  and  C20_27 
REMARK       I    between atoms: C20_27  and  N4_29 
ROOT
ATOM      1  N2  <0> d          -0.197  -1.370   4.366  0.00  0.00    -0.327 N 
ATOM      2  C12 <0> d          -0.910  -1.627   5.480  0.00  0.00     0.223 C 
ATOM      3  O3  <0> d          -0.876  -2.730   5.981  0.00  0.00    -0.273 OA
ATOM      4  H10 <0> d          -0.157  -0.468   4.013  0.00  0.00     0.168 HD
ENDROOT
BRANCH   1   5
ATOM      5  C5  <0> d           0.469  -2.378   3.736  0.00  0.00     0.057 A 
ATOM      6  C4  <0> d           0.635  -3.803   4.217  0.00  0.00     0.233 A 
ATOM      7  N1  <0> d           1.424  -4.489   3.189  0.00  0.00    -0.371 N 
ATOM      8  C11 <0> d           1.707  -3.635   2.224  0.00  0.00     0.041 A 
ATOM      9  H26 <0> d           1.695  -5.420   3.215  0.00  0.00     0.161 HD
ATOM     10  C6  <0> d           1.133  -2.312   2.523  0.00  0.00     0.017 A 
ATOM     11  C10 <0> d           2.437  -3.790   1.017  0.00  0.00     0.031 A 
ATOM     12  C7  <0> d           1.331  -1.257   1.600  0.00  0.00     0.034 A 
ATOM     13  C8  <0> d           2.039  -1.481   0.465  0.00  0.00     0.011 A 
ATOM     14  C9  <0> d           2.586  -2.736   0.179  0.00  0.00     0.021 A 
ATOM     15 Br1  <0> d           2.295  -0.063  -0.759  0.00  0.00    -0.051 Br
BRANCH   6  16
ATOM     16  C3  <0> d           1.367  -3.825   5.534  0.00  0.00     0.287 C 
ATOM     17  O2  <0> d           2.559  -3.629   5.566  0.00  0.00    -0.262 OA
BRANCH  16  18
ATOM     18  O1  <0> d           0.695  -4.061   6.671  0.00  0.00    -0.320 OA
BRANCH  18  19
ATOM     19  C2  <0> d           1.453  -4.067   7.883  0.00  0.00     0.174 C 
ATOM     20  C1  <0> d           0.523  -4.351   9.065  0.00  0.00     0.034 C 
ENDBRANCH  18  19
ENDBRANCH  16  18
ENDBRANCH   6  16
ENDBRANCH   1   5
BRANCH   2  21
ATOM     21  C13 <0> d          -1.751  -0.542   6.103  0.00  0.00     0.131 C 
BRANCH  21  22
ATOM     22  C14 <0> d          -2.453  -1.091   7.347  0.00  0.00     0.244 C 
BRANCH  22  23
ATOM     23  N3  <0> d          -3.272  -0.034   7.954  0.00  0.00    -0.071 N 
ATOM     24  C19 <0> d          -4.037  -0.593   9.075  0.00  0.00     0.235 C 
ATOM     25  C18 <0> d          -4.953   0.484   9.660  0.00  0.00     0.042 C 
ATOM     26  C17 <0> d          -4.101   1.657  10.155  0.00  0.00     0.081 C 
ATOM     27  C16 <0> d          -3.252   2.184   8.995  0.00  0.00     0.042 C 
ATOM     28  C15 <0> d          -2.399   1.044   8.435  0.00  0.00     0.235 C 
ATOM     29  H27 <0> d          -3.909   0.335   7.264  0.00  0.00     0.279 HD
BRANCH  26  30
ATOM     30  C20 <0> d          -5.000   2.755  10.661  0.00  0.00     0.219 C 
ATOM     31  O4  <0> d          -4.967   3.852  10.146  0.00  0.00    -0.273 OA
ATOM     32  N4  <0> d          -5.842   2.518  11.687  0.00  0.00    -0.370 N 
ATOM     33  H24 <0> d          -5.869   1.640  12.099  0.00  0.00     0.159 HD
ATOM     34  H25 <0> d          -6.421   3.224  12.012  0.00  0.00     0.159 HD
ENDBRANCH  26  30
ENDBRANCH  22  23
ENDBRANCH  21  22
ENDBRANCH   2  21
TORSDOF 8
