REMARK  5 active torsions:
REMARK  status: ('A' for Active; 'I' for Inactive)
REMARK    1  A    between atoms: O1_2  and  C2_3 
REMARK    2  A    between atoms: C2_3  and  C3_5 
REMARK    3  A    between atoms: C6_8  and  C9_11 
REMARK    4  A    between atoms: C14_19  and  C15_21 
REMARK    5  A    between atoms: C14_19  and  C21_27 
ROOT
ATOM      1  C9  <0> d           0.851  -6.357   1.260  0.00  0.00     0.269 C 
ATOM      2  C10 <0> d           2.230  -6.859   0.843  0.00  0.00     0.132 C 
ATOM      3  C11 <0> d           2.111  -8.301   1.465  0.00  0.00     0.148 C 
ATOM      4  C12 <0> d           3.170  -9.008   0.786  0.00  0.00     0.232 C 
ATOM      5  O3  <0> d           3.864  -9.899   1.228  0.00  0.00    -0.273 OA
ATOM      6  N1  <0> d           3.220  -8.453  -0.468  0.00  0.00    -0.297 N 
ATOM      7  C13 <0> d           2.506  -7.277  -0.567  0.00  0.00     0.231 C 
ATOM      8  O4  <0> d           2.164  -6.701  -1.578  0.00  0.00    -0.273 OA
ATOM      9  C14 <0> d           1.617  -8.048   2.824  0.00  0.00     0.284 C 
ATOM     10  N2  <0> d           0.725  -6.837   2.675  0.00  0.00     0.119 N 
ATOM     11  H16 <0> d           0.997  -6.116   3.327  0.00  0.00     0.319 HD
ATOM     12  H17 <0> d           3.715  -8.840  -1.207  0.00  0.00     0.171 HD
ENDROOT
BRANCH   1  13
ATOM     13  C6  <0> d           0.791  -4.853   1.200  0.00  0.00    -0.024 A 
ATOM     14  C5  <0> d           0.160  -4.231   0.138  0.00  0.00     0.010 A 
ATOM     15  C4  <0> d           0.101  -2.854   0.077  0.00  0.00     0.018 A 
ATOM     16  C3  <0> d           0.680  -2.088   1.091  0.00  0.00     0.039 A 
ATOM     17  C8  <0> d           1.320  -2.722   2.157  0.00  0.00     0.018 A 
ATOM     18  C7  <0> d           1.366  -4.100   2.209  0.00  0.00     0.010 A 
BRANCH  16  19
ATOM     19  C2  <0> d           0.620  -0.613   1.032  0.00  0.00     0.292 C 
ATOM     20  O2  <0> d           1.129   0.051   1.913  0.00  0.00    -0.259 OA
BRANCH  19  21
ATOM     21  O1  <0> d           0.002  -0.004   0.002  0.00  0.00    -0.323 OA
ATOM     22  C1  <0> d          -0.017   1.425   0.010  0.00  0.00     0.213 C 
ENDBRANCH  19  21
ENDBRANCH  16  19
ENDBRANCH   1  13
BRANCH   9  23
ATOM     23  C15 <0> d           0.808  -9.220   3.317  0.00  0.00    -0.008 A 
ATOM     24  C20 <0> d          -0.224  -9.019   4.214  0.00  0.00     0.010 A 
ATOM     25  C19 <0> d          -0.969 -10.094   4.662  0.00  0.00     0.001 A 
ATOM     26  C18 <0> d          -0.677 -11.370   4.220  0.00  0.00     0.000 A 
ATOM     27  C17 <0> d           0.358 -11.572   3.326  0.00  0.00     0.001 A 
ATOM     28  C16 <0> d           1.101 -10.497   2.875  0.00  0.00     0.010 A 
ENDBRANCH   9  23
BRANCH   9  29
ATOM     29  C21 <0> d           2.767  -7.773   3.759  0.00  0.00     0.219 C 
ATOM     30  O5  <0> d           2.833  -6.707   4.348  0.00  0.00    -0.646 OA
ATOM     31  O6  <0> d           3.632  -8.616   3.925  0.00  0.00    -0.646 OA
ENDBRANCH   9  29
TORSDOF 5
