REMARK  9 active torsions:
REMARK  status: ('A' for Active; 'I' for Inactive)
REMARK    1  A    between atoms: O1_2  and  C2_3 
REMARK    2  A    between atoms: C5_6  and  C9_11 
REMARK    3  A    between atoms: C7_8  and  O2_9 
REMARK    4  A    between atoms: C13_15  and  O4_34 
REMARK    5  A    between atoms: C18_21  and  N1_22 
REMARK    6  A    between atoms: N2_23  and  C20_26 
REMARK    7  A    between atoms: C20_26  and  C21_27 
REMARK    8  A    between atoms: C21_27  and  C22_28 
REMARK    9  A    between atoms: C22_28  and  N4_29 
ROOT
ATOM      1  C9  <0> d          -4.987  -2.627   0.035  0.00  0.00     0.095 C 
ATOM      2  C10 <0> d          -5.763  -2.234  -1.194  0.00  0.00    -0.011 A 
ATOM      3  C11 <0> d          -5.432  -2.803  -2.413  0.00  0.00     0.014 A 
ATOM      4  C12 <0> d          -6.129  -2.458  -3.554  0.00  0.00     0.037 A 
ATOM      5  C13 <0> d          -7.166  -1.539  -3.482  0.00  0.00     0.068 A 
ATOM      6  C14 <0> d          -7.499  -0.968  -2.264  0.00  0.00     0.074 A 
ATOM      7  C15 <0> d          -6.797  -1.315  -1.117  0.00  0.00     0.087 A 
ATOM      8  O3  <0> d          -7.140  -0.744   0.064  0.00  0.00    -0.291 OA
ATOM      9  C16 <0> d          -6.776  -1.323   1.227  0.00  0.00     0.182 A 
ATOM     10  C17 <0> d          -5.742  -2.238   1.273  0.00  0.00     0.052 A 
ATOM     11  C18 <0> d          -5.411  -2.800   2.503  0.00  0.00     0.113 A 
ATOM     12  N2  <0> d          -6.099  -2.435   3.583  0.00  0.00    -0.327 N 
ATOM     13  C19 <0> d          -7.077  -1.557   3.493  0.00  0.00     0.214 A 
ATOM     14  N3  <0> d          -7.415  -1.012   2.354  0.00  0.00    -0.219 NA
ENDROOT
BRANCH   1  15
ATOM     15  C5  <0> d          -3.652  -1.928   0.026  0.00  0.00    -0.042 A 
ATOM     16  C4  <0> d          -3.596  -0.546   0.027  0.00  0.00     0.011 A 
ATOM     17  C3  <0> d          -2.374   0.099   0.019  0.00  0.00     0.040 A 
ATOM     18  C2  <0> d          -1.201  -0.638   0.010  0.00  0.00     0.101 A 
ATOM     19  C7  <0> d          -1.257  -2.028   0.003  0.00  0.00     0.102 A 
ATOM     20  C6  <0> d          -2.485  -2.669   0.017  0.00  0.00     0.047 A 
BRANCH  18  21
ATOM     21  O1  <0> d           0.002  -0.004   0.002  0.00  0.00    -0.353 OA
ATOM     22  C1  <0> d          -0.017   1.425   0.010  0.00  0.00     0.210 C 
ENDBRANCH  18  21
BRANCH  19  23
ATOM     23  O2  <0> d          -0.108  -2.756  -0.012  0.00  0.00    -0.353 OA
ATOM     24  C8  <0> d          -0.242  -4.179  -0.018  0.00  0.00     0.210 C 
ENDBRANCH  19  23
ENDBRANCH   1  15
BRANCH  11  25
ATOM     25  N1  <0> d          -4.382  -3.724   2.601  0.00  0.00    -0.385 N 
ATOM     26  H14 <0> d          -3.886  -3.984   1.809  0.00  0.00     0.157 HD
ATOM     27  H26 <0> d          -4.158  -4.110   3.462  0.00  0.00     0.157 HD
ENDBRANCH  11  25
BRANCH  12  28
ATOM     28  C20 <0> d          -5.765  -3.016   4.885  0.00  0.00     0.133 C 
BRANCH  28  29
ATOM     29  C21 <0> d          -4.622  -2.220   5.520  0.00  0.00     0.040 C 
BRANCH  29  30
ATOM     30  C22 <0> d          -4.273  -2.827   6.881  0.00  0.00     0.131 C 
BRANCH  30  31
ATOM     31  N4  <0> d          -3.179  -2.066   7.489  0.00  0.00    -0.352 N 
ATOM     32  C25 <0> d          -3.303  -0.993   8.300  0.00  0.00     0.182 A 
ATOM     33  N5  <0> d          -2.111  -0.588   8.643  0.00  0.00    -0.361 N 
ATOM     34  C24 <0> d          -1.193  -1.374   8.063  0.00  0.00     0.106 A 
ATOM     35  H27 <0> d          -1.920   0.166   9.223  0.00  0.00     0.166 HD
ATOM     36  C23 <0> d          -1.840  -2.305   7.336  0.00  0.00     0.108 A 
ENDBRANCH  30  31
ENDBRANCH  29  30
ENDBRANCH  28  29
ENDBRANCH  12  28
BRANCH   5  37
ATOM     37  O4  <0> d          -7.852  -1.198  -4.604  0.00  0.00    -0.361 OA
ATOM     38  H25 <0> d          -8.623  -1.755  -4.778  0.00  0.00     0.217 HD
ENDBRANCH   5  37
TORSDOF 9
