REMARK  3 active torsions:
REMARK  status: ('A' for Active; 'I' for Inactive)
REMARK    1  A    between atoms: C3_3  and  N1_9 
REMARK       I    between atoms: N1_9  and  C8_10 
REMARK    2  A    between atoms: C8_10  and  C9_12 
REMARK    3  A    between atoms: C9_12  and  C10_14 
ROOT
ATOM      1  C9  <0> d          -0.019   1.503   0.025  0.00  0.00     0.238 C 
ATOM      2  O2  <0> d          -1.073   2.093   0.040  0.00  0.00    -0.286 OA
ENDROOT
BRANCH   1   3
ATOM      3  C8  <0> d           1.261   2.265   0.005  0.00  0.00     0.293 C 
ATOM      4  N1  <0> d           1.243   3.613   0.010  0.00  0.00    -0.320 N 
ATOM      5  H7  <0> d           0.399   4.087  -0.055  0.00  0.00     0.169 HD
ATOM      6  O1  <0> d           2.321   1.672  -0.015  0.00  0.00    -0.264 OA
BRANCH   4   7
ATOM      7  C3  <0> d           2.440   4.327   0.107  0.00  0.00     0.042 A 
ATOM      8  C2  <0> d           2.521   5.621  -0.393  0.00  0.00    -0.013 A 
ATOM      9  C1  <0> d           1.318   6.256  -1.042  0.00  0.00     0.052 C 
ATOM     10  C7  <0> d           3.704   6.327  -0.288  0.00  0.00     0.042 A 
ATOM     11  C6  <0> d           4.811   5.741   0.303  0.00  0.00     0.024 A 
ATOM     12 Cl1  <0> d           3.806   7.946  -0.905  0.00  0.00    -0.084 Cl
ATOM     13  C5  <0> d           4.734   4.452   0.795  0.00  0.00     0.004 A 
ATOM     14  C4  <0> d           3.552   3.743   0.700  0.00  0.00     0.030 A 
ENDBRANCH   4   7
ENDBRANCH   1   3
BRANCH   1  15
ATOM     15  C10 <0> d           0.002  -0.004   0.020  0.00  0.00     0.250 A 
ATOM     16  C13 <0> d          -1.288  -0.495   0.650  0.00  0.00     0.246 A 
ATOM     17  N3  <0> d          -2.080  -1.296  -0.093  0.00  0.00    -0.278 N 
ATOM     18  O5  <0> d          -1.596  -0.180   1.780  0.00  0.00    -0.272 OA
ATOM     19  C12 <0> d          -1.755  -1.653  -1.341  0.00  0.00     0.329 A 
ATOM     20  H10 <0> d          -2.910  -1.623   0.288  0.00  0.00     0.173 HD
ATOM     21  N2  <0> d          -0.643  -1.271  -1.979  0.00  0.00    -0.278 N 
ATOM     22  O4  <0> d          -2.526  -2.377  -1.939  0.00  0.00    -0.247 OA
ATOM     23  C11 <0> d           0.274  -0.468  -1.399  0.00  0.00     0.246 A 
ATOM     24  H9  <0> d          -0.491  -1.580  -2.886  0.00  0.00     0.173 HD
ATOM     25  O3  <0> d           1.277  -0.129  -1.989  0.00  0.00    -0.272 OA
ENDBRANCH   1  15
TORSDOF 3
