REMARK  6 active torsions:
REMARK  status: ('A' for Active; 'I' for Inactive)
REMARK    1  A    between atoms: C4_4  and  C7_7 
REMARK    2  A    between atoms: C7_7  and  C8_9 
REMARK    3  A    between atoms: C9_10  and  C13_21 
REMARK    4  A    between atoms: C11_15  and  C12_16 
REMARK    5  A    between atoms: C11_15  and  O3_20 
REMARK    6  A    between atoms: C18_26  and  C19_27 
ROOT
ATOM      1  C8  <0> d           2.710   4.335   1.651  0.00  0.00     0.153 C 
ATOM      2  C9  <0> d           2.446   3.709   0.277  0.00  0.00     0.137 C 
ATOM      3  N1  <0> d           3.588   2.874  -0.097  0.00  0.00    -0.333 N 
ATOM      4  C10 <0> d           4.347   2.272   0.831  0.00  0.00     0.319 C 
ATOM      5  O2  <0> d           5.277   1.580   0.466  0.00  0.00    -0.247 OA
ATOM      6  N2  <0> d           4.119   2.403   2.147  0.00  0.00    -0.303 N 
ATOM      7  C11 <0> d           3.007   3.211   2.650  0.00  0.00     0.248 C 
ATOM      8  H8  <0> d           3.801   2.753  -1.036  0.00  0.00     0.165 HD
ATOM      9  H9  <0> d           4.703   1.953   2.777  0.00  0.00     0.167 HD
ENDROOT
BRANCH   2  10
ATOM     10  C13 <0> d           1.202   2.862   0.341  0.00  0.00    -0.019 A 
ATOM     11  C18 <0> d          -0.040   3.444   0.166  0.00  0.00     0.056 A 
ATOM     12  C17 <0> d          -1.182   2.666   0.223  0.00  0.00     0.017 A 
ATOM     13  C16 <0> d          -1.081   1.307   0.450  0.00  0.00     0.001 A 
ATOM     14  C15 <0> d           0.160   0.726   0.630  0.00  0.00     0.001 A 
ATOM     15  C14 <0> d           1.302   1.503   0.573  0.00  0.00     0.010 A 
BRANCH  11  16
ATOM     16  C19 <0> d          -0.149   4.925  -0.088  0.00  0.00     0.418 C 
ATOM     17  F4  <0> d          -1.495   5.276  -0.231  0.00  0.00    -0.166 F 
ATOM     18  F5  <0> d           0.404   5.625   0.990  0.00  0.00    -0.166 F 
ATOM     19  F6  <0> d           0.545   5.250  -1.259  0.00  0.00    -0.166 F 
ENDBRANCH  11  16
ENDBRANCH   2  10
BRANCH   1  20
ATOM     20  C7  <0> d           3.895   5.262   1.566  0.00  0.00     0.171 C 
ATOM     21  O1  <0> d           4.907   4.902   1.004  0.00  0.00    -0.292 OA
BRANCH  20  22
ATOM     22  C4  <0> d           3.823   6.605   2.164  0.00  0.00     0.010 A 
ATOM     23  C3  <0> d           4.887   7.500   2.013  0.00  0.00     0.015 A 
ATOM     24  C2  <0> d           4.812   8.756   2.577  0.00  0.00     0.001 A 
ATOM     25  C1  <0> d           3.687   9.133   3.290  0.00  0.00     0.000 A 
ATOM     26  C6  <0> d           2.630   8.253   3.443  0.00  0.00     0.001 A 
ATOM     27  C5  <0> d           2.687   6.995   2.881  0.00  0.00     0.015 A 
ENDBRANCH  20  22
ENDBRANCH   1  20
BRANCH   7  28
ATOM     28  C12 <0> d           3.387   3.817   4.003  0.00  0.00     0.438 C 
ATOM     29  F1  <0> d           2.324   4.590   4.482  0.00  0.00    -0.166 F 
ATOM     30  F2  <0> d           3.665   2.790   4.912  0.00  0.00    -0.166 F 
ATOM     31  F3  <0> d           4.520   4.624   3.851  0.00  0.00    -0.166 F 
ENDBRANCH   7  28
BRANCH   7  32
ATOM     32  O3  <0> d           1.849   2.389   2.802  0.00  0.00    -0.363 OA
ATOM     33  H10 <0> d           1.966   1.655   3.421  0.00  0.00     0.213 HD
ENDBRANCH   7  32
TORSDOF 6
