REMARK  1 active torsions:
REMARK  status: ('A' for Active; 'I' for Inactive)
REMARK    1  A    between atoms: C12_14  and  O2_15 
ROOT
ATOM      1  C1  <0> d          -0.017   1.385   0.010  0.00  0.00     0.008 A 
ATOM      2  C2  <0> d           1.165   2.101   0.002  0.00  0.00     0.013 A 
ATOM      3  C3  <0> d           2.367   1.432  -0.013  0.00  0.00     0.007 A 
ATOM      4  C4  <0> d           2.403   0.045  -0.025  0.00  0.00     0.051 A 
ATOM      5  C5  <0> d           1.202  -0.674  -0.019  0.00  0.00    -0.024 A 
ATOM      6  C6  <0> d           0.002  -0.004   0.002  0.00  0.00    -0.050 A 
ATOM      7  C7  <0> d          -1.324  -0.719   0.025  0.00  0.00     0.039 C 
ATOM      8  C8  <0> d          -1.159  -2.171  -0.419  0.00  0.00     0.005 C 
ATOM      9  C9  <0> d          -0.029  -2.802   0.402  0.00  0.00     0.005 C 
ATOM     10  C10 <0> d           1.293  -2.178  -0.040  0.00  0.00     0.041 C 
ATOM     11  N1  <0> d           3.724  -0.404  -0.041  0.00  0.00    -0.324 N 
ATOM     12  C11 <0> d           4.605   0.611  -0.041  0.00  0.00     0.255 A 
ATOM     13  O1  <0> d           5.814   0.515  -0.053  0.00  0.00    -0.270 OA
ATOM     14  C12 <0> d           3.805   1.896  -0.022  0.00  0.00     0.245 A 
ATOM     15  H12 <0> d           3.977  -1.340  -0.052  0.00  0.00     0.169 HD
ENDROOT
BRANCH  14  16
ATOM     16  O2  <0> d           4.096   2.650   1.156  0.00  0.00    -0.381 OA
ATOM     17  H13 <0> d           5.006   2.973   1.202  0.00  0.00     0.211 HD
ENDBRANCH  14  16
TORSDOF 1
