REMARK  4 active torsions:
REMARK  status: ('A' for Active; 'I' for Inactive)
REMARK    1  A    between atoms: C4_4  and  N3_16 
REMARK    2  A    between atoms: C5_5  and  C7_7 
REMARK       I    between atoms: C7_7  and  N1_9 
REMARK    3  A    between atoms: N1_9  and  C8_10 
REMARK       I    between atoms: N3_16  and  C13_17 
REMARK    4  A    between atoms: C13_17  and  C14_19 
ROOT
ATOM      1  C1  <0> d           1.315  -6.318   0.403  0.00  0.00     0.001 A 
ATOM      2  C2  <0> d           0.124  -7.027   0.418  0.00  0.00     0.002 A 
ATOM      3  C3  <0> d          -1.084  -6.367   0.322  0.00  0.00     0.030 A 
ATOM      4  C4  <0> d          -1.113  -4.983   0.209  0.00  0.00     0.050 A 
ATOM      5  C5  <0> d           0.090  -4.262   0.194  0.00  0.00     0.059 A 
ATOM      6  C6  <0> d           1.305  -4.945   0.286  0.00  0.00     0.019 A 
ENDROOT
BRANCH   4   7
ATOM      7  N3  <0> d          -2.330  -4.315   0.112  0.00  0.00    -0.322 N 
ATOM      8  C13 <0> d          -3.356  -4.878  -0.556  0.00  0.00     0.257 C 
ATOM      9  O2  <0> d          -3.246  -6.003  -1.004  0.00  0.00    -0.267 OA
ATOM     10  H10 <0> d          -2.455  -3.328   0.581  0.00  0.00     0.169 HD
BRANCH   8  11
ATOM     11  C14 <0> d          -4.615  -4.127  -0.746  0.00  0.00     0.049 A 
ATOM     12  C19 <0> d          -5.680  -4.707  -1.438  0.00  0.00     0.026 A 
ATOM     13  C18 <0> d          -6.854  -3.999  -1.611  0.00  0.00     0.020 A 
ATOM     14 Br1  <0> d          -5.517  -6.457  -2.137  0.00  0.00    -0.050 Br
ATOM     15  C17 <0> d          -6.974  -2.720  -1.100  0.00  0.00     0.001 A 
ATOM     16  C16 <0> d          -5.922  -2.140  -0.413  0.00  0.00     0.001 A 
ATOM     17  C15 <0> d          -4.747  -2.837  -0.229  0.00  0.00     0.018 A 
ENDBRANCH   8  11
ENDBRANCH   4   7
BRANCH   5  18
ATOM     18  C7  <0> d           0.073  -2.792   0.074  0.00  0.00     0.258 C 
ATOM     19  O1  <0> d          -0.986  -2.194   0.080  0.00  0.00    -0.267 OA
ATOM     20  N1  <0> d           1.231  -2.112  -0.042  0.00  0.00    -0.322 N 
ATOM     21  H5  <0> d           2.183  -2.656  -0.124  0.00  0.00     0.169 HD
BRANCH  20  22
ATOM     22  C8  <0> d           1.221  -0.713  -0.059  0.00  0.00     0.052 A 
ATOM     23  C12 <0> d           2.257   0.005   0.525  0.00  0.00     0.145 A 
ATOM     24  N2  <0> d           2.251   1.323   0.511  0.00  0.00    -0.271 NA
ATOM     25  C11 <0> d           1.275   2.008  -0.050  0.00  0.00     0.116 A 
ATOM     26  C10 <0> d           0.209   1.364  -0.652  0.00  0.00     0.021 A 
ATOM     27  C9  <0> d           0.173  -0.020  -0.661  0.00  0.00     0.032 A 
ENDBRANCH  20  22
ENDBRANCH   5  18
TORSDOF 4
