REMARK  3 active torsions:
REMARK  status: ('A' for Active; 'I' for Inactive)
REMARK    1  A    between atoms: C3_3  and  C9_13 
REMARK    2  A    between atoms: N1_4  and  C5_6 
REMARK    3  A    between atoms: C9_13  and  O3_14 
ROOT
ATOM      1  C1  <0> d          -0.122   1.391  -0.027  0.00  0.00     0.030 C 
ATOM      2  C2  <0> d           1.329   1.924  -0.013  0.00  0.00     0.037 C 
ATOM      3  C3  <0> d           2.128   0.737   0.581  0.00  0.00     0.212 C 
ATOM      4  N1  <0> d           1.458  -0.452  -0.007  0.00  0.00    -0.060 N 
ATOM      5  C4  <0> d           0.012  -0.143  -0.003  0.00  0.00     0.236 C 
ATOM      6  H18 <0> d           1.780  -0.600  -0.952  0.00  0.00     0.281 HD
ENDROOT
BRANCH   4   7
ATOM      7  C5  <0> d           1.725  -1.641   0.813  0.00  0.00     0.203 C 
ATOM      8  C8  <0> d           1.061  -2.888   0.162  0.00  0.00     0.173 C 
ATOM      9  S1  <0> d           2.014  -4.239   0.973  0.00  0.00     0.146 S 
ATOM     10  C7  <0> d           3.514  -3.299   1.470  0.00  0.00     0.142 C 
ATOM     11  O1  <0> d           2.376  -5.202  -0.007  0.00  0.00    -0.228 OA
ATOM     12  O2  <0> d           1.322  -4.657   2.142  0.00  0.00    -0.228 OA
ATOM     13  C6  <0> d           3.240  -1.891   0.889  0.00  0.00     0.049 C 
ENDBRANCH   4   7
BRANCH   3  14
ATOM     14  C9  <0> d           3.594   0.803   0.150  0.00  0.00     0.197 C 
BRANCH  14  15
ATOM     15  O3  <0> d           3.670   0.837  -1.277  0.00  0.00    -0.399 OA
ATOM     16  H17 <0> d           4.572   0.880  -1.622  0.00  0.00     0.209 HD
ENDBRANCH  14  15
ENDBRANCH   3  14
TORSDOF 3
