REMARK  7 active torsions:
REMARK  status: ('A' for Active; 'I' for Inactive)
REMARK    1  A    between atoms: N1_2  and  C3_4 
REMARK    2  A    between atoms: C3_4  and  C4_5 
REMARK    3  A    between atoms: C3_4  and  C15_21 
REMARK    4  A    between atoms: C4_5  and  N2_6 
REMARK       I    between atoms: N2_6  and  C5_7 
REMARK       I    between atoms: C5_7  and  N3_9 
REMARK    5  A    between atoms: N3_9  and  C6_10 
REMARK    6  A    between atoms: C10_14  and  N4_16 
REMARK    7  A    between atoms: C19_25  and  O2_27 
ROOT
ATOM      1  N2  <0> d          -1.779   1.535  -1.159  0.00  0.00    -0.341 N 
ATOM      2  C5  <0> d          -2.270   2.265  -2.180  0.00  0.00     0.320 C 
ATOM      3  O1  <0> d          -2.954   1.734  -3.034  0.00  0.00    -0.247 OA
ATOM      4  N3  <0> d          -2.004   3.585  -2.254  0.00  0.00    -0.309 N 
ATOM      5  H10 <0> d          -1.234   1.959  -0.478  0.00  0.00     0.164 HD
ATOM      6  H11 <0> d          -1.399   3.994  -1.616  0.00  0.00     0.170 HD
ENDROOT
BRANCH   1   7
ATOM      7  C4  <0> d          -2.068   0.101  -1.079  0.00  0.00     0.162 C 
BRANCH   7   8
ATOM      8  C3  <0> d          -1.298  -0.509   0.094  0.00  0.00     0.238 C 
BRANCH   8   9
ATOM      9  N1  <0> d          -1.486  -1.966   0.098  0.00  0.00    -0.069 N 
ATOM     10  C1  <0> d          -0.893  -2.540  -1.117  0.00  0.00     0.270 C 
ATOM     11  C2  <0> d          -0.831  -2.541   1.281  0.00  0.00     0.270 C 
ATOM     12  H26 <0> d          -2.472  -2.178   0.123  0.00  0.00     0.279 HD
ENDBRANCH   8   9
BRANCH   8  13
ATOM     13  C15 <0> d          -1.812   0.067   1.388  0.00  0.00    -0.023 A 
ATOM     14  C20 <0> d          -1.117   1.083   2.015  0.00  0.00     0.046 A 
ATOM     15  C19 <0> d          -1.595   1.617   3.203  0.00  0.00     0.068 A 
ATOM     16  C18 <0> d          -2.763   1.123   3.764  0.00  0.00     0.037 A 
ATOM     17  C17 <0> d          -3.452   0.103   3.135  0.00  0.00     0.003 A 
ATOM     18  C16 <0> d          -2.977  -0.424   1.948  0.00  0.00     0.009 A 
BRANCH  15  19
ATOM     19  O2  <0> d          -0.916   2.620   3.820  0.00  0.00    -0.356 OA
ATOM     20  C21 <0> d          -1.463   3.118   5.043  0.00  0.00     0.210 C 
ENDBRANCH  15  19
ENDBRANCH   8  13
ENDBRANCH   7   8
ENDBRANCH   1   7
BRANCH   4  21
ATOM     21  C6  <0> d          -2.602   4.364  -3.251  0.00  0.00     0.038 A 
ATOM     22  C11 <0> d          -3.890   4.077  -3.678  0.00  0.00     0.061 A 
ATOM     23  C10 <0> d          -4.481   4.855  -4.663  0.00  0.00     0.060 A 
ATOM     24  C9  <0> d          -3.778   5.912  -5.226  0.00  0.00     0.032 A 
ATOM     25  C8  <0> d          -2.492   6.192  -4.803  0.00  0.00     0.005 A 
ATOM     26  C7  <0> d          -1.903   5.422  -3.819  0.00  0.00     0.029 A 
BRANCH  23  27
ATOM     27  N4  <0> d          -5.785   4.573  -5.092  0.00  0.00    -0.245 N 
ATOM     28  N5  <0> d          -6.641   3.607  -4.547  0.00  0.00    -0.180 NA
ATOM     29  C14 <0> d          -7.770   3.641  -5.208  0.00  0.00     0.140 A 
ATOM     30  C13 <0> d          -7.667   4.622  -6.201  0.00  0.00     0.040 A 
ATOM     31  C12 <0> d          -6.438   5.180  -6.109  0.00  0.00     0.120 A 
ENDBRANCH  23  27
ENDBRANCH   4  21
TORSDOF 7
