REMARK  3 active torsions:
REMARK  status: ('A' for Active; 'I' for Inactive)
REMARK    1  A    between atoms: C3_5  and  N2_15 
REMARK    2  A    between atoms: C4_6  and  C6_8 
REMARK    3  A    between atoms: C4_6  and  O2_14 
ROOT
ATOM      1  C1  <0> d          -0.163   1.361   0.185  0.00  0.00     0.066 C 
ATOM      2  C2  <0> d          -0.046  -0.139   0.097  0.00  0.00     0.018 C 
ATOM      3  N1  <0> d           0.019  -0.792  -0.993  0.00  0.00    -0.198 N 
ATOM      4  O1  <0> d          -0.007  -0.188  -2.274  0.00  0.00    -0.084 OA
ATOM      5  C3  <0> d           0.126  -2.240  -0.777  0.00  0.00     0.356 C 
ATOM      6  C4  <0> d           0.535  -2.396   0.706  0.00  0.00     0.138 C 
ATOM      7  C5  <0> d           0.017  -1.062   1.294  0.00  0.00     0.101 C 
ENDROOT
BRANCH   6   8
ATOM      8  C6  <0> d          -0.154  -3.577   1.339  0.00  0.00    -0.020 A 
ATOM      9  C11 <0> d          -0.980  -3.392   2.432  0.00  0.00     0.010 A 
ATOM     10  C10 <0> d          -1.615  -4.476   3.009  0.00  0.00     0.001 A 
ATOM     11  C9  <0> d          -1.418  -5.745   2.499  0.00  0.00     0.000 A 
ATOM     12  C8  <0> d          -0.588  -5.931   1.409  0.00  0.00     0.001 A 
ATOM     13  C7  <0> d           0.044  -4.847   0.829  0.00  0.00     0.010 A 
ENDBRANCH   6   8
BRANCH   6  14
ATOM     14  O2  <0> d           1.954  -2.496   0.842  0.00  0.00    -0.381 OA
ATOM     15  H12 <0> d           2.255  -2.595   1.756  0.00  0.00     0.211 HD
ENDBRANCH   6  14
BRANCH   5  16
ATOM     16  N2  <0> d          -1.169  -2.889  -1.023  0.00  0.00    -0.045 N 
ATOM     17  C16 <0> d          -2.203  -2.236  -0.212  0.00  0.00     0.237 C 
ATOM     18  C15 <0> d          -3.538  -2.960  -0.402  0.00  0.00     0.028 C 
ATOM     19  C14 <0> d          -3.936  -2.905  -1.880  0.00  0.00     0.003 C 
ATOM     20  C13 <0> d          -2.816  -3.522  -2.723  0.00  0.00     0.028 C 
ATOM     21  C12 <0> d          -1.508  -2.777  -2.447  0.00  0.00     0.237 C 
ATOM     22  H23 <0> d          -1.109  -3.864  -0.769  0.00  0.00     0.282 HD
ENDBRANCH   5  16
TORSDOF 3
