REMARK  4 active torsions:
REMARK  status: ('A' for Active; 'I' for Inactive)
REMARK    1  A    between atoms: C3_3  and  C8_13 
REMARK       I    between atoms: C8_13  and  N3_15 
REMARK    2  A    between atoms: N3_15  and  C9_16 
REMARK    3  A    between atoms: C9_16  and  C10_17 
REMARK    4  A    between atoms: N6_21  and  C12_22 
ROOT
ATOM      1  C8  <0> d          -2.509  -0.379   0.012  0.00  0.00     0.255 C 
ATOM      2  O3  <0> d          -3.096  -0.197  -1.037  0.00  0.00    -0.268 OA
ATOM      3  N3  <0> d          -3.148  -0.190   1.184  0.00  0.00    -0.350 N 
ATOM      4  H6  <0> d          -2.680  -0.335   2.021  0.00  0.00     0.163 HD
ENDROOT
BRANCH   1   5
ATOM      5  C3  <0> d          -1.100  -0.804   0.003  0.00  0.00     0.081 A 
ATOM      6  C2  <0> d           0.002  -0.004   0.002  0.00  0.00     0.068 A 
ATOM      7  C1  <0> d          -0.018   1.503   0.010  0.00  0.00     0.078 C 
ATOM      8  O2  <0> d           1.107  -0.761  -0.013  0.00  0.00    -0.295 OA
ATOM      9  C7  <0> d           0.804  -2.070  -0.013  0.00  0.00     0.187 A 
ATOM     10  C4  <0> d          -0.586  -2.183  -0.007  0.00  0.00     0.103 A 
ATOM     11  N2  <0> d           1.546  -3.188  -0.022  0.00  0.00    -0.219 NA
ATOM     12  C5  <0> d          -1.173  -3.467  -0.011  0.00  0.00     0.262 A 
ATOM     13  O1  <0> d          -2.384  -3.603  -0.007  0.00  0.00    -0.267 OA
ATOM     14  N1  <0> d          -0.351  -4.542  -0.021  0.00  0.00    -0.317 N 
ATOM     15  H1  <0> d          -0.724  -5.437  -0.024  0.00  0.00     0.170 HD
ATOM     16  C6  <0> d           0.994  -4.369  -0.026  0.00  0.00     0.212 A 
ENDBRANCH   1   5
BRANCH   3  17
ATOM     17  C9  <0> d          -4.551   0.234   1.193  0.00  0.00     0.203 C 
BRANCH  17  18
ATOM     18  C10 <0> d          -5.024   0.371   2.617  0.00  0.00     0.147 A 
ATOM     19  N6  <0> d          -6.285   0.750   3.006  0.00  0.00    -0.304 N 
ATOM     20  C11 <0> d          -6.330   0.755   4.354  0.00  0.00     0.196 A 
ATOM     21  N5  <0> d          -5.109   0.392   4.799  0.00  0.00    -0.251 N 
ATOM     22  S1  <0> d          -7.684   1.154   5.322  0.00  0.00    -0.039 SA
ATOM     23  N4  <0> d          -4.308   0.157   3.673  0.00  0.00    -0.157 NA
ATOM     24  H16 <0> d          -4.836   0.309   5.726  0.00  0.00     0.191 HD
BRANCH  19  25
ATOM     25  C12 <0> d          -7.394   1.089   2.110  0.00  0.00     0.086 C 
ATOM     26  C13 <0> d          -8.564   0.136   2.364  0.00  0.00     0.032 C 
ATOM     27  C14 <0> d          -7.842   2.528   2.374  0.00  0.00     0.032 C 
ENDBRANCH  19  25
ENDBRANCH  17  18
ENDBRANCH   3  17
TORSDOF 4
