REMARK  5 active torsions:
REMARK  status: ('A' for Active; 'I' for Inactive)
REMARK    1  A    between atoms: O1_2  and  C2_3 
REMARK    2  A    between atoms: C6_8  and  S1_12 
REMARK    3  A    between atoms: S1_12  and  C9_13 
REMARK    4  A    between atoms: C9_13  and  C10_14 
REMARK    5  A    between atoms: C11_17  and  C12_19 
ROOT
ATOM      1  S1  <0> d          -4.855  -4.915   1.520  0.00  0.00    -0.115 SA
ENDROOT
BRANCH   1   2
ATOM      2  C6  <0> d          -4.295  -4.045   0.030  0.00  0.00     0.247 A 
ATOM      3  N1  <0> d          -4.795  -2.665   0.036  0.00  0.00    -0.359 N 
ATOM      4  C5  <0> d          -3.762  -1.873   0.028  0.00  0.00     0.057 A 
ATOM      5  H16 <0> d          -5.726  -2.393   0.044  0.00  0.00     0.162 HD
ATOM      6  C4  <0> d          -3.638  -0.408   0.029  0.00  0.00     0.034 A 
ATOM      7  C7  <0> d          -2.517  -2.688   0.017  0.00  0.00     0.059 A 
ATOM      8  C3  <0> d          -2.418   0.160   0.020  0.00  0.00     0.039 A 
ATOM      9  C2  <0> d          -1.198  -0.636   0.010  0.00  0.00     0.070 A 
ATOM     10  C8  <0> d          -1.229  -1.991   0.003  0.00  0.00     0.068 A 
ATOM     11  N2  <0> d          -2.830  -3.955   0.019  0.00  0.00    -0.358 N 
ATOM     12  H17 <0> d          -2.209  -4.700   0.013  0.00  0.00     0.162 HD
BRANCH   9  13
ATOM     13  O1  <0> d           0.002  -0.004   0.002  0.00  0.00    -0.356 OA
ATOM     14  C1  <0> d          -0.017   1.425   0.010  0.00  0.00     0.210 C 
ENDBRANCH   9  13
ENDBRANCH   1   2
BRANCH   1  15
ATOM     15  C9  <0> d          -4.190  -3.922   2.885  0.00  0.00     0.165 C 
BRANCH  15  16
ATOM     16  C10 <0> d          -4.587  -4.544   4.199  0.00  0.00     0.171 A 
ATOM     17  O2  <0> d          -4.243  -4.036   5.404  0.00  0.00    -0.304 OA
ATOM     18  C11 <0> d          -4.802  -4.891   6.412  0.00  0.00     0.281 A 
ATOM     19  N4  <0> d          -5.492  -5.944   5.645  0.00  0.00    -0.278 N 
ATOM     20  N3  <0> d          -5.285  -5.615   4.297  0.00  0.00    -0.155 NA
ATOM     21  H11 <0> d          -5.984  -6.702   5.997  0.00  0.00     0.185 HD
BRANCH  18  22
ATOM     22  C12 <0> d          -3.709  -5.487   7.261  0.00  0.00     0.009 A 
ATOM     23  C17 <0> d          -3.144  -4.745   8.283  0.00  0.00     0.021 A 
ATOM     24  C16 <0> d          -2.144  -5.295   9.065  0.00  0.00     0.020 A 
ATOM     25 Br1  <0> d          -3.744  -2.983   8.615  0.00  0.00    -0.050 Br
ATOM     26  C15 <0> d          -1.702  -6.581   8.819  0.00  0.00     0.001 A 
ATOM     27  C14 <0> d          -2.263  -7.320   7.794  0.00  0.00     0.001 A 
ATOM     28  C13 <0> d          -3.266  -6.774   7.016  0.00  0.00     0.013 A 
ENDBRANCH  18  22
ENDBRANCH  15  16
ENDBRANCH   1  15
TORSDOF 5
