REMARK  6 active torsions:
REMARK  status: ('A' for Active; 'I' for Inactive)
REMARK    1  A    between atoms: C6_6  and  N1_7 
REMARK    2  A    between atoms: C8_9  and  C11_13 
REMARK       I    between atoms: C11_13  and  N2_15 
REMARK    3  A    between atoms: N2_15  and  C12_16 
REMARK    4  A    between atoms: C12_16  and  C13_17 
REMARK    5  A    between atoms: C13_17  and  N3_18 
REMARK       I    between atoms: N3_18  and  C14_19 
REMARK    6  A    between atoms: C14_19  and  C15_21 
ROOT
ATOM      1  C11 <0> d          -2.719  -2.858   1.861  0.00  0.00     0.223 C 
ATOM      2  O2  <0> d          -1.686  -2.809   2.495  0.00  0.00    -0.273 OA
ATOM      3  N2  <0> d          -3.870  -3.196   2.475  0.00  0.00    -0.359 N 
ATOM      4  H11 <0> d          -4.697  -3.236   1.968  0.00  0.00     0.162 HD
ENDROOT
BRANCH   3   5
ATOM      5  C12 <0> d          -3.874  -3.505   3.907  0.00  0.00     0.142 C 
BRANCH   5   6
ATOM      6  C13 <0> d          -5.296  -3.854   4.350  0.00  0.00     0.142 C 
BRANCH   6   7
ATOM      7  N3  <0> d          -5.300  -4.163   5.782  0.00  0.00    -0.355 N 
ATOM      8  C14 <0> d          -6.451  -4.501   6.395  0.00  0.00     0.252 C 
ATOM      9  O3  <0> d          -7.487  -4.550   5.760  0.00  0.00    -0.268 OA
ATOM     10  H16 <0> d          -4.474  -4.123   6.288  0.00  0.00     0.162 HD
BRANCH   8  11
ATOM     11  C15 <0> d          -6.455  -4.811   7.835  0.00  0.00     0.040 C 
ATOM     12  C20 <0> d          -5.251  -4.774   8.669  0.00  0.00    -0.013 C 
ATOM     13  C19 <0> d          -5.346  -4.354  10.136  0.00  0.00     0.164 C 
ATOM     14  C21 <0> d          -3.969  -5.067   8.457  0.00  0.00     0.029 C 
ATOM     15  C18 <0> d          -6.507  -5.116  10.710  0.00  0.00     0.005 C 
ATOM     16  N4  <0> d          -4.051  -4.710  10.704  0.00  0.00    -0.288 NA
ATOM     17  C17 <0> d          -7.533  -5.453   9.919  0.00  0.00    -0.001 C 
ATOM     18  C16 <0> d          -7.608  -5.175   8.540  0.00  0.00     0.017 C 
ATOM     19  C22 <0> d          -3.285  -5.106   9.695  0.00  0.00     0.112 C 
ENDBRANCH   8  11
ENDBRANCH   6   7
ENDBRANCH   5   6
ENDBRANCH   3   5
BRANCH   1  20
ATOM     20  C8  <0> d          -2.715  -2.541   0.388  0.00  0.00     0.105 C 
ATOM     21  C7  <0> d          -1.293  -2.182  -0.097  0.00  0.00     0.146 C 
ATOM     22  N1  <0> d          -1.200  -0.722   0.010  0.00  0.00    -0.317 N 
ATOM     23  C10 <0> d          -2.417  -0.162   0.122  0.00  0.00     0.225 C 
ATOM     24  C9  <0> d          -3.486  -1.232   0.101  0.00  0.00     0.119 C 
ATOM     25  O1  <0> d          -2.627   1.029   0.224  0.00  0.00    -0.273 OA
BRANCH  22  26
ATOM     26  C6  <0> d           0.002  -0.004   0.002  0.00  0.00     0.037 A 
ATOM     27  C1  <0> d          -0.017   1.384  -0.005  0.00  0.00     0.031 A 
ATOM     28  C2  <0> d           1.170   2.090  -0.012  0.00  0.00     0.026 A 
ATOM     29  C3  <0> d           2.378   1.414  -0.013  0.00  0.00     0.034 A 
ATOM     30  C4  <0> d           2.400   0.031  -0.007  0.00  0.00     0.026 A 
ATOM     31 Cl1  <0> d           3.869   2.304  -0.024  0.00  0.00    -0.084 Cl
ATOM     32  C5  <0> d           1.215  -0.679   0.001  0.00  0.00     0.031 A 
ENDBRANCH  22  26
ENDBRANCH   1  20
TORSDOF 6
