REMARK  5 active torsions:
REMARK  status: ('A' for Active; 'I' for Inactive)
REMARK    1  A    between atoms: C5_5  and  O1_8 
REMARK    2  A    between atoms: O1_8  and  C8_9 
REMARK    3  A    between atoms: C9_10  and  C13_15 
REMARK       I    between atoms: C13_15  and  N2_17 
REMARK    4  A    between atoms: C15_19  and  C22_27 
REMARK       I    between atoms: C22_27  and  N4_29 
REMARK    5  A    between atoms: N4_29  and  C23_30 
ROOT
ATOM      1  C13 <0> d           0.278  -6.858  -0.128  0.00  0.00     0.258 C 
ATOM      2  O2  <0> d           0.238  -6.289  -1.202  0.00  0.00    -0.267 OA
ATOM      3  N2  <0> d           0.307  -8.205  -0.080  0.00  0.00    -0.346 N 
ATOM      4  C14 <0> d           0.427  -9.068   1.118  0.00  0.00     0.141 C 
ATOM      5  C15 <0> d          -0.526 -10.252   0.844  0.00  0.00     0.106 C 
ATOM      6  C16 <0> d          -0.653 -10.307  -0.688  0.00  0.00    -0.007 C 
ATOM      7  C17 <0> d           0.219  -9.157  -1.213  0.00  0.00     0.136 C 
ATOM      8  C18 <0> d          -0.140 -11.643  -1.214  0.00  0.00     0.039 C 
ATOM      9  C19 <0> d          -0.330 -11.696  -2.732  0.00  0.00     0.233 C 
ATOM     10  N3  <0> d          -1.752 -11.535  -3.055  0.00  0.00    -0.075 N 
ATOM     11  C20 <0> d          -2.216 -10.209  -2.629  0.00  0.00     0.233 C 
ATOM     12  C21 <0> d          -2.105 -10.093  -1.106  0.00  0.00     0.039 C 
ATOM     13  H20 <0> d          -1.883 -11.631  -4.051  0.00  0.00     0.277 HD
ATOM     14  H39 <0> d          -2.287 -12.246  -2.579  0.00  0.00     0.277 HD
ENDROOT
BRANCH   1  15
ATOM     15  C9  <0> d           0.294  -6.074   1.121  0.00  0.00     0.085 A 
ATOM     16  C8  <0> d          -0.436  -4.881   1.226  0.00  0.00     0.185 A 
ATOM     17  N1  <0> d          -0.414  -4.179   2.346  0.00  0.00    -0.236 NA
ATOM     18  C12 <0> d           0.276  -4.572   3.400  0.00  0.00     0.119 A 
ATOM     19  C11 <0> d           1.021  -5.737   3.373  0.00  0.00     0.020 A 
ATOM     20  C10 <0> d           1.039  -6.508   2.224  0.00  0.00     0.023 A 
BRANCH  16  21
ATOM     21  O1  <0> d          -1.163  -4.442   0.171  0.00  0.00    -0.291 OA
BRANCH  21  22
ATOM     22  C5  <0> d          -1.768  -3.229   0.273  0.00  0.00     0.077 A 
ATOM     23  C4  <0> d          -1.002  -2.076   0.368  0.00  0.00     0.038 A 
ATOM     24  C3  <0> d          -1.619  -0.845   0.472  0.00  0.00     0.009 A 
ATOM     25  C2  <0> d          -2.999  -0.761   0.481  0.00  0.00    -0.062 A 
ATOM     26  C1  <0> d          -3.670   0.584   0.593  0.00  0.00     0.048 C 
ATOM     27  C7  <0> d          -3.765  -1.909   0.392  0.00  0.00     0.009 A 
ATOM     28  C6  <0> d          -3.153  -3.142   0.283  0.00  0.00     0.038 A 
ENDBRANCH  21  22
ENDBRANCH  16  21
ENDBRANCH   1  15
BRANCH   5  29
ATOM     29  C22 <0> d          -1.871 -10.001   1.475  0.00  0.00     0.224 C 
ATOM     30  O3  <0> d          -2.317  -8.874   1.525  0.00  0.00    -0.273 OA
ATOM     31  N4  <0> d          -2.579 -11.028   1.985  0.00  0.00    -0.356 N 
ATOM     32  H25 <0> d          -2.223 -11.930   1.945  0.00  0.00     0.162 HD
BRANCH  31  33
ATOM     33  C23 <0> d          -3.887 -10.784   2.599  0.00  0.00     0.084 C 
ATOM     34  C29 <0> d          -4.678 -12.003   2.523  0.00  0.00     0.025 C 
ATOM     35  C28 <0> d          -6.101 -11.816   3.090  0.00  0.00     0.002 C 
ATOM     36  C27 <0> d          -6.032 -11.897   4.591  0.00  0.00     0.000 C 
ATOM     37  C26 <0> d          -5.896 -10.511   5.251  0.00  0.00     0.000 C 
ATOM     38  C25 <0> d          -4.916  -9.587   4.503  0.00  0.00     0.002 C 
ATOM     39  C24 <0> d          -3.676 -10.309   4.051  0.00  0.00     0.025 C 
ENDBRANCH  31  33
ENDBRANCH   5  29
TORSDOF 5
