REMARK  4 active torsions:
REMARK  status: ('A' for Active; 'I' for Inactive)
REMARK    1  A    between atoms: C5_5  and  N2_14 
REMARK    2  A    between atoms: C7_7  and  C8_8 
REMARK    3  A    between atoms: C8_8  and  C9_9 
REMARK    4  A    between atoms: C8_8  and  N1_13 
ROOT
ATOM      1  C1  <0> d          -0.415   6.060  -0.720  0.00  0.00     0.049 C 
ATOM      2  C2  <0> d          -0.119   4.617  -0.402  0.00  0.00    -0.053 A 
ATOM      3  C3  <0> d           1.178   4.144  -0.481  0.00  0.00     0.010 A 
ATOM      4  C4  <0> d           1.450   2.820  -0.189  0.00  0.00     0.036 A 
ATOM      5  C5  <0> d           0.425   1.970   0.181  0.00  0.00     0.103 A 
ATOM      6  C6  <0> d          -0.872   2.441   0.255  0.00  0.00     0.046 A 
ATOM      7  C7  <0> d          -1.143   3.766  -0.031  0.00  0.00    -0.008 A 
ENDROOT
BRANCH   7   8
ATOM      8  C8  <0> d          -2.557   4.282   0.056  0.00  0.00     0.358 C 
BRANCH   8   9
ATOM      9  C9  <0> d          -2.809   4.846   1.455  0.00  0.00     0.421 C 
ATOM     10  F1  <0> d          -1.838   5.809   1.752  0.00  0.00    -0.168 F 
ATOM     11  F2  <0> d          -4.077   5.435   1.499  0.00  0.00    -0.168 F 
ATOM     12  F3  <0> d          -2.742   3.812   2.394  0.00  0.00    -0.168 F 
ENDBRANCH   8   9
BRANCH   8  13
ATOM     13  N1  <0> d          -3.496   3.183  -0.205  0.00  0.00     0.096 N 
ATOM     14  H8  <0> d          -4.527   3.559  -0.142  0.00  0.00     0.314 HD
ATOM     15  H9  <0> d          -3.314   2.777  -1.211  0.00  0.00     0.314 HD
ENDBRANCH   8  13
ENDBRANCH   7   8
BRANCH   5  16
ATOM     16  N2  <0> d           0.716   0.552   0.493  0.00  0.00    -0.116 N 
ATOM     17  O1  <0> d           1.859   0.135   0.423  0.00  0.00    -0.532 OA
ATOM     18  O2  <0> d          -0.187  -0.198   0.820  0.00  0.00    -0.532 OA
ENDBRANCH   5  16
TORSDOF 4
