REMARK  7 active torsions:
REMARK  status: ('A' for Active; 'I' for Inactive)
REMARK    1  A    between atoms: C7_9  and  S2_14 
REMARK    2  A    between atoms: S2_14  and  C11_17 
REMARK    3  A    between atoms: C11_17  and  C12_18 
REMARK    4  A    between atoms: C12_18  and  C13_19 
REMARK       I    between atoms: C13_19  and  N2_21 
REMARK    5  A    between atoms: N2_21  and  C14_22 
REMARK    6  A    between atoms: C17_25  and  O6_30 
REMARK    7  A    between atoms: C19_27  and  O5_28 
ROOT
ATOM      1  S2  <0> d          -1.143  -6.568   1.945  0.00  0.00     0.176 S 
ATOM      2  O2  <0> d           0.026  -7.339   2.186  0.00  0.00    -0.223 OA
ATOM      3  O3  <0> d          -2.185  -6.512   2.910  0.00  0.00    -0.223 OA
ENDROOT
BRANCH   1   4
ATOM      4  C7  <0> d          -0.567  -4.908   1.808  0.00  0.00     0.061 A 
ATOM      5  C6  <0> d          -1.417  -3.858   2.106  0.00  0.00     0.054 A 
ATOM      6  C5  <0> d          -0.963  -2.554   1.998  0.00  0.00     0.053 A 
ATOM      7  N1  <0> d          -1.808  -1.474   2.293  0.00  0.00    -0.326 N 
ATOM      8  C10 <0> d           0.347  -2.307   1.593  0.00  0.00     0.027 A 
ATOM      9  C4  <0> d          -1.941  -0.464   1.425  0.00  0.00     0.223 C 
ATOM     10  H7  <0> d          -2.299  -1.460   3.130  0.00  0.00     0.169 HD
ATOM     11  C3  <0> d          -1.391  -0.556   0.033  0.00  0.00     0.118 C 
ATOM     12  O1  <0> d          -2.517   0.546   1.771  0.00  0.00    -0.273 OA
ATOM     13  C2  <0> d           0.050  -0.019  -0.014  0.00  0.00     0.057 C 
ATOM     14  C1  <0> d           0.035   1.511  -0.004  0.00  0.00     0.022 C 
ATOM     15  S1  <0> d           0.912  -0.640   1.468  0.00  0.00    -0.123 SA
ATOM     16  C9  <0> d           1.194  -3.363   1.294  0.00  0.00     0.022 A 
ATOM     17  C8  <0> d           0.732  -4.662   1.403  0.00  0.00     0.025 A 
ENDBRANCH   1   4
BRANCH   1  18
ATOM     18  C11 <0> d          -1.825  -6.961   0.311  0.00  0.00     0.155 C 
BRANCH  18  19
ATOM     19  C12 <0> d          -2.360  -8.395   0.313  0.00  0.00     0.118 C 
BRANCH  19  20
ATOM     20  C13 <0> d          -2.927  -8.721  -1.045  0.00  0.00     0.223 C 
ATOM     21  O4  <0> d          -2.905  -7.889  -1.927  0.00  0.00    -0.273 OA
ATOM     22  N2  <0> d          -3.458  -9.938  -1.278  0.00  0.00    -0.325 N 
ATOM     23  H15 <0> d          -3.418 -10.624  -0.594  0.00  0.00     0.169 HD
BRANCH  22  24
ATOM     24  C14 <0> d          -4.070 -10.211  -2.511  0.00  0.00     0.068 A 
ATOM     25  C19 <0> d          -5.173 -11.060  -2.569  0.00  0.00     0.097 A 
ATOM     26  C18 <0> d          -5.778 -11.323  -3.787  0.00  0.00     0.075 A 
ATOM     27  C17 <0> d          -5.277 -10.751  -4.947  0.00  0.00     0.070 A 
ATOM     28  C16 <0> d          -4.175  -9.911  -4.888  0.00  0.00     0.039 A 
ATOM     29  C15 <0> d          -3.573  -9.642  -3.674  0.00  0.00     0.035 A 
BRANCH  25  30
ATOM     30  O5  <0> d          -5.659 -11.624  -1.431  0.00  0.00    -0.354 OA
ATOM     31  C20 <0> d          -6.793 -12.483  -1.566  0.00  0.00     0.210 C 
ENDBRANCH  25  30
BRANCH  27  32
ATOM     32  O6  <0> d          -5.868 -11.014  -6.143  0.00  0.00    -0.356 OA
ATOM     33  C21 <0> d          -5.300 -10.392  -7.297  0.00  0.00     0.210 C 
ENDBRANCH  27  32
ENDBRANCH  22  24
ENDBRANCH  19  20
ENDBRANCH  18  19
ENDBRANCH   1  18
TORSDOF 7
