REMARK  7 active torsions:
REMARK  status: ('A' for Active; 'I' for Inactive)
REMARK    1  A    between atoms: C2_2  and  C3_3 
REMARK    2  A    between atoms: C3_3  and  N1_4 
REMARK       I    between atoms: N1_4  and  C4_5 
REMARK    3  A    between atoms: C4_5  and  C5_7 
REMARK    4  A    between atoms: C5_7  and  N5_28 
REMARK    5  A    between atoms: C7_9  and  C8_10 
REMARK    6  A    between atoms: C7_9  and  N5_28 
REMARK       I    between atoms: C8_10  and  N2_12 
REMARK    7  A    between atoms: N2_12  and  N3_13 
ROOT
ATOM      1  C8  <0> d          -0.014   1.209   0.009  0.00  0.00     0.262 C 
ATOM      2  O2  <0> d           0.002  -0.004   0.002  0.00  0.00    -0.270 OA
ATOM      3  N2  <0> d          -1.191   1.867   0.018  0.00  0.00    -0.255 N 
ATOM      4  H16 <0> d          -1.204   2.837   0.023  0.00  0.00     0.191 HD
ENDROOT
BRANCH   3   5
ATOM      5  N3  <0> d          -2.394   1.150   0.020  0.00  0.00    -0.167 N 
ATOM      6  C16 <0> d          -2.902   0.529  -1.052  0.00  0.00     0.345 A 
ATOM      7  N4  <0> d          -4.067  -0.091  -0.783  0.00  0.00    -0.323 N 
ATOM      8  O4  <0> d          -2.370   0.523  -2.145  0.00  0.00    -0.245 OA
ATOM      9  C10 <0> d          -4.356   0.166   0.633  0.00  0.00     0.117 A 
ATOM     10  H27 <0> d          -4.610  -0.602  -1.403  0.00  0.00     0.165 HD
ATOM     11  C9  <0> d          -3.188   1.004   1.101  0.00  0.00     0.275 A 
ATOM     12  C15 <0> d          -4.417  -1.143   1.413  0.00  0.00     0.041 C 
ATOM     13  C11 <0> d          -5.660   0.943   0.780  0.00  0.00     0.041 C 
ATOM     14  O3  <0> d          -3.004   1.451   2.212  0.00  0.00    -0.268 OA
ATOM     15  C14 <0> d          -5.588  -1.988   0.906  0.00  0.00     0.003 C 
ATOM     16  C13 <0> d          -6.893  -1.209   1.084  0.00  0.00     0.000 C 
ATOM     17  C12 <0> d          -6.826   0.089   0.276  0.00  0.00     0.003 C 
ENDBRANCH   3   5
BRANCH   1  18
ATOM     18  C7  <0> d           1.280   1.980   0.001  0.00  0.00     0.338 C 
BRANCH  18  19
ATOM     19  N5  <0> d           2.405   1.022  -0.037  0.00  0.00    -0.058 N 
ATOM     20  C6  <0> d           2.470   0.269   1.233  0.00  0.00     0.270 C 
ATOM     21  H28 <0> d           2.256   0.362  -0.809  0.00  0.00     0.280 HD
BRANCH  19  22
ATOM     22  C5  <0> d           3.676   1.744  -0.262  0.00  0.00     0.337 C 
BRANCH  22  23
ATOM     23  C4  <0> d           4.768   0.737  -0.515  0.00  0.00     0.243 C 
ATOM     24  N1  <0> d           6.025   1.155  -0.767  0.00  0.00    -0.360 N 
ATOM     25  H8  <0> d           6.226   2.104  -0.785  0.00  0.00     0.162 HD
ATOM     26  O1  <0> d           4.517  -0.449  -0.492  0.00  0.00    -0.272 OA
BRANCH  24  27
ATOM     27  C3  <0> d           7.087   0.176  -1.013  0.00  0.00     0.122 C 
BRANCH  27  28
ATOM     28  C2  <0> d           8.405   0.909  -1.270  0.00  0.00     0.015 C 
ATOM     29  C1  <0> d           9.515  -0.113  -1.526  0.00  0.00     0.006 C 
ENDBRANCH  27  28
ENDBRANCH  24  27
ENDBRANCH  22  23
ENDBRANCH  19  22
ENDBRANCH  18  19
ENDBRANCH   1  18
TORSDOF 7
