REMARK  5 active torsions:
REMARK  status: ('A' for Active; 'I' for Inactive)
REMARK    1  A    between atoms: N1_2  and  C2_3 
REMARK    2  A    between atoms: C5_6  and  S1_9 
REMARK    3  A    between atoms: S1_9  and  N3_12 
REMARK    4  A    between atoms: N3_12  and  C7_13 
REMARK    5  A    between atoms: C10_16  and  O3_20 
ROOT
ATOM      1  S1  <0> d          -4.259  -3.208  -0.426  0.00  0.00     0.264 S 
ATOM      2  O1  <0> d          -4.147  -4.520   0.109  0.00  0.00    -0.200 OA
ATOM      3  O2  <0> d          -4.495  -2.070   0.392  0.00  0.00    -0.200 OA
ENDROOT
BRANCH   1   4
ATOM      4  C5  <0> d          -2.766  -2.893  -1.307  0.00  0.00     0.095 A 
ATOM      5  C4  <0> d          -2.281  -1.598  -1.425  0.00  0.00     0.030 A 
ATOM      6  C3  <0> d          -1.105  -1.394  -2.125  0.00  0.00     0.050 A 
ATOM      7  C2  <0> d          -0.453  -2.488  -2.684  0.00  0.00     0.100 A 
ATOM      8  N2  <0> d          -0.951  -3.708  -2.555  0.00  0.00    -0.351 N 
ATOM      9  C6  <0> d          -2.067  -3.933  -1.888  0.00  0.00     0.115 A 
ATOM     10  H14 <0> d          -0.481  -4.456  -2.956  0.00  0.00     0.166 HD
BRANCH   7  11
ATOM     11  N1  <0> d           0.729  -2.298  -3.390  0.00  0.00    -0.381 N 
ATOM     12  C1  <0> d           1.286  -0.951  -3.538  0.00  0.00     0.147 C 
ATOM     13  H4  <0> d           1.185  -3.058  -3.785  0.00  0.00     0.160 HD
ENDBRANCH   7  11
ENDBRANCH   1   4
BRANCH   1  14
ATOM     14  N3  <0> d          -5.485  -3.253  -1.538  0.00  0.00    -0.280 N 
ATOM     15  H15 <0> d          -5.989  -4.071  -1.671  0.00  0.00     0.179 HD
BRANCH  14  16
ATOM     16  C7  <0> d          -5.792  -2.112  -2.287  0.00  0.00     0.045 A 
ATOM     17  C12 <0> d          -5.413  -2.034  -3.621  0.00  0.00     0.075 A 
ATOM     18  C11 <0> d          -5.723  -0.908  -4.362  0.00  0.00     0.151 A 
ATOM     19  C10 <0> d          -6.403   0.148  -3.768  0.00  0.00     0.106 A 
ATOM     20  F1  <0> d          -5.359  -0.833  -5.661  0.00  0.00    -0.203 F 
ATOM     21  C9  <0> d          -6.776   0.071  -2.436  0.00  0.00     0.042 A 
ATOM     22  C8  <0> d          -6.472  -1.056  -1.696  0.00  0.00     0.033 A 
BRANCH  19  23
ATOM     23  O3  <0> d          -6.704   1.258  -4.496  0.00  0.00    -0.353 OA
ATOM     24  C13 <0> d          -7.405   2.305  -3.822  0.00  0.00     0.210 C 
ENDBRANCH  19  23
ENDBRANCH  14  16
ENDBRANCH   1  14
TORSDOF 5
