REMARK  6 active torsions:
REMARK  status: ('A' for Active; 'I' for Inactive)
REMARK    1  A    between atoms: C2_2  and  C5_9 
REMARK    2  A    between atoms: C9_13  and  N3_15 
REMARK       I    between atoms: N3_15  and  C11_16 
REMARK    3  A    between atoms: C11_16  and  C12_18 
REMARK    4  A    between atoms: C12_18  and  S1_19 
REMARK    5  A    between atoms: S1_19  and  C13_20 
REMARK    6  A    between atoms: C16_23  and  C19_26 
ROOT
ATOM      1  C5  <0> d           0.416  -1.248  -1.347  0.00  0.00    -0.019 A 
ATOM      2  C6  <0> d           1.787  -1.307  -1.170  0.00  0.00     0.010 A 
ATOM      3  C7  <0> d           2.636  -1.040  -2.227  0.00  0.00     0.003 A 
ATOM      4  C8  <0> d           2.119  -0.712  -3.465  0.00  0.00     0.029 A 
ATOM      5  C9  <0> d           0.744  -0.651  -3.647  0.00  0.00     0.035 A 
ATOM      6  C10 <0> d          -0.107  -0.926  -2.584  0.00  0.00     0.039 A 
ENDROOT
BRANCH   5   7
ATOM      7  N3  <0> d           0.216  -0.319  -4.900  0.00  0.00    -0.327 N 
ATOM      8  C11 <0> d           0.860  -0.694  -6.023  0.00  0.00     0.231 C 
ATOM      9  O3  <0> d           1.843  -1.400  -5.951  0.00  0.00    -0.272 OA
ATOM     10  H10 <0> d          -0.613   0.181  -4.960  0.00  0.00     0.169 HD
BRANCH   8  11
ATOM     11  C12 <0> d           0.357  -0.236  -7.368  0.00  0.00     0.182 C 
BRANCH  11  12
ATOM     12  S1  <0> d           1.428  -0.902  -8.672  0.00  0.00    -0.121 SA
BRANCH  12  13
ATOM     13  C13 <0> d           0.718  -0.286 -10.162  0.00  0.00     0.001 A 
ATOM     14  C18 <0> d           1.290  -0.602 -11.389  0.00  0.00     0.019 A 
ATOM     15  C17 <0> d           0.728  -0.122 -12.555  0.00  0.00     0.009 A 
ATOM     16  C16 <0> d          -0.396   0.683 -12.503  0.00  0.00    -0.051 A 
ATOM     17  C15 <0> d          -0.965   1.004 -11.284  0.00  0.00     0.009 A 
ATOM     18  C14 <0> d          -0.411   0.523 -10.114  0.00  0.00     0.019 A 
BRANCH  16  19
ATOM     19  C19 <0> d          -1.003   1.210 -13.777  0.00  0.00    -0.024 C 
ATOM     20  C20 <0> d          -0.990   2.740 -13.754  0.00  0.00     0.019 C 
ATOM     21  C21 <0> d          -0.190   0.711 -14.974  0.00  0.00     0.019 C 
ATOM     22  C22 <0> d          -2.446   0.714 -13.899  0.00  0.00     0.019 C 
ENDBRANCH  16  19
ENDBRANCH  12  13
ENDBRANCH  11  12
ENDBRANCH   8  11
ENDBRANCH   5   7
BRANCH   1  23
ATOM     23  C2  <0> d          -0.506  -1.541  -0.192  0.00  0.00     0.139 A 
ATOM     24  C1  <0> d          -1.406  -0.337   0.094  0.00  0.00     0.054 C 
ATOM     25  N2  <0> d           0.266  -1.907   1.007  0.00  0.00    -0.321 N 
ATOM     26  C4  <0> d          -0.098  -3.161   1.331  0.00  0.00     0.324 A 
ATOM     27  H5  <0> d           0.911  -1.353   1.473  0.00  0.00     0.165 HD
ATOM     28  N1  <0> d          -1.012  -3.661   0.492  0.00  0.00    -0.277 N 
ATOM     29  O2  <0> d           0.354  -3.773   2.279  0.00  0.00    -0.247 OA
ATOM     30  C3  <0> d          -1.339  -2.776  -0.471  0.00  0.00     0.258 A 
ATOM     31  H4  <0> d          -1.393  -4.549   0.567  0.00  0.00     0.173 HD
ATOM     32  O1  <0> d          -2.134  -2.935  -1.373  0.00  0.00    -0.270 OA
ENDBRANCH   1  23
TORSDOF 6
