REMARK  4 active torsions:
REMARK  status: ('A' for Active; 'I' for Inactive)
REMARK    1  A    between atoms: C2_2  and  N1_5 
REMARK       I    between atoms: N1_5  and  C5_6 
REMARK       I    between atoms: C5_6  and  N2_8 
REMARK       I    between atoms: N2_8  and  C6_9 
REMARK    2  A    between atoms: C6_9  and  C7_11 
REMARK    3  A    between atoms: C7_11  and  N3_12 
REMARK    4  A    between atoms: C11_16  and  C12_17 
ROOT
ATOM      1  C7  <0> d           4.591  -0.709  -3.999  0.00  0.00     0.338 C 
ENDROOT
BRANCH   1   2
ATOM      2  C6  <0> d           3.886  -0.223  -2.760  0.00  0.00     0.251 C 
ATOM      3  N2  <0> d           2.602  -0.567  -2.536  0.00  0.00    -0.278 N 
ATOM      4  C5  <0> d           1.972  -0.132  -1.427  0.00  0.00     0.323 C 
ATOM      5  H13 <0> d           2.132  -1.127  -3.173  0.00  0.00     0.173 HD
ATOM      6  N1  <0> d           0.688  -0.476  -1.203  0.00  0.00    -0.335 N 
ATOM      7  O1  <0> d           2.560   0.570  -0.629  0.00  0.00    -0.247 OA
ATOM      8  H12 <0> d           0.218  -1.037  -1.840  0.00  0.00     0.165 HD
ATOM      9  O2  <0> d           4.473   0.478  -1.963  0.00  0.00    -0.271 OA
BRANCH   6  10
ATOM     10  C2  <0> d           0.002  -0.004   0.002  0.00  0.00     0.023 C 
ATOM     11  C1  <0> d          -0.019   1.526   0.010  0.00  0.00     0.037 C 
ATOM     12  C3  <0> d           0.742  -0.511   1.242  0.00  0.00     0.037 C 
ATOM     13  C4  <0> d          -1.433  -0.534   0.013  0.00  0.00     0.037 C 
ENDBRANCH   6  10
ENDBRANCH   1   2
BRANCH   1  14
ATOM     14  N3  <0> d           5.970  -0.200  -4.010  0.00  0.00    -0.056 N 
ATOM     15  C11 <0> d           6.626  -0.572  -5.277  0.00  0.00     0.221 C 
ATOM     16  C10 <0> d           7.835  -1.463  -4.921  0.00  0.00     0.037 C 
ATOM     17  C9  <0> d           7.463  -2.012  -3.518  0.00  0.00     0.030 C 
ATOM     18  C8  <0> d           6.729  -0.799  -2.892  0.00  0.00     0.236 C 
ATOM     19  H29 <0> d           5.963   0.804  -3.913  0.00  0.00     0.281 HD
BRANCH  15  20
ATOM     20  C12 <0> d           7.104   0.686  -6.004  0.00  0.00     0.251 C 
ATOM     21  N4  <0> d           7.723   0.317  -7.290  0.00  0.00     0.090 N 
ATOM     22  C15 <0> d           6.939   0.940  -8.383  0.00  0.00     0.270 C 
ATOM     23  H28 <0> d           8.689   0.608  -7.324  0.00  0.00     0.316 HD
ATOM     24  C14 <0> d           6.242   2.157  -7.725  0.00  0.00     0.032 C 
ATOM     25  C13 <0> d           5.900   1.600  -6.318  0.00  0.00     0.039 C 
ENDBRANCH  15  20
ENDBRANCH   1  14
TORSDOF 4
