REMARK  4 active torsions:
REMARK  status: ('A' for Active; 'I' for Inactive)
REMARK    1  A    between atoms: C2_2  and  C3_3 
REMARK    2  A    between atoms: N4_12  and  C8_13 
REMARK    3  A    between atoms: C11_16  and  N5_19 
REMARK       I    between atoms: N5_19  and  C14_20 
REMARK    4  A    between atoms: C14_20  and  C15_22 
ROOT
ATOM      1  C3  <0> d           1.398   0.112  -1.205  0.00  0.00     0.114 A 
ATOM      2  N1  <0> d           0.265   0.746  -1.131  0.00  0.00    -0.230 NA
ATOM      3  C4  <0> d          -0.122   1.357   0.017  0.00  0.00     0.118 A 
ATOM      4  C5  <0> d          -1.256   2.103   0.388  0.00  0.00     0.082 A 
ATOM      5  N2  <0> d          -1.127   2.468   1.635  0.00  0.00    -0.175 NA
ATOM      6  N3  <0> d           0.091   1.992   2.137  0.00  0.00    -0.266 N 
ATOM      7  C6  <0> d           0.717   1.303   1.137  0.00  0.00     0.151 A 
ATOM      8  C7  <0> d           1.944   0.609   1.031  0.00  0.00     0.284 A 
ATOM      9  O1  <0> d           2.704   0.536   1.981  0.00  0.00    -0.265 OA
ATOM     10  N4  <0> d           2.252   0.027  -0.149  0.00  0.00    -0.264 N 
ATOM     11  C19 <0> d           0.603   2.196   3.494  0.00  0.00     0.180 C 
ATOM     12  C20 <0> d          -2.426   2.424  -0.505  0.00  0.00     0.075 C 
ENDROOT
BRANCH  10  13
ATOM     13  C8  <0> d           3.461  -0.669  -0.287  0.00  0.00     0.044 A 
ATOM     14  C13 <0> d           4.664   0.025  -0.297  0.00  0.00     0.032 A 
ATOM     15  C12 <0> d           5.855  -0.660  -0.432  0.00  0.00     0.032 A 
ATOM     16  C11 <0> d           5.850  -2.043  -0.559  0.00  0.00     0.034 A 
ATOM     17  C10 <0> d           4.647  -2.737  -0.549  0.00  0.00     0.032 A 
ATOM     18  C9  <0> d           3.456  -2.052  -0.407  0.00  0.00     0.032 A 
BRANCH  16  19
ATOM     19  N5  <0> d           7.058  -2.738  -0.696  0.00  0.00    -0.327 N 
ATOM     20  C14 <0> d           7.118  -3.837  -1.474  0.00  0.00     0.226 C 
ATOM     21  O2  <0> d           6.109  -4.274  -1.985  0.00  0.00    -0.273 OA
ATOM     22  H10 <0> d           7.957  -2.386  -0.169  0.00  0.00     0.169 HD
BRANCH  20  23
ATOM     23  C15 <0> d           8.440  -4.522  -1.708  0.00  0.00     0.078 C 
ATOM     24  C18 <0> d           8.339  -5.759  -2.616  0.00  0.00     0.014 C 
ATOM     25  C17 <0> d           9.659  -5.298  -3.258  0.00  0.00     0.002 C 
ATOM     26  C16 <0> d           9.282  -3.873  -2.818  0.00  0.00     0.014 C 
ENDBRANCH  20  23
ENDBRANCH  16  19
ENDBRANCH  10  13
BRANCH   1  27
ATOM     27  C2  <0> d           1.778  -0.550  -2.504  0.00  0.00     0.075 C 
ATOM     28  C1  <0> d           0.670  -0.326  -3.534  0.00  0.00     0.013 C 
ENDBRANCH   1  27
TORSDOF 4
