REMARK  3 active torsions:
REMARK  status: ('A' for Active; 'I' for Inactive)
REMARK    1  A    between atoms: C3_3  and  C9_13 
REMARK       I    between atoms: C9_13  and  N3_15 
REMARK    2  A    between atoms: N3_15  and  C10_16 
REMARK    3  A    between atoms: C14_20  and  C16_22 
ROOT
ATOM      1  C9  <0> d          -2.570  -0.538   0.017  0.00  0.00     0.259 C 
ATOM      2  O3  <0> d          -3.215  -0.504  -1.014  0.00  0.00    -0.267 OA
ATOM      3  N3  <0> d          -3.148  -0.191   1.185  0.00  0.00    -0.323 N 
ATOM      4  H8  <0> d          -2.659  -0.291   2.016  0.00  0.00     0.169 HD
ENDROOT
BRANCH   1   5
ATOM      5  C3  <0> d          -1.160  -0.958  -0.010  0.00  0.00     0.081 A 
ATOM      6  C2  <0> d          -0.067  -0.164  -0.180  0.00  0.00     0.068 A 
ATOM      7  C1  <0> d          -0.101   1.329  -0.379  0.00  0.00     0.078 C 
ATOM      8  O1  <0> d           1.042  -0.914  -0.150  0.00  0.00    -0.295 OA
ATOM      9  C5  <0> d           0.752  -2.211   0.045  0.00  0.00     0.187 A 
ATOM     10  C4  <0> d          -0.635  -2.325   0.142  0.00  0.00     0.103 A 
ATOM     11  N1  <0> d           1.503  -3.319   0.150  0.00  0.00    -0.218 NA
ATOM     12  C7  <0> d          -1.209  -3.598   0.346  0.00  0.00     0.264 A 
ATOM     13  N2  <0> d          -0.379  -4.663   0.440  0.00  0.00    -0.312 N 
ATOM     14  O2  <0> d          -2.417  -3.734   0.436  0.00  0.00    -0.267 OA
ATOM     15  C6  <0> d           0.962  -4.490   0.338  0.00  0.00     0.215 A 
ATOM     16  C8  <0> d          -0.930  -6.004   0.651  0.00  0.00     0.160 C 
ENDBRANCH   1   5
BRANCH   3  17
ATOM     17  C10 <0> d          -4.452   0.313   1.197  0.00  0.00     0.035 A 
ATOM     18  C15 <0> d          -4.907   1.087   0.140  0.00  0.00     0.043 A 
ATOM     19  C14 <0> d          -6.210   1.582   0.154  0.00  0.00     0.002 A 
ATOM     20  C13 <0> d          -7.045   1.305   1.238  0.00  0.00     0.014 A 
ATOM     21  C12 <0> d          -6.582   0.538   2.288  0.00  0.00     0.003 A 
ATOM     22  C11 <0> d          -5.292   0.043   2.271  0.00  0.00     0.029 A 
BRANCH  19  23
ATOM     23  C16 <0> d          -6.704   2.402  -0.973  0.00  0.00     0.107 A 
ATOM     24  S1  <0> d          -8.307   3.160  -1.208  0.00  0.00    -0.080 SA
ATOM     25  C18 <0> d          -7.962   3.910  -2.794  0.00  0.00     0.071 A 
ATOM     26  C17 <0> d          -6.678   3.508  -2.988  0.00  0.00     0.125 A 
ATOM     27  N4  <0> d          -6.080   2.770  -2.083  0.00  0.00    -0.252 NA
ENDBRANCH  19  23
ENDBRANCH   3  17
TORSDOF 3
