REMARK  5 active torsions:
REMARK  status: ('A' for Active; 'I' for Inactive)
REMARK    1  A    between atoms: C3_4  and  C5_7 
REMARK    2  A    between atoms: C8_10  and  N2_13 
REMARK       I    between atoms: N2_13  and  C11_14 
REMARK       I    between atoms: C11_14  and  N3_16 
REMARK    3  A    between atoms: N3_16  and  C12_17 
REMARK    4  A    between atoms: C12_17  and  C13_18 
REMARK    5  A    between atoms: C16_21  and  N5_24 
ROOT
ATOM      1  N2  <0> d          -4.676  -6.919  -0.319  0.00  0.00    -0.309 N 
ATOM      2  C11 <0> d          -5.826  -6.260  -0.080  0.00  0.00     0.320 C 
ATOM      3  O1  <0> d          -5.823  -5.048   0.020  0.00  0.00    -0.247 OA
ATOM      4  N3  <0> d          -6.981  -6.943   0.049  0.00  0.00    -0.339 N 
ATOM      5  H9  <0> d          -4.689  -7.877  -0.472  0.00  0.00     0.170 HD
ATOM      6  H10 <0> d          -6.984  -7.910  -0.030  0.00  0.00     0.164 HD
ENDROOT
BRANCH   1   7
ATOM      7  C8  <0> d          -3.462  -6.223  -0.346  0.00  0.00     0.036 A 
ATOM      8  C7  <0> d          -3.267  -5.136   0.497  0.00  0.00     0.030 A 
ATOM      9  C6  <0> d          -2.072  -4.448   0.472  0.00  0.00     0.016 A 
ATOM     10  C5  <0> d          -1.060  -4.843  -0.401  0.00  0.00    -0.007 A 
ATOM     11  C10 <0> d          -1.260  -5.931  -1.250  0.00  0.00     0.016 A 
ATOM     12  C9  <0> d          -2.455  -6.619  -1.217  0.00  0.00     0.030 A 
BRANCH  10  13
ATOM     13  C3  <0> d           0.227  -4.105  -0.430  0.00  0.00     0.074 A 
ATOM     14  N1  <0> d           1.210  -4.449  -1.250  0.00  0.00    -0.245 NA
ATOM     15  C2  <0> d           2.340  -3.792  -1.269  0.00  0.00     0.071 A 
ATOM     16  C1  <0> d           3.551  -4.045  -2.130  0.00  0.00     0.078 C 
ATOM     17  S1  <0> d           2.123  -2.603  -0.099  0.00  0.00    -0.085 SA
ATOM     18  C4  <0> d           0.461  -3.033   0.389  0.00  0.00     0.084 A 
ENDBRANCH  10  13
ENDBRANCH   1   7
BRANCH   4  19
ATOM     19  C12 <0> d          -8.232  -6.226   0.309  0.00  0.00     0.164 C 
BRANCH  19  20
ATOM     20  C13 <0> d          -9.365  -7.214   0.410  0.00  0.00    -0.025 A 
ATOM     21  C17 <0> d          -9.702  -7.767   1.628  0.00  0.00     0.098 A 
ATOM     22  N4  <0> d         -10.696  -8.629   1.729  0.00  0.00    -0.352 N 
ATOM     23  C16 <0> d         -11.400  -9.003   0.672  0.00  0.00     0.102 A 
ATOM     24  H22 <0> d         -10.915  -9.000   2.598  0.00  0.00     0.166 HD
ATOM     25  C15 <0> d         -11.112  -8.489  -0.589  0.00  0.00     0.049 A 
ATOM     26  C14 <0> d         -10.079  -7.580  -0.724  0.00  0.00     0.014 A 
BRANCH  23  27
ATOM     27  N5  <0> d         -12.436  -9.918   0.823  0.00  0.00    -0.376 N 
ATOM     28  C18 <0> d         -13.119 -10.452  -0.358  0.00  0.00     0.150 C 
ATOM     29  C19 <0> d         -12.845 -10.347   2.162  0.00  0.00     0.150 C 
ENDBRANCH  23  27
ENDBRANCH  19  20
ENDBRANCH   4  19
TORSDOF 5
