REMARK  6 active torsions:
REMARK  status: ('A' for Active; 'I' for Inactive)
REMARK    1  A    between atoms: C3_3  and  C7_8 
REMARK    2  A    between atoms: C7_8  and  C8_9 
REMARK    3  A    between atoms: N1_12  and  C11_16 
REMARK    4  A    between atoms: C11_16  and  C12_17 
REMARK    5  A    between atoms: C12_17  and  C13_18 
REMARK       I    between atoms: C13_18  and  N2_20 
REMARK    6  A    between atoms: N2_20  and  C14_21 
ROOT
ATOM      1  C8  <0> d           2.435  -2.808  -0.139  0.00  0.00     0.076 A 
ATOM      2  C9  <0> d           2.702  -4.257  -0.265  0.00  0.00     0.266 A 
ATOM      3  O1  <0> d           1.801  -5.075  -0.275  0.00  0.00    -0.266 OA
ATOM      4  N1  <0> d           3.970  -4.618  -0.369  0.00  0.00    -0.298 N 
ATOM      5  C10 <0> d           4.965  -3.709  -0.350  0.00  0.00     0.148 A 
ATOM      6  S1  <0> d           6.652  -3.978  -0.464  0.00  0.00    -0.052 SA
ATOM      7  S2  <0> d           4.100  -2.157  -0.177  0.00  0.00    -0.055 SA
ENDROOT
BRANCH   4   8
ATOM      8  C11 <0> d           4.300  -6.039  -0.502  0.00  0.00     0.143 C 
BRANCH   8   9
ATOM      9  C12 <0> d           4.494  -6.650   0.887  0.00  0.00     0.123 C 
BRANCH   9  10
ATOM     10  C13 <0> d           4.834  -8.112   0.750  0.00  0.00     0.219 C 
ATOM     11  O2  <0> d           4.913  -8.616  -0.350  0.00  0.00    -0.274 OA
ATOM     12  N2  <0> d           5.049  -8.860   1.850  0.00  0.00    -0.352 N 
ATOM     13  H11 <0> d           4.986  -8.457   2.731  0.00  0.00     0.163 HD
BRANCH  12  14
ATOM     14  C14 <0> d           5.380 -10.281   1.717  0.00  0.00     0.122 C 
ATOM     15  C17 <0> d           4.117 -11.072   1.602  0.00  0.00     0.011 C 
ATOM     16  C16 <0> d           3.993 -12.206   2.240  0.00  0.00     0.107 C 
ATOM     17  S3  <0> d           5.520 -12.437   3.132  0.00  0.00     0.167 S 
ATOM     18  C15 <0> d           6.197 -10.734   2.956  0.00  0.00     0.174 C 
ATOM     19  O3  <0> d           5.149 -12.703   4.478  0.00  0.00    -0.223 OA
ATOM     20  O4  <0> d           6.276 -13.371   2.373  0.00  0.00    -0.223 OA
ENDBRANCH  12  14
ENDBRANCH   9  10
ENDBRANCH   8   9
ENDBRANCH   4   8
BRANCH   1  21
ATOM     21  C7  <0> d           1.253  -2.154  -0.022  0.00  0.00     0.036 C 
BRANCH  21  22
ATOM     22  C3  <0> d           1.219  -0.685  -0.072  0.00  0.00    -0.033 A 
ATOM     23  C2  <0> d           0.035   0.001   0.223  0.00  0.00     0.011 A 
ATOM     24  C1  <0> d           0.010   1.379   0.173  0.00  0.00     0.003 A 
ATOM     25  C6  <0> d           1.151   2.084  -0.167  0.00  0.00     0.024 A 
ATOM     26  C5  <0> d           2.327   1.413  -0.461  0.00  0.00     0.034 A 
ATOM     27  C4  <0> d           2.369   0.035  -0.416  0.00  0.00     0.035 A 
ATOM     28 Cl1  <0> d           3.752   2.309  -0.886  0.00  0.00    -0.084 Cl
ENDBRANCH  21  22
ENDBRANCH   1  21
TORSDOF 6
