REMARK  3 active torsions:
REMARK  status: ('A' for Active; 'I' for Inactive)
REMARK    1  A    between atoms: C4_4  and  C7_8 
REMARK    2  A    between atoms: C7_8  and  C8_9 
REMARK    3  A    between atoms: C7_8  and  N1_20 
ROOT
ATOM      1  C7  <0> d           3.713  -0.707  -0.038  0.00  0.00     0.254 C 
ENDROOT
BRANCH   1   2
ATOM      2  C4  <0> d           2.364  -0.038  -0.097  0.00  0.00     0.020 A 
ATOM      3  C3  <0> d           2.266   1.290  -0.474  0.00  0.00     0.044 A 
ATOM      4  C2  <0> d           1.028   1.904  -0.528  0.00  0.00     0.024 A 
ATOM      5 Cl2  <0> d           3.697   2.185  -0.880  0.00  0.00    -0.084 Cl
ATOM      6  C1  <0> d          -0.112   1.191  -0.206  0.00  0.00     0.003 A 
ATOM      7  C6  <0> d          -0.015  -0.136   0.171  0.00  0.00     0.024 A 
ATOM      8  C5  <0> d           1.224  -0.750   0.226  0.00  0.00     0.044 A 
ATOM      9 Cl1  <0> d           1.345  -2.416   0.699  0.00  0.00    -0.084 Cl
ENDBRANCH   1   2
BRANCH   1  10
ATOM     10  C8  <0> d           4.013  -1.110   1.383  0.00  0.00    -0.003 A 
ATOM     11  C13 <0> d           4.442  -0.161   2.293  0.00  0.00     0.022 A 
ATOM     12  C12 <0> d           4.715  -0.527   3.599  0.00  0.00     0.059 A 
ATOM     13 Br1  <0> d           4.649   1.639   1.753  0.00  0.00    -0.050 Br
ATOM     14  C11 <0> d           4.569  -1.847   3.995  0.00  0.00     0.103 A 
ATOM     15  C10 <0> d           4.141  -2.801   3.079  0.00  0.00     0.102 A 
ATOM     16  O1  <0> d           4.853  -2.194   5.280  0.00  0.00    -0.346 OA
ATOM     17  C9  <0> d           3.865  -2.428   1.772  0.00  0.00     0.050 A 
ATOM     18  O2  <0> d           3.986  -4.102   3.449  0.00  0.00    -0.346 OA
ATOM     19  C15 <0> d           4.631  -4.507   4.661  0.00  0.00     0.202 C 
ATOM     20  C14 <0> d           4.340  -3.451   5.736  0.00  0.00     0.202 C 
ENDBRANCH   1  10
BRANCH   1  21
ATOM     21  N1  <0> d           3.705  -1.901  -0.894  0.00  0.00    -0.067 N 
ATOM     22  H11 <0> d           4.585  -2.386  -0.804  0.00  0.00     0.275 HD
ATOM     23  H12 <0> d           2.954  -2.513  -0.611  0.00  0.00     0.275 HD
ATOM     24  H13 <0> d           3.569  -1.625  -1.855  0.00  0.00     0.275 HD
ENDBRANCH   1  21
TORSDOF 3
