REMARK  2 active torsions:
REMARK  status: ('A' for Active; 'I' for Inactive)
REMARK    1  A    between atoms: C12_17  and  C13_19 
REMARK    2  A    between atoms: C17_23  and  O1_25 
ROOT
ATOM      1  C1  <0> d           2.658   8.688   0.019  0.00  0.00     0.093 C 
ATOM      2  C2  <0> d           1.152   8.643   0.032  0.00  0.00     0.127 A 
ATOM      3  N1  <0> d           0.482   9.762   0.043  0.00  0.00    -0.226 NA
ATOM      4  C3  <0> d          -0.846   9.790   0.054  0.00  0.00     0.114 A 
ATOM      5  C4  <0> d          -1.616   8.615   0.056  0.00  0.00     0.055 A 
ATOM      6  C5  <0> d          -3.062   8.801   0.069  0.00  0.00    -0.025 A 
ATOM      7  C6  <0> d          -3.519  10.074   0.077  0.00  0.00     0.020 A 
ATOM      8  S1  <0> d          -2.063  11.082   0.070  0.00  0.00    -0.072 SA
ATOM      9  C7  <0> d          -4.952  10.508   0.089  0.00  0.00     0.318 C 
ATOM     10  N2  <0> d          -5.788   9.347  -0.269  0.00  0.00     0.089 N 
ATOM     11  C8  <0> d          -5.413   8.173   0.530  0.00  0.00     0.277 C 
ATOM     12  C9  <0> d          -4.053   7.639   0.075  0.00  0.00     0.071 C 
ATOM     13  C10 <0> d          -7.215   9.658  -0.110  0.00  0.00     0.310 C 
ATOM     14  C11 <0> d          -0.840   7.359   0.044  0.00  0.00     0.168 A 
ATOM     15  N3  <0> d           0.524   7.436   0.032  0.00  0.00    -0.199 N 
ATOM     16  N4  <0> d           0.987   6.112   0.021  0.00  0.00    -0.143 NA
ATOM     17  C12 <0> d          -0.076   5.331   0.029  0.00  0.00     0.182 A 
ATOM     18  N5  <0> d          -1.179   6.086   0.037  0.00  0.00    -0.206 NA
ENDROOT
BRANCH  17  19
ATOM     19  C13 <0> d          -0.051   3.848   0.022  0.00  0.00     0.016 A 
ATOM     20  C18 <0> d           1.165   3.169   0.007  0.00  0.00     0.052 A 
ATOM     21  C17 <0> d           1.181   1.784   0.000  0.00  0.00     0.066 A 
ATOM     22  C16 <0> d          -0.013   1.076   0.008  0.00  0.00     0.036 A 
ATOM     23  C15 <0> d          -1.220   1.749   0.017  0.00  0.00     0.004 A 
ATOM     24  C14 <0> d          -1.246   3.129   0.030  0.00  0.00     0.015 A 
BRANCH  21  25
ATOM     25  O1  <0> d           2.366   1.119  -0.014  0.00  0.00    -0.361 OA
ATOM     26  H17 <0> d           3.312   1.680  -0.020  0.00  0.00     0.217 HD
ENDBRANCH  21  25
ENDBRANCH  17  19
TORSDOF 2
