REMARK  7 active torsions:
REMARK  status: ('A' for Active; 'I' for Inactive)
REMARK    1  A    between atoms: C5_6  and  O4_25 
REMARK    2  A    between atoms: C6_7  and  C7_8 
REMARK    3  A    between atoms: C7_8  and  N2_9 
REMARK       I    between atoms: N2_9  and  C8_10 
REMARK       I    between atoms: C8_10  and  N3_12 
REMARK    4  A    between atoms: N3_12  and  C9_13 
REMARK    5  A    between atoms: C9_13  and  C10_14 
REMARK    6  A    between atoms: C15_19  and  N4_20 
REMARK    7  A    between atoms: N4_20  and  S1_21 
ROOT
ATOM      1  N2  <0> d          -1.354   0.215   2.954  0.00  0.00    -0.339 N 
ATOM      2  C8  <0> d          -1.598   0.844   4.121  0.00  0.00     0.316 C 
ATOM      3  O1  <0> d          -0.673   1.233   4.807  0.00  0.00    -0.247 OA
ATOM      4  N3  <0> d          -2.868   1.040   4.528  0.00  0.00    -0.339 N 
ATOM      5  H7  <0> d          -2.093  -0.096   2.407  0.00  0.00     0.164 HD
ATOM      6  H8  <0> d          -3.606   0.730   3.981  0.00  0.00     0.164 HD
ENDROOT
BRANCH   1   7
ATOM      7  C7  <0> d           0.026   0.001   2.512  0.00  0.00     0.168 C 
BRANCH   7   8
ATOM      8  C6  <0> d           0.023  -0.718   1.187  0.00  0.00     0.018 A 
ATOM      9  C2  <0> d           0.002  -0.004   0.002  0.00  0.00    -0.048 A 
ATOM     10  C1  <0> d          -0.018   1.503   0.010  0.00  0.00     0.049 C 
ATOM     11  C3  <0> d           0.006  -0.708  -1.195  0.00  0.00     0.034 A 
ATOM     12  C4  <0> d           0.025  -2.087  -1.167  0.00  0.00     0.034 A 
ATOM     13  N1  <0> d           0.040  -2.741  -0.021  0.00  0.00    -0.229 NA
ATOM     14  C18 <0> d           0.030  -2.858  -2.462  0.00  0.00     0.070 C 
ATOM     15  C5  <0> d           0.036  -2.106   1.140  0.00  0.00     0.172 A 
BRANCH  15  16
ATOM     16  O4  <0> d           0.051  -2.818   2.295  0.00  0.00    -0.339 OA
ATOM     17  C17 <0> d           0.070  -4.242   2.179  0.00  0.00     0.211 C 
ENDBRANCH  15  16
ENDBRANCH   7   8
ENDBRANCH   1   7
BRANCH   4  18
ATOM     18  C9  <0> d          -3.133   1.724   5.796  0.00  0.00     0.165 C 
BRANCH  18  19
ATOM     19  C10 <0> d          -4.621   1.815   6.016  0.00  0.00    -0.011 A 
ATOM     20  C15 <0> d          -5.321   0.718   6.502  0.00  0.00     0.077 A 
ATOM     21  C14 <0> d          -6.692   0.809   6.708  0.00  0.00     0.033 A 
ATOM     22  C13 <0> d          -7.356   1.985   6.421  0.00  0.00     0.002 A 
ATOM     23  C12 <0> d          -6.657   3.074   5.932  0.00  0.00     0.001 A 
ATOM     24  C11 <0> d          -5.291   2.989   5.730  0.00  0.00     0.011 A 
BRANCH  20  25
ATOM     25  N4  <0> d          -4.647  -0.472   6.786  0.00  0.00    -0.165 NA
BRANCH  25  26
ATOM     26  S1  <0> d          -5.483  -1.779   7.365  0.00  0.00     0.247 S 
ATOM     27  O2  <0> d          -5.983  -1.360   8.627  0.00  0.00    -0.204 OA
ATOM     28  O3  <0> d          -6.372  -2.134   6.315  0.00  0.00    -0.204 OA
ATOM     29  C16 <0> d          -4.231  -3.072   7.587  0.00  0.00     0.188 C 
ENDBRANCH  25  26
ENDBRANCH  20  25
ENDBRANCH  18  19
ENDBRANCH   4  18
TORSDOF 7
