REMARK  6 active torsions:
REMARK  status: ('A' for Active; 'I' for Inactive)
REMARK    1  A    between atoms: C5_6  and  N2_8 
REMARK    2  A    between atoms: N2_8  and  C7_9 
REMARK    3  A    between atoms: C7_9  and  C8_10 
REMARK    4  A    between atoms: C7_9  and  C13_16 
REMARK    5  A    between atoms: C16_20  and  N4_21 
REMARK       I    between atoms: N4_21  and  C17_22 
REMARK    6  A    between atoms: C17_22  and  C18_24 
ROOT
ATOM      1  C7  <0> d           0.048  -2.142   3.611  0.00  0.00     0.171 C 
ENDROOT
BRANCH   1   2
ATOM      2  N2  <0> d           0.314  -2.727   2.295  0.00  0.00    -0.362 N 
ATOM      3  H8  <0> d           0.380  -3.690   2.196  0.00  0.00     0.162 HD
BRANCH   2   4
ATOM      4  C5  <0> d           0.471  -1.902   1.187  0.00  0.00     0.102 A 
ATOM      5  N1  <0> d           0.711  -2.437  -0.000  0.00  0.00    -0.353 N 
ATOM      6  C4  <0> d           0.867  -1.690  -1.077  0.00  0.00     0.090 A 
ATOM      7  H21 <0> d           0.774  -3.402  -0.081  0.00  0.00     0.166 HD
ATOM      8  C3  <0> d           0.784  -0.314  -1.002  0.00  0.00     0.024 A 
ATOM      9  C2  <0> d           0.534   0.286   0.225  0.00  0.00    -0.057 A 
ATOM     10  C1  <0> d           0.438   1.786   0.344  0.00  0.00     0.048 C 
ATOM     11  C6  <0> d           0.381  -0.522   1.337  0.00  0.00     0.054 A 
ENDBRANCH   2   4
ENDBRANCH   1   2
BRANCH   1  12
ATOM     12  C8  <0> d          -1.436  -1.937   3.780  0.00  0.00     0.061 A 
ATOM     13  N3  <0> d          -2.238  -2.983   3.816  0.00  0.00    -0.263 NA
ATOM     14  C12 <0> d          -3.542  -2.852   3.967  0.00  0.00     0.117 A 
ATOM     15  C11 <0> d          -4.118  -1.601   4.083  0.00  0.00     0.019 A 
ATOM     16  C10 <0> d          -3.306  -0.477   4.044  0.00  0.00     0.003 A 
ATOM     17  C9  <0> d          -1.940  -0.655   3.889  0.00  0.00     0.029 A 
ENDBRANCH   1  12
BRANCH   1  18
ATOM     18  C13 <0> d           0.551  -3.072   4.685  0.00  0.00     0.005 A 
ATOM     19  C16 <0> d           0.935  -2.587   5.899  0.00  0.00     0.086 A 
ATOM     20  S1  <0> d           1.424  -4.077   6.753  0.00  0.00    -0.077 SA
ATOM     21  C15 <0> d           1.095  -5.241   5.441  0.00  0.00    -0.019 A 
ATOM     22  C14 <0> d           0.638  -4.433   4.454  0.00  0.00     0.026 A 
ATOM     23  C22 <0> d           1.279  -6.736   5.432  0.00  0.00     0.056 C 
BRANCH  19  24
ATOM     24  N4  <0> d           0.942  -1.268   6.357  0.00  0.00    -0.315 N 
ATOM     25  C17 <0> d           1.364  -0.991   7.606  0.00  0.00     0.280 C 
ATOM     26  O1  <0> d           1.739  -1.890   8.336  0.00  0.00    -0.265 OA
ATOM     27  H14 <0> d           0.643  -0.551   5.776  0.00  0.00     0.170 HD
BRANCH  25  28
ATOM     28  C18 <0> d           1.371   0.395   8.087  0.00  0.00     0.142 A 
ATOM     29  O2  <0> d           0.984   1.480   7.385  0.00  0.00    -0.317 OA
ATOM     30  C21 <0> d           1.125   2.574   8.144  0.00  0.00     0.143 A 
ATOM     31  C20 <0> d           1.616   2.208   9.349  0.00  0.00     0.027 A 
ATOM     32  C19 <0> d           1.777   0.813   9.322  0.00  0.00     0.045 A 
ENDBRANCH  25  28
ENDBRANCH  19  24
ENDBRANCH   1  18
TORSDOF 6
