REMARK  4 active torsions:
REMARK  status: ('A' for Active; 'I' for Inactive)
REMARK    1  A    between atoms: C3_4  and  S1_8 
REMARK    2  A    between atoms: S1_8  and  N3_11 
REMARK    3  A    between atoms: C7_14  and  C9_17 
REMARK    4  A    between atoms: C9_17  and  N5_18 
ROOT
ATOM      1  N3  <0> d           1.628  -3.801  -2.082  0.00  0.00    -0.133 NA
ATOM      2  C6  <0> d           1.929  -4.805  -2.869  0.00  0.00     0.183 A 
ATOM      3  N4  <0> d           3.167  -5.277  -3.248  0.00  0.00    -0.336 N 
ATOM      4  C7  <0> d           3.224  -6.351  -4.088  0.00  0.00     0.046 A 
ATOM      5  C8  <0> d           2.102  -6.922  -4.524  0.00  0.00     0.080 A 
ATOM      6  S2  <0> d           0.845  -5.933  -3.731  0.00  0.00    -0.061 SA
ATOM      7  H24 <0> d           3.979  -4.855  -2.926  0.00  0.00     0.168 HD
ENDROOT
BRANCH   1   8
ATOM      8  S1  <0> d           0.042  -3.437  -1.774  0.00  0.00     0.302 S 
ATOM      9  O1  <0> d          -0.490  -4.530  -1.039  0.00  0.00    -0.197 OA
ATOM     10  O2  <0> d          -0.520  -3.000  -3.004  0.00  0.00    -0.197 OA
BRANCH   8  11
ATOM     11  C3  <0> d           0.028  -2.047  -0.691  0.00  0.00     0.168 A 
ATOM     12  N1  <0> d           0.008  -0.759  -1.063  0.00  0.00    -0.334 N 
ATOM     13  C2  <0> d           0.002  -0.004   0.002  0.00  0.00     0.079 A 
ATOM     14  H23 <0> d          -0.000  -0.438  -1.978  0.00  0.00     0.168 HD
ATOM     15  C1  <0> d          -0.018   1.503   0.010  0.00  0.00     0.089 C 
ATOM     16  N2  <0> d           0.023  -0.797   1.095  0.00  0.00    -0.348 N 
ATOM     17  C4  <0> d           0.034  -2.093   0.655  0.00  0.00     0.135 A 
ATOM     18  C5  <0> d           0.030  -0.353   2.491  0.00  0.00     0.156 C 
ENDBRANCH   8  11
ENDBRANCH   1   8
BRANCH   4  19
ATOM     19  C9  <0> d           4.562  -6.893  -4.523  0.00  0.00     0.330 C 
BRANCH  19  20
ATOM     20  N5  <0> d           5.258  -5.886  -5.335  0.00  0.00     0.099 N 
ATOM     21  C13 <0> d           6.653  -6.279  -5.579  0.00  0.00     0.304 C 
ATOM     22  C12 <0> d           7.356  -5.177  -6.376  0.00  0.00     0.146 C 
ATOM     23  O3  <0> d           6.639  -4.943  -7.591  0.00  0.00    -0.378 OA
ATOM     24  C14 <0> d           7.392  -3.891  -5.548  0.00  0.00     0.041 C 
ATOM     25  C11 <0> d           5.276  -4.558  -7.390  0.00  0.00     0.146 C 
ATOM     26  C10 <0> d           4.552  -5.654  -6.604  0.00  0.00     0.304 C 
ATOM     27  C15 <0> d           4.593  -4.366  -8.746  0.00  0.00     0.041 C 
ENDBRANCH  19  20
ENDBRANCH   4  19
TORSDOF 4
