REMARK  5 active torsions:
REMARK  status: ('A' for Active; 'I' for Inactive)
REMARK    1  A    between atoms: N1_2  and  C3_4 
REMARK    2  A    between atoms: C3_4  and  C4_5 
REMARK    3  A    between atoms: C3_4  and  C10_16 
REMARK    4  A    between atoms: C4_5  and  N2_6 
REMARK       I    between atoms: N2_6  and  C5_7 
REMARK    5  A    between atoms: C5_7  and  C6_9 
ROOT
ATOM      1  C4  <0> d          -2.182  -0.113  -1.100  0.00  0.00     0.163 C 
ENDROOT
BRANCH   1   2
ATOM      2  C3  <0> d          -1.355  -0.492   0.130  0.00  0.00     0.261 C 
BRANCH   2   3
ATOM      3  N1  <0> d           0.035  -0.061  -0.062  0.00  0.00    -0.067 N 
ATOM      4  C1  <0> d           0.072   1.392  -0.277  0.00  0.00     0.270 C 
ATOM      5  C2  <0> d           0.823  -0.400   1.130  0.00  0.00     0.270 C 
ATOM      6  H17 <0> d           0.424  -0.529  -0.867  0.00  0.00     0.280 HD
ENDBRANCH   2   3
BRANCH   2   7
ATOM      7  C10 <0> d          -1.396  -1.986   0.322  0.00  0.00     0.085 A 
ATOM      8  O2  <0> d          -0.657  -2.884  -0.349  0.00  0.00    -0.325 OA
ATOM      9  C13 <0> d          -0.952  -4.121   0.084  0.00  0.00     0.142 A 
ATOM     10  C12 <0> d          -1.897  -4.023   1.036  0.00  0.00     0.027 A 
ATOM     11  C11 <0> d          -2.184  -2.647   1.189  0.00  0.00     0.037 A 
ENDBRANCH   2   7
ENDBRANCH   1   2
BRANCH   1  12
ATOM     12  N2  <0> d          -1.563  -0.682  -2.299  0.00  0.00    -0.353 N 
ATOM     13  C5  <0> d          -2.163  -0.545  -3.498  0.00  0.00     0.268 C 
ATOM     14  O1  <0> d          -3.221   0.052  -3.584  0.00  0.00    -0.266 OA
ATOM     15  H11 <0> d          -0.720  -1.157  -2.231  0.00  0.00     0.162 HD
BRANCH  13  16
ATOM     16  C6  <0> d          -1.543  -1.115  -4.699  0.00  0.00     0.101 A 
ATOM     17  N3  <0> d          -0.356  -1.810  -4.749  0.00  0.00    -0.360 N 
ATOM     18  C9  <0> d          -0.122  -2.175  -6.034  0.00  0.00     0.107 A 
ATOM     19  H2  <0> d           0.216  -2.008  -3.991  0.00  0.00     0.165 HD
ATOM     20  C8  <0> d          -1.134  -1.718  -6.810  0.00  0.00     0.028 A 
ATOM     21  C7  <0> d          -2.040  -1.046  -5.983  0.00  0.00     0.055 A 
ATOM     22 Br1  <0> d          -1.293  -1.947  -8.681  0.00  0.00    -0.050 Br
ENDBRANCH  13  16
ENDBRANCH   1  12
TORSDOF 5
