REMARK  4 active torsions:
REMARK  status: ('A' for Active; 'I' for Inactive)
REMARK    1  A    between atoms: C6_8  and  C7_10 
REMARK    2  A    between atoms: C7_10  and  S2_11 
REMARK    3  A    between atoms: S2_11  and  C8_12 
REMARK    4  A    between atoms: C12_18  and  N5_22 
ROOT
ATOM      1  C8  <0> d           0.691  -2.833   6.935  0.00  0.00     0.167 A 
ATOM      2  H2  <0> d          -0.677  -4.081   7.910  0.00  0.00     0.168 HD
ATOM      3  N3  <0> d           1.762  -2.209   7.363  0.00  0.00    -0.223 NA
ATOM      4  C9  <0> d           1.950  -2.477   8.681  0.00  0.00     0.086 A 
ATOM      5  C10 <0> d           2.912  -2.080   9.613  0.00  0.00     0.036 A 
ATOM      6  C11 <0> d           2.833  -2.530  10.912  0.00  0.00     0.038 A 
ATOM      7  C12 <0> d           1.804  -3.374  11.303  0.00  0.00     0.105 A 
ATOM      8  C13 <0> d           0.846  -3.775  10.395  0.00  0.00     0.068 A 
ATOM      9  C14 <0> d           0.910  -3.332   9.083  0.00  0.00     0.065 A 
ATOM     10  N4  <0> d           0.124  -3.537   7.960  0.00  0.00    -0.333 N 
ENDROOT
BRANCH   1  11
ATOM     11  S2  <0> d           0.072  -2.769   5.287  0.00  0.00    -0.086 SA
BRANCH  11  12
ATOM     12  C7  <0> d           1.240  -1.684   4.421  0.00  0.00     0.142 C 
BRANCH  12  13
ATOM     13  C6  <0> d           0.821  -1.542   2.981  0.00  0.00     0.057 C 
ATOM     14  C5  <0> d           0.236  -0.459   2.449  0.00  0.00     0.121 C 
ATOM     15  N1  <0> d           0.021  -0.656   1.100  0.00  0.00    -0.330 N 
ATOM     16  C2  <0> d           0.002  -0.004   0.002  0.00  0.00    -0.003 C 
ATOM     17  C4  <0> d          -0.070  -2.146   1.034  0.00  0.00     0.276 C 
ATOM     18  C1  <0> d          -0.018   1.503   0.010  0.00  0.00     0.064 C 
ATOM     19  C3  <0> d           0.006  -0.766  -1.313  0.00  0.00     0.130 C 
ATOM     20  S1  <0> d           0.452  -2.452  -0.698  0.00  0.00    -0.115 SA
ATOM     21  N2  <0> d           0.964  -2.541   1.999  0.00  0.00    -0.256 NA
ENDBRANCH  12  13
ENDBRANCH  11  12
ENDBRANCH   1  11
BRANCH   7  22
ATOM     22  N5  <0> d           1.734  -3.849  12.703  0.00  0.00    -0.116 N 
ATOM     23  O1  <0> d           2.572  -3.500  13.502  0.00  0.00    -0.532 OA
ATOM     24  O2  <0> d           0.839  -4.585  13.048  0.00  0.00    -0.532 OA
ENDBRANCH   7  22
TORSDOF 4
