REMARK  6 active torsions:
REMARK  status: ('A' for Active; 'I' for Inactive)
REMARK    1  A    between atoms: C2_2  and  N1_3 
REMARK    2  A    between atoms: N1_3  and  C3_4 
REMARK    3  A    between atoms: C3_4  and  C4_5 
REMARK    4  A    between atoms: C4_5  and  N2_6 
REMARK    5  A    between atoms: N2_6  and  S1_7 
REMARK    6  A    between atoms: S1_7  and  C5_10 
ROOT
ATOM      1  S1  <0> d          -4.142  -4.825   0.387  0.00  0.00     0.260 S 
ATOM      2  O1  <0> d          -3.814  -6.202   0.265  0.00  0.00    -0.200 OA
ATOM      3  O2  <0> d          -4.645  -4.265   1.592  0.00  0.00    -0.200 OA
ENDROOT
BRANCH   1   4
ATOM      4  N2  <0> d          -2.772  -3.976   0.007  0.00  0.00    -0.314 N 
ATOM      5  H11 <0> d          -1.956  -4.449  -0.221  0.00  0.00     0.172 HD
BRANCH   4   6
ATOM      6  C4  <0> d          -2.792  -2.511   0.015  0.00  0.00     0.159 C 
BRANCH   6   7
ATOM      7  C3  <0> d          -1.356  -1.981   0.004  0.00  0.00     0.252 C 
BRANCH   7   8
ATOM      8  N1  <0> d          -1.376  -0.512   0.012  0.00  0.00    -0.074 N 
ATOM      9  H6  <0> d          -1.848  -0.187   0.843  0.00  0.00     0.277 HD
ATOM     10  H15 <0> d          -1.864  -0.178  -0.805  0.00  0.00     0.277 HD
BRANCH   8  11
ATOM     11  C2  <0> d           0.002  -0.004   0.002  0.00  0.00     0.228 C 
ATOM     12  C1  <0> d          -0.019   1.526   0.010  0.00  0.00     0.034 C 
ENDBRANCH   8  11
ENDBRANCH   7   8
ENDBRANCH   6   7
ENDBRANCH   4   6
ENDBRANCH   1   4
BRANCH   1  13
ATOM     13  C5  <0> d          -5.333  -4.478  -0.865  0.00  0.00     0.098 A 
ATOM     14  C9  <0> d          -5.408  -5.267  -1.997  0.00  0.00     0.141 A 
ATOM     15  N3  <0> d          -6.300  -5.018  -2.935  0.00  0.00    -0.270 NA
ATOM     16  C8  <0> d          -7.143  -4.009  -2.840  0.00  0.00     0.135 A 
ATOM     17  C7  <0> d          -7.124  -3.172  -1.739  0.00  0.00     0.030 A 
ATOM     18  C6  <0> d          -6.203  -3.407  -0.729  0.00  0.00     0.047 A 
ATOM     19 Br1  <0> d          -8.338  -1.728  -1.612  0.00  0.00    -0.050 Br
ENDBRANCH   1  13
TORSDOF 6
