REMARK  2 active torsions:
REMARK  status: ('A' for Active; 'I' for Inactive)
REMARK    1  A    between atoms: C4_4  and  N2_10 
REMARK    2  A    between atoms: N2_10  and  C9_11 
ROOT
ATOM      1  C9  <0> d           0.707   4.213  -4.137  0.00  0.00     0.149 A 
ATOM      2  C10 <0> d           1.165   4.515  -5.418  0.00  0.00     0.102 A 
ATOM      3  C11 <0> d           0.668   5.627  -6.069  0.00  0.00     0.083 A 
ATOM      4  C12 <0> d          -0.289   6.415  -5.406  0.00  0.00     0.108 A 
ATOM      5  C13 <0> d          -0.698   6.046  -4.122  0.00  0.00     0.150 A 
ATOM      6  N3  <0> d          -0.200   4.973  -3.541  0.00  0.00    -0.216 NA
ATOM      7 Cl1  <0> d          -1.879   7.007  -3.288  0.00  0.00    -0.061 Cl
ATOM      8  C14 <0> d          -0.836   7.578  -6.037  0.00  0.00     0.104 C 
ATOM      9  N4  <0> d          -1.269   8.501  -6.538  0.00  0.00    -0.191 NA
ATOM     10 Cl2  <0> d           1.210   6.040  -7.665  0.00  0.00    -0.081 Cl
ATOM     11 Cl3  <0> d           2.349   3.505  -6.187  0.00  0.00    -0.078 Cl
ENDROOT
BRANCH   1  12
ATOM     12  N2  <0> d           1.203   3.098  -3.478  0.00  0.00    -0.369 N 
ATOM     13  H16 <0> d           1.953   2.459  -3.968  0.00  0.00     0.161 HD
BRANCH  12  14
ATOM     14  C4  <0> d           0.727   2.770  -2.128  0.00  0.00     0.087 C 
ATOM     15  C3  <0> d          -0.543   1.927  -2.233  0.00  0.00     0.063 C 
ATOM     16  C2  <0> d          -1.048   1.551  -0.843  0.00  0.00     0.121 C 
ATOM     17  C1  <0> d          -2.143   0.475  -1.020  0.00  0.00     0.046 C 
ATOM     18  N1  <0> d          -0.012   1.005   0.008  0.00  0.00    -0.059 N 
ATOM     19  C15 <0> d          -1.713   2.771  -0.192  0.00  0.00     0.046 C 
ATOM     20  C6  <0> d           1.318   1.579  -0.002  0.00  0.00     0.121 C 
ATOM     21  H9  <0> d          -0.323   1.080   1.060  0.00  0.00     0.279 HD
ATOM     22  H20 <0> d           0.156  -0.051  -0.251  0.00  0.00     0.279 HD
ATOM     23  C5  <0> d           1.795   1.952  -1.403  0.00  0.00     0.063 C 
ATOM     24  C7  <0> d           1.397   2.808   0.911  0.00  0.00     0.046 C 
ATOM     25  C8  <0> d           2.301   0.528   0.560  0.00  0.00     0.046 C 
ENDBRANCH  12  14
ENDBRANCH   1  12
TORSDOF 2
