REMARK  6 active torsions:
REMARK  status: ('A' for Active; 'I' for Inactive)
REMARK    1  A    between atoms: C7_7  and  S1_8 
REMARK    2  A    between atoms: S1_8  and  N1_11 
REMARK    3  A    between atoms: N1_11  and  C9_13 
REMARK    4  A    between atoms: C9_13  and  C10_14 
REMARK       I    between atoms: C10_14  and  N2_16 
REMARK    5  A    between atoms: N2_16  and  C11_17 
REMARK    6  A    between atoms: C15_21  and  C17_23 
ROOT
ATOM      1  N1  <0> d           1.569   1.209   2.757  0.00  0.00    -0.302 N 
ATOM      2  C8  <0> d           1.331   2.638   2.535  0.00  0.00     0.163 C 
ENDROOT
BRANCH   1   3
ATOM      3  S1  <0> d           0.304   0.142   2.711  0.00  0.00     0.261 S 
ATOM      4  O1  <0> d          -0.884   0.917   2.791  0.00  0.00    -0.200 OA
ATOM      5  O2  <0> d           0.606  -0.887   3.643  0.00  0.00    -0.200 OA
BRANCH   3   6
ATOM      6  C7  <0> d           0.311  -0.606   1.116  0.00  0.00     0.088 A 
ATOM      7  C2  <0> d           0.042   0.158  -0.004  0.00  0.00    -0.036 A 
ATOM      8  C1  <0> d          -0.258   1.628   0.143  0.00  0.00     0.050 C 
ATOM      9  C3  <0> d           0.051  -0.420  -1.261  0.00  0.00     0.040 A 
ATOM     10  C4  <0> d           0.326  -1.771  -1.394  0.00  0.00     0.069 A 
ATOM     11  N4  <0> d           0.342  -2.378  -2.658  0.00  0.00    -0.323 N 
ATOM     12  C5  <0> d           0.592  -2.543  -0.264  0.00  0.00     0.098 A 
ATOM     13  C21 <0> d           0.297  -3.725  -2.738  0.00  0.00     0.251 C 
ATOM     14  H19 <0> d           0.384  -1.838  -3.463  0.00  0.00     0.169 HD
ATOM     15  C20 <0> d           0.193  -4.546  -1.478  0.00  0.00     0.217 C 
ATOM     16  O6  <0> d           0.340  -4.273  -3.819  0.00  0.00    -0.270 OA
ATOM     17  O5  <0> d           0.858  -3.869  -0.407  0.00  0.00    -0.335 OA
ATOM     18  C22 <0> d          -1.281  -4.743  -1.119  0.00  0.00     0.050 C 
ATOM     19  C6  <0> d           0.581  -1.957   0.989  0.00  0.00     0.065 A 
ENDBRANCH   3   6
ENDBRANCH   1   3
BRANCH   1  20
ATOM     20  C9  <0> d           2.927   0.725   3.020  0.00  0.00     0.237 C 
BRANCH  20  21
ATOM     21  C10 <0> d           3.639   0.493   1.712  0.00  0.00     0.240 C 
ATOM     22  O3  <0> d           3.069   0.711   0.664  0.00  0.00    -0.271 OA
ATOM     23  N2  <0> d           4.910   0.043   1.707  0.00  0.00    -0.326 N 
ATOM     24  H12 <0> d           5.342  -0.196   2.542  0.00  0.00     0.169 HD
BRANCH  23  25
ATOM     25  C11 <0> d           5.605  -0.077   0.499  0.00  0.00     0.035 A 
ATOM     26  C16 <0> d           5.369   0.822  -0.529  0.00  0.00     0.043 A 
ATOM     27  C15 <0> d           6.068   0.701  -1.730  0.00  0.00     0.002 A 
ATOM     28  C14 <0> d           6.993  -0.332  -1.892  0.00  0.00     0.014 A 
ATOM     29  C13 <0> d           7.217  -1.226  -0.865  0.00  0.00     0.003 A 
ATOM     30  C12 <0> d           6.527  -1.102   0.327  0.00  0.00     0.029 A 
BRANCH  27  31
ATOM     31  C17 <0> d           5.826   1.660  -2.829  0.00  0.00     0.113 A 
ATOM     32  O4  <0> d           4.967   2.695  -2.805  0.00  0.00    -0.213 OA
ATOM     33  N3  <0> d           5.048   3.356  -4.054  0.00  0.00    -0.140 NA
ATOM     34  C19 <0> d           5.919   2.726  -4.792  0.00  0.00     0.149 A 
ATOM     35  C18 <0> d           6.429   1.651  -4.049  0.00  0.00     0.061 A 
ENDBRANCH  27  31
ENDBRANCH  23  25
ENDBRANCH  20  21
ENDBRANCH   1  20
TORSDOF 6
