REMARK  3 active torsions:
REMARK  status: ('A' for Active; 'I' for Inactive)
REMARK    1  A    between atoms: C9_12  and  C10_14 
REMARK    2  A    between atoms: C13_17  and  O3_21 
REMARK    3  A    between atoms: C15_19  and  O2_20 
ROOT
ATOM      1  C1  <0> d           0.117   1.427  -2.386  0.00  0.00     0.270 C 
ATOM      2  C2  <0> d          -0.013   1.086   0.008  0.00  0.00     0.239 C 
ATOM      3  C3  <0> d          -0.724   1.577   1.272  0.00  0.00     0.068 C 
ATOM      4  C4  <0> d          -2.199   1.215   1.162  0.00  0.00    -0.023 A 
ATOM      5  C5  <0> d          -2.729   0.901  -0.042  0.00  0.00     0.018 A 
ATOM      6  S1  <0> d          -4.434   0.547   0.287  0.00  0.00    -0.074 SA
ATOM      7  C6  <0> d          -4.439   0.810   1.980  0.00  0.00     0.088 A 
ATOM      8  C7  <0> d          -3.118   1.175   2.285  0.00  0.00     0.073 A 
ATOM      9  C8  <0> d          -2.802   1.478   3.700  0.00  0.00     0.256 C 
ATOM     10  O1  <0> d          -1.659   1.691   4.062  0.00  0.00    -0.267 OA
ATOM     11  N1  <0> d          -3.832   1.506   4.571  0.00  0.00    -0.331 N 
ATOM     12  C9  <0> d          -5.233   1.498   4.163  0.00  0.00     0.222 C 
ATOM     13  N2  <0> d          -5.425   0.717   2.927  0.00  0.00    -0.358 N 
ATOM     14  C17 <0> d          -2.006   0.869  -1.352  0.00  0.00     0.281 C 
ATOM     15  H9  <0> d          -3.630   1.534   5.520  0.00  0.00     0.165 HD
ATOM     16  H10 <0> d          -6.211   0.164   2.792  0.00  0.00     0.162 HD
ATOM     17  N3  <0> d          -0.725   1.596  -1.182  0.00  0.00    -0.070 N 
ATOM     18  H20 <0> d          -0.922   2.595  -1.050  0.00  0.00     0.279 HD
ENDROOT
BRANCH  12  19
ATOM     19  C10 <0> d          -5.687   2.915   3.927  0.00  0.00     0.017 A 
ATOM     20  C15 <0> d          -5.191   3.942   4.716  0.00  0.00     0.078 A 
ATOM     21  C14 <0> d          -5.608   5.247   4.498  0.00  0.00     0.074 A 
ATOM     22  C13 <0> d          -6.521   5.520   3.491  0.00  0.00     0.070 A 
ATOM     23  C12 <0> d          -7.014   4.489   2.704  0.00  0.00     0.037 A 
ATOM     24  C11 <0> d          -6.592   3.191   2.920  0.00  0.00     0.017 A 
BRANCH  20  25
ATOM     25  O2  <0> d          -4.296   3.671   5.702  0.00  0.00    -0.360 OA
ATOM     26  H14 <0> d          -3.373   3.710   5.418  0.00  0.00     0.217 HD
ENDBRANCH  20  25
BRANCH  22  27
ATOM     27  O3  <0> d          -6.932   6.797   3.275  0.00  0.00    -0.356 OA
ATOM     28  C16 <0> d          -7.874   7.006   2.221  0.00  0.00     0.210 C 
ENDBRANCH  22  27
ENDBRANCH  12  19
TORSDOF 3
