REMARK  5 active torsions:
REMARK  status: ('A' for Active; 'I' for Inactive)
REMARK    1  A    between atoms: C3_3  and  C15_20 
REMARK    2  A    between atoms: C4_4  and  C6_9 
REMARK    3  A    between atoms: C11_14  and  O1_15 
REMARK    4  A    between atoms: O1_15  and  C12_16 
REMARK    5  A    between atoms: C15_20  and  O3_22 
ROOT
ATOM      1  C12 <0> d           0.693  -2.354  -3.885  0.00  0.00     0.268 C 
ATOM      2  C13 <0> d           2.061  -1.815  -3.813  0.00  0.00    -0.091 C 
ATOM      3  C14 <0> d           3.152  -1.386  -3.756  0.00  0.00     0.014 C 
ENDROOT
BRANCH   1   4
ATOM      4  O1  <0> d           0.118  -2.369  -2.576  0.00  0.00    -0.339 OA
BRANCH   4   5
ATOM      5  C11 <0> d          -1.185  -2.744  -2.479  0.00  0.00     0.078 A 
ATOM      6  C6  <0> d          -1.836  -2.683  -1.256  0.00  0.00     0.004 A 
ATOM      7  C7  <0> d          -3.162  -3.060  -1.160  0.00  0.00     0.031 A 
ATOM      8  C8  <0> d          -3.838  -3.503  -2.282  0.00  0.00     0.011 A 
ATOM      9  C9  <0> d          -3.189  -3.570  -3.502  0.00  0.00     0.022 A 
ATOM     10 Br1  <0> d          -5.653  -4.019  -2.148  0.00  0.00    -0.051 Br
ATOM     11  C10 <0> d          -1.864  -3.194  -3.603  0.00  0.00     0.039 A 
BRANCH   6  12
ATOM     12  C4  <0> d          -1.099  -2.200  -0.033  0.00  0.00     0.161 A 
ATOM     13  C3  <0> d          -0.924  -0.700  -0.155  0.00  0.00     0.066 A 
ATOM     14  C2  <0> d           0.335  -0.210  -0.129  0.00  0.00     0.022 A 
ATOM     15  C1  <0> d           0.554   1.276  -0.247  0.00  0.00     0.069 C 
ATOM     16  N2  <0> d           1.411  -1.039  -0.002  0.00  0.00    -0.337 N 
ATOM     17  C5  <0> d           1.314  -2.369   0.115  0.00  0.00     0.172 A 
ATOM     18  H6  <0> d           2.296  -0.642   0.009  0.00  0.00     0.168 HD
ATOM     19  N1  <0> d           0.126  -3.006   0.105  0.00  0.00    -0.354 N 
ATOM     20  S1  <0> d           2.747  -3.293   0.276  0.00  0.00    -0.041 SA
ATOM     21  H5  <0> d           0.079  -3.971   0.188  0.00  0.00     0.163 HD
BRANCH  13  22
ATOM     22  C15 <0> d          -2.040   0.158  -0.292  0.00  0.00     0.293 C 
ATOM     23  O2  <0> d          -1.881   1.364  -0.309  0.00  0.00    -0.259 OA
BRANCH  22  24
ATOM     24  O3  <0> d          -3.280  -0.361  -0.403  0.00  0.00    -0.323 OA
ATOM     25  C16 <0> d          -4.348   0.556  -0.651  0.00  0.00     0.213 C 
ENDBRANCH  22  24
ENDBRANCH  13  22
ENDBRANCH   6  12
ENDBRANCH   4   5
ENDBRANCH   1   4
TORSDOF 5
