REMARK  3 active torsions:
REMARK  status: ('A' for Active; 'I' for Inactive)
REMARK    1  A    between atoms: C4_5  and  C7_8 
REMARK    2  A    between atoms: C7_8  and  N2_9 
REMARK       I    between atoms: N2_9  and  C9_11 
REMARK       I    between atoms: C9_11  and  N3_13 
REMARK    3  A    between atoms: C12_16  and  C14_18 
ROOT
ATOM      1  N2  <0> d           2.094  -4.874   1.071  0.00  0.00    -0.338 N 
ATOM      2  C8  <0> d           1.663  -5.277   2.413  0.00  0.00     0.154 C 
ATOM      3  C9  <0> d           3.085  -5.546   0.452  0.00  0.00     0.320 C 
ATOM      4  O1  <0> d           3.513  -5.150  -0.615  0.00  0.00    -0.247 OA
ATOM      5  N3  <0> d           3.601  -6.656   1.015  0.00  0.00    -0.333 N 
ATOM      6  C10 <0> d           3.098  -7.314   2.229  0.00  0.00     0.128 C 
ATOM      7  C11 <0> d           3.979  -8.556   2.477  0.00  0.00     0.037 C 
ATOM      8  C12 <0> d           4.574  -8.845   1.073  0.00  0.00     0.106 C 
ATOM      9  C13 <0> d           4.759  -7.416   0.511  0.00  0.00     0.143 C 
ENDROOT
BRANCH   1  10
ATOM     10  C7  <0> d           1.447  -3.742   0.403  0.00  0.00     0.131 C 
BRANCH  10  11
ATOM     11  C4  <0> d           2.192  -2.452   0.751  0.00  0.00     0.007 C 
ATOM     12  C3  <0> d           1.595  -1.286  -0.043  0.00  0.00     0.034 C 
ATOM     13  C2  <0> d           2.291   0.013   0.367  0.00  0.00     0.234 C 
ATOM     14  N1  <0> d           2.093   0.245   1.803  0.00  0.00    -0.075 N 
ATOM     15  C1  <0> d           2.696   1.532   2.177  0.00  0.00     0.269 C 
ATOM     16  C6  <0> d           2.726  -0.832   2.574  0.00  0.00     0.234 C 
ATOM     17  H25 <0> d           1.105   0.267   2.005  0.00  0.00     0.279 HD
ATOM     18  C5  <0> d           2.046  -2.164   2.248  0.00  0.00     0.034 C 
ENDBRANCH  10  11
ENDBRANCH   1  10
BRANCH   8  19
ATOM     19  C14 <0> d           5.895  -9.562   1.183  0.00  0.00     0.178 C 
ATOM     20  O2  <0> d           5.951 -10.659   1.712  0.00  0.00    -0.648 OA
ATOM     21  O3  <0> d           6.907  -9.045   0.743  0.00  0.00    -0.648 OA
ENDBRANCH   8  19
TORSDOF 3
