REMARK  6 active torsions:
REMARK  status: ('A' for Active; 'I' for Inactive)
REMARK    1  A    between atoms: C5_5  and  C9_9 
REMARK    2  A    between atoms: C9_9  and  C10_10 
REMARK    3  A    between atoms: C10_10  and  C11_11 
REMARK       I    between atoms: C11_11  and  N1_13 
REMARK    4  A    between atoms: N1_13  and  N2_14 
REMARK    5  A    between atoms: N2_14  and  C12_15 
REMARK    6  A    between atoms: N3_17  and  C13_18 
ROOT
ATOM      1  C11 <0> d           2.854   3.009   5.200  0.00  0.00     0.259 C 
ATOM      2  O1  <0> d           2.506   2.996   6.366  0.00  0.00    -0.267 OA
ATOM      3  N1  <0> d           1.982   2.667   4.231  0.00  0.00    -0.264 N 
ATOM      4  H12 <0> d           2.297   2.679   3.178  0.00  0.00     0.190 HD
ENDROOT
BRANCH   3   5
ATOM      5  N2  <0> d           0.673   2.296   4.567  0.00  0.00    -0.274 N 
ATOM      6  H13 <0> d           0.358   2.284   5.621  0.00  0.00     0.189 HD
BRANCH   5   7
ATOM      7  C12 <0> d          -0.200   1.954   3.599  0.00  0.00     0.186 C 
ATOM      8  S1  <0> d          -1.799   1.502   4.009  0.00  0.00    -0.040 SA
ATOM      9  N3  <0> d           0.186   1.969   2.308  0.00  0.00    -0.361 N 
ATOM     10  H14 <0> d           1.214   2.260   2.044  0.00  0.00     0.162 HD
BRANCH   9  11
ATOM     11  C13 <0> d          -0.763   1.597   1.255  0.00  0.00     0.083 C 
ATOM     12  C17 <0> d          -1.531   2.845   0.750  0.00  0.00     0.025 C 
ATOM     13  C16 <0> d          -1.978   2.421  -0.670  0.00  0.00     0.002 C 
ATOM     14  C15 <0> d          -0.784   1.609  -1.216  0.00  0.00     0.002 C 
ATOM     15  C14 <0> d          -0.013   1.086   0.008  0.00  0.00     0.025 C 
ENDBRANCH   9  11
ENDBRANCH   5   7
ENDBRANCH   3   5
BRANCH   1  16
ATOM     16  C10 <0> d           4.222   3.396   4.849  0.00  0.00     0.076 C 
BRANCH  16  17
ATOM     17  C9  <0> d           5.095   3.738   5.817  0.00  0.00     0.017 C 
BRANCH  17  18
ATOM     18  C5  <0> d           6.471   4.128   5.465  0.00  0.00    -0.030 A 
ATOM     19  C4  <0> d           6.877   4.139   4.127  0.00  0.00     0.012 A 
ATOM     20  C3  <0> d           8.165   4.508   3.804  0.00  0.00     0.007 A 
ATOM     21  C2  <0> d           9.059   4.859   4.801  0.00  0.00    -0.061 A 
ATOM     22  C1  <0> d          10.466   5.257   4.440  0.00  0.00     0.048 C 
ATOM     23  C7  <0> d           8.666   4.846   6.128  0.00  0.00     0.014 A 
ATOM     24  C6  <0> d           7.379   4.483   6.466  0.00  0.00    -0.051 A 
ATOM     25  C8  <0> d           6.953   4.469   7.912  0.00  0.00     0.049 C 
ENDBRANCH  17  18
ENDBRANCH  16  17
ENDBRANCH   1  16
TORSDOF 6
