REMARK  4 active torsions:
REMARK  status: ('A' for Active; 'I' for Inactive)
REMARK    1  A    between atoms: C2_2  and  N1_3 
REMARK    2  A    between atoms: N2_6  and  C7_9 
REMARK    3  A    between atoms: C10_12  and  N3_16 
REMARK       I    between atoms: N3_16  and  C14_17 
REMARK    4  A    between atoms: C14_17  and  C15_19 
ROOT
ATOM      1  C7  <0> d           0.752  -2.729  -4.695  0.00  0.00     0.030 A 
ATOM      2  C8  <0> d           0.083  -2.250  -5.814  0.00  0.00     0.031 A 
ATOM      3  C9  <0> d          -0.220  -3.104  -6.855  0.00  0.00     0.032 A 
ATOM      4  C10 <0> d           0.145  -4.443  -6.784  0.00  0.00     0.041 A 
ATOM      5  C11 <0> d           0.814  -4.921  -5.665  0.00  0.00    -0.033 A 
ATOM      6  C12 <0> d           1.121  -4.066  -4.626  0.00  0.00     0.038 A 
ATOM      7  C13 <0> d           1.209  -6.373  -5.588  0.00  0.00     0.050 C 
ENDROOT
BRANCH   4   8
ATOM      8  N3  <0> d          -0.162  -5.309  -7.841  0.00  0.00    -0.322 N 
ATOM      9  C14 <0> d          -1.205  -5.040  -8.652  0.00  0.00     0.257 C 
ATOM     10  O1  <0> d          -1.834  -4.010  -8.511  0.00  0.00    -0.267 OA
ATOM     11  H21 <0> d           0.375  -6.103  -7.989  0.00  0.00     0.169 HD
BRANCH   9  12
ATOM     12  C15 <0> d          -1.581  -5.996  -9.710  0.00  0.00     0.046 A 
ATOM     13  C20 <0> d          -2.673  -5.720 -10.563  0.00  0.00     0.027 A 
ATOM     14  C19 <0> d          -3.013  -6.641 -11.571  0.00  0.00     0.062 A 
ATOM     15  C21 <0> d          -3.584  -4.646 -10.662  0.00  0.00     0.153 A 
ATOM     16  C18 <0> d          -2.281  -7.817 -11.708  0.00  0.00     0.032 A 
ATOM     17  N5  <0> d          -4.090  -6.113 -12.237  0.00  0.00    -0.278 N 
ATOM     18  C17 <0> d          -1.222  -8.077 -10.865  0.00  0.00     0.003 A 
ATOM     19  C16 <0> d          -0.869  -7.179  -9.872  0.00  0.00     0.018 A 
ATOM     20  N4  <0> d          -4.412  -4.888 -11.639  0.00  0.00    -0.186 NA
ATOM     21  H1  <0> d          -4.554  -6.521 -12.984  0.00  0.00     0.189 HD
ENDBRANCH   9  12
ENDBRANCH   4   8
BRANCH   1  22
ATOM     22  N2  <0> d           1.058  -1.863  -3.639  0.00  0.00    -0.378 N 
ATOM     23  C4  <0> d           0.782  -0.422  -3.739  0.00  0.00     0.150 C 
ATOM     24  C3  <0> d           0.011   0.013  -2.488  0.00  0.00     0.254 C 
ATOM     25  N1  <0> d           0.764  -0.379  -1.290  0.00  0.00    -0.068 N 
ATOM     26  C6  <0> d           0.853  -1.843  -1.211  0.00  0.00     0.254 C 
ATOM     27  H26 <0> d           1.693   0.011  -1.337  0.00  0.00     0.280 HD
ATOM     28  C5  <0> d           1.665  -2.369  -2.398  0.00  0.00     0.150 C 
BRANCH  25  29
ATOM     29  C2  <0> d           0.080   0.134  -0.095  0.00  0.00     0.230 C 
ATOM     30  C1  <0> d           0.097   1.663  -0.115  0.00  0.00     0.034 C 
ENDBRANCH  25  29
ENDBRANCH   1  22
TORSDOF 4
