REMARK  3 active torsions:
REMARK  status: ('A' for Active; 'I' for Inactive)
REMARK    1  A    between atoms: C7_7  and  S1_8 
REMARK    2  A    between atoms: S1_8  and  N1_11 
REMARK    3  A    between atoms: N1_11  and  C8_12 
ROOT
ATOM      1  C1  <0> d          -0.018   1.503   0.010  0.00  0.00     0.050 C 
ATOM      2  C2  <0> d           0.002  -0.004   0.002  0.00  0.00    -0.036 A 
ATOM      3  C3  <0> d           0.006  -0.685  -1.198  0.00  0.00     0.040 A 
ATOM      4  C4  <0> d           0.025  -2.075  -1.210  0.00  0.00     0.062 A 
ATOM      5  C5  <0> d           0.040  -2.777  -0.003  0.00  0.00     0.063 A 
ATOM      6  C6  <0> d           0.036  -2.080   1.200  0.00  0.00     0.057 A 
ATOM      7  C7  <0> d           0.023  -0.700   1.199  0.00  0.00     0.089 A 
ATOM      8  N2  <0> d           0.058  -4.169   0.006  0.00  0.00    -0.317 N 
ATOM      9  H1  <0> d           0.068  -4.647   0.850  0.00  0.00     0.169 HD
ATOM     10  C14 <0> d           0.062  -4.853  -1.156  0.00  0.00     0.314 A 
ATOM     11  O3  <0> d           0.077  -6.067  -1.153  0.00  0.00    -0.262 OA
ATOM     12  C15 <0> d           0.046  -4.103  -2.445  0.00  0.00     0.314 A 
ATOM     13  O4  <0> d           0.049  -4.701  -3.502  0.00  0.00    -0.262 OA
ATOM     14  N3  <0> d           0.028  -2.755  -2.425  0.00  0.00    -0.317 N 
ATOM     15  H2  <0> d           0.017  -2.258  -3.258  0.00  0.00     0.169 HD
ENDROOT
BRANCH   7  16
ATOM     16  S1  <0> d           0.025   0.179   2.725  0.00  0.00     0.284 S 
ATOM     17  O1  <0> d          -1.014   1.144   2.640  0.00  0.00    -0.198 OA
ATOM     18  O2  <0> d           0.075  -0.797   3.756  0.00  0.00    -0.198 OA
BRANCH  16  19
ATOM     19  N1  <0> d           1.449   1.022   2.803  0.00  0.00    -0.160 NA
BRANCH  19  20
ATOM     20  C8  <0> d           1.729   1.819   3.915  0.00  0.00     0.071 A 
ATOM     21  C13 <0> d           2.922   2.527   3.981  0.00  0.00     0.051 A 
ATOM     22  C12 <0> d           3.193   3.319   5.081  0.00  0.00     0.013 A 
ATOM     23  C11 <0> d           2.283   3.398   6.120  0.00  0.00     0.019 A 
ATOM     24 Br1  <0> d           4.813   4.290   5.169  0.00  0.00    -0.051 Br
ATOM     25  C10 <0> d           1.097   2.690   6.059  0.00  0.00     0.004 A 
ATOM     26  C9  <0> d           0.817   1.901   4.960  0.00  0.00     0.032 A 
ENDBRANCH  19  20
ENDBRANCH  16  19
ENDBRANCH   7  16
TORSDOF 3
