REMARK  10 active torsions:
REMARK  status: ('A' for Active; 'I' for Inactive)
REMARK    1  A    between atoms: C2_2  and  N1_3 
REMARK    2  A    between atoms: N1_3  and  C3_4 
REMARK    3  A    between atoms: N1_3  and  C14_19 
REMARK    4  A    between atoms: C3_4  and  C4_5 
REMARK    5  A    between atoms: C4_5  and  N2_6 
REMARK    6  A    between atoms: N2_6  and  C5_7 
REMARK    7  A    between atoms: C5_7  and  C6_8 
REMARK    8  A    between atoms: C9_11  and  O1_14 
REMARK    9  A    between atoms: O1_14  and  C12_15 
REMARK   10  A    between atoms: C12_15  and  C13_16 
REMARK       I    between atoms: C13_16  and  N3_18 
ROOT
ATOM      1  N2  <0> d          -1.391  -3.295   2.265  0.00  0.00    -0.070 N 
ATOM      2  H10 <0> d          -0.874  -3.611   3.072  0.00  0.00     0.277 HD
ATOM      3  H28 <0> d          -2.139  -2.686   2.561  0.00  0.00     0.277 HD
ENDROOT
BRANCH   1   4
ATOM      4  C4  <0> d          -0.491  -2.563   1.363  0.00  0.00     0.252 C 
BRANCH   4   5
ATOM      5  C3  <0> d           0.095  -1.356   2.098  0.00  0.00     0.150 C 
BRANCH   5   6
ATOM      6  N1  <0> d           0.889  -0.554   1.163  0.00  0.00    -0.379 N 
BRANCH   6   7
ATOM      7  C2  <0> d           0.235   0.454   0.324  0.00  0.00     0.118 C 
ATOM      8  C1  <0> d           0.216   1.795   1.059  0.00  0.00     0.026 C 
ENDBRANCH   6   7
BRANCH   6   9
ATOM      9  C14 <0> d           2.269  -0.750   1.071  0.00  0.00     0.036 A 
ATOM     10  C19 <0> d           2.794  -1.539   0.057  0.00  0.00    -0.035 A 
ATOM     11  C18 <0> d           4.160  -1.726  -0.034  0.00  0.00     0.009 A 
ATOM     12  C20 <0> d           1.875  -2.186  -0.948  0.00  0.00     0.050 C 
ATOM     13  C17 <0> d           5.002  -1.138   0.891  0.00  0.00     0.001 A 
ATOM     14  C16 <0> d           4.482  -0.356   1.906  0.00  0.00     0.002 A 
ATOM     15  C15 <0> d           3.118  -0.160   1.999  0.00  0.00     0.030 A 
ENDBRANCH   6   9
ENDBRANCH   5   6
ENDBRANCH   4   5
ENDBRANCH   1   4
BRANCH   1  16
ATOM     16  C5  <0> d          -1.954  -4.454   1.560  0.00  0.00     0.270 C 
BRANCH  16  17
ATOM     17  C6  <0> d          -2.877  -5.205   2.485  0.00  0.00    -0.033 A 
ATOM     18  C11 <0> d          -4.219  -4.876   2.537  0.00  0.00     0.011 A 
ATOM     19  C10 <0> d          -5.068  -5.567   3.380  0.00  0.00     0.037 A 
ATOM     20  C9  <0> d          -4.571  -6.583   4.182  0.00  0.00     0.069 A 
ATOM     21  C8  <0> d          -3.223  -6.907   4.132  0.00  0.00     0.037 A 
ATOM     22  C7  <0> d          -2.379  -6.218   3.284  0.00  0.00     0.011 A 
BRANCH  20  23
ATOM     23  O1  <0> d          -5.404  -7.261   5.016  0.00  0.00    -0.342 OA
BRANCH  23  24
ATOM     24  C12 <0> d          -6.779  -6.874   5.015  0.00  0.00     0.278 C 
BRANCH  24  25
ATOM     25  C13 <0> d          -7.543  -7.729   5.993  0.00  0.00     0.239 C 
ATOM     26  O2  <0> d          -6.966  -8.586   6.628  0.00  0.00    -0.271 OA
ATOM     27  N3  <0> d          -8.867  -7.542   6.162  0.00  0.00    -0.368 N 
ATOM     28  H19 <0> d          -9.328  -6.856   5.654  0.00  0.00     0.159 HD
ATOM     29  H20 <0> d          -9.358  -8.092   6.791  0.00  0.00     0.159 HD
ENDBRANCH  24  25
ENDBRANCH  23  24
ENDBRANCH  20  23
ENDBRANCH  16  17
ENDBRANCH   1  16
TORSDOF 10
