REMARK  7 active torsions:
REMARK  status: ('A' for Active; 'I' for Inactive)
REMARK    1  A    between atoms: C4_4  and  N1_7 
REMARK    2  A    between atoms: C8_10  and  C9_11 
REMARK    3  A    between atoms: C9_11  and  N2_12 
REMARK    4  A    between atoms: N2_12  and  C10_13 
REMARK    5  A    between atoms: C10_13  and  C11_14 
REMARK    6  A    between atoms: C11_14  and  C17_20 
REMARK    7  A    between atoms: C17_20  and  C18_21 
ROOT
ATOM      1  N1  <0> d           1.992   3.916   0.569  0.00  0.00    -0.257 N 
ATOM      2  C7  <0> d           2.030   5.243   0.328  0.00  0.00     0.249 A 
ATOM      3  O1  <0> d           1.006   5.872   0.135  0.00  0.00    -0.271 OA
ATOM      4  C8  <0> d           3.344   5.910   0.308  0.00  0.00     0.211 A 
ATOM      5  C19 <0> d           4.529   5.066   0.545  0.00  0.00     0.242 A 
ATOM      6  O3  <0> d           5.647   5.544   0.540  0.00  0.00    -0.272 OA
ATOM      7  N3  <0> d           4.339   3.749   0.768  0.00  0.00    -0.302 N 
ATOM      8  C20 <0> d           3.112   3.210   0.777  0.00  0.00     0.188 A 
ATOM      9  S1  <0> d           2.968   1.529   1.069  0.00  0.00    -0.040 SA
ATOM     10  H22 <0> d           5.108   3.180   0.926  0.00  0.00     0.171 HD
ENDROOT
BRANCH   4  11
ATOM     11  C9  <0> d           3.460   7.267   0.072  0.00  0.00     0.107 C 
BRANCH  11  12
ATOM     12  N2  <0> d           2.354   8.034  -0.009  0.00  0.00    -0.304 NA
BRANCH  12  13
ATOM     13  C10 <0> d           2.477   9.473  -0.259  0.00  0.00     0.158 C 
BRANCH  13  14
ATOM     14  C11 <0> d           1.084  10.080  -0.438  0.00  0.00    -0.013 C 
ATOM     15  C16 <0> d           0.307   9.972   0.875  0.00  0.00     0.012 C 
ATOM     16  C15 <0> d           1.056  10.728   1.974  0.00  0.00     0.001 C 
ATOM     17  C14 <0> d           1.189  12.200   1.581  0.00  0.00     0.000 C 
ATOM     18  C13 <0> d           1.966  12.309   0.268  0.00  0.00     0.001 C 
ATOM     19  C12 <0> d           1.217  11.553  -0.832  0.00  0.00     0.012 C 
BRANCH  14  20
ATOM     20  C17 <0> d           0.336   9.324  -1.538  0.00  0.00     0.124 C 
BRANCH  20  21
ATOM     21  C18 <0> d           1.092   9.447  -2.836  0.00  0.00     0.173 C 
ATOM     22  O2  <0> d           2.178   9.977  -2.855  0.00  0.00    -0.648 OA
ATOM     23  O4  <0> d           0.559   8.967  -3.971  0.00  0.00    -0.648 OA
ENDBRANCH  20  21
ENDBRANCH  14  20
ENDBRANCH  13  14
ENDBRANCH  12  13
ENDBRANCH  11  12
ENDBRANCH   4  11
BRANCH   1  24
ATOM     24  C4  <0> d           0.754   3.260   0.598  0.00  0.00     0.044 A 
ATOM     25  C3  <0> d           0.106   3.050   1.808  0.00  0.00     0.030 A 
ATOM     26  C2  <0> d          -1.113   2.403   1.833  0.00  0.00     0.002 A 
ATOM     27  C1  <0> d          -1.687   1.960   0.656  0.00  0.00     0.000 A 
ATOM     28  C6  <0> d          -1.047   2.173  -0.551  0.00  0.00     0.002 A 
ATOM     29  C5  <0> d           0.173   2.819  -0.583  0.00  0.00     0.030 A 
ENDBRANCH   1  24
TORSDOF 7
