REMARK  5 active torsions:
REMARK  status: ('A' for Active; 'I' for Inactive)
REMARK    1  A    between atoms: N2_5  and  C6_8 
REMARK    2  A    between atoms: C11_13  and  N3_14 
REMARK       I    between atoms: N3_14  and  C12_15 
REMARK    3  A    between atoms: C12_15  and  C13_17 
REMARK    4  A    between atoms: C14_18  and  O2_28 
REMARK    5  A    between atoms: N4_20  and  C16_22 
ROOT
ATOM      1  N3  <0> d           0.380  -5.247  -0.032  0.00  0.00    -0.320 N 
ATOM      2  C12 <0> d          -0.005  -6.444   0.455  0.00  0.00     0.279 C 
ATOM      3  O1  <0> d           0.814  -7.185   0.964  0.00  0.00    -0.265 OA
ATOM      4  H16 <0> d          -0.283  -4.623  -0.364  0.00  0.00     0.169 HD
ENDROOT
BRANCH   1   5
ATOM      5  C11 <0> d           1.739  -4.906  -0.058  0.00  0.00     0.061 A 
ATOM      6  C6  <0> d           2.123  -3.565  -0.059  0.00  0.00     0.057 A 
ATOM      7  C7  <0> d           3.470  -3.234  -0.080  0.00  0.00     0.031 A 
ATOM      8  C8  <0> d           4.426  -4.232  -0.104  0.00  0.00     0.002 A 
ATOM      9  C9  <0> d           4.045  -5.561  -0.108  0.00  0.00     0.002 A 
ATOM     10  C10 <0> d           2.705  -5.900  -0.088  0.00  0.00     0.032 A 
BRANCH   6  11
ATOM     11  N2  <0> d           1.153  -2.557  -0.034  0.00  0.00    -0.376 N 
ATOM     12  C3  <0> d           0.602  -2.006  -1.282  0.00  0.00     0.150 C 
ATOM     13  C2  <0> d           0.687  -0.477  -1.216  0.00  0.00     0.254 C 
ATOM     14  N1  <0> d           0.020  -0.003   0.002  0.00  0.00    -0.072 N 
ATOM     15  C1  <0> d           0.005   1.466   0.010  0.00  0.00     0.269 C 
ATOM     16  C5  <0> d           0.737  -0.489   1.187  0.00  0.00     0.254 C 
ATOM     17  H26 <0> d          -0.928  -0.348   0.020  0.00  0.00     0.279 HD
ATOM     18  C4  <0> d           0.655  -2.018   1.241  0.00  0.00     0.150 C 
ENDBRANCH   6  11
ENDBRANCH   1   5
BRANCH   2  19
ATOM     19  C13 <0> d          -1.419  -6.854   0.371  0.00  0.00     0.179 A 
ATOM     20  N5  <0> d          -2.409  -6.153  -0.151  0.00  0.00    -0.159 NA
ATOM     21  N4  <0> d          -3.510  -6.808  -0.063  0.00  0.00    -0.242 N 
ATOM     22  C15 <0> d          -3.296  -8.005   0.549  0.00  0.00     0.158 A 
ATOM     23  C14 <0> d          -1.972  -8.072   0.842  0.00  0.00     0.121 A 
BRANCH  21  24
ATOM     24  C16 <0> d          -4.753  -6.353  -0.523  0.00  0.00     0.058 A 
ATOM     25  C21 <0> d          -4.856  -5.111  -1.135  0.00  0.00     0.031 A 
ATOM     26  C20 <0> d          -6.081  -4.668  -1.593  0.00  0.00     0.002 A 
ATOM     27  C19 <0> d          -7.206  -5.455  -1.433  0.00  0.00     0.000 A 
ATOM     28  C18 <0> d          -7.108  -6.690  -0.820  0.00  0.00     0.002 A 
ATOM     29  C17 <0> d          -5.885  -7.141  -0.365  0.00  0.00     0.031 A 
ENDBRANCH  21  24
BRANCH  23  30
ATOM     30  O2  <0> d          -1.315  -9.092   1.456  0.00  0.00    -0.352 OA
ATOM     31  C22 <0> d          -2.094 -10.226   1.842  0.00  0.00     0.210 C 
ENDBRANCH  23  30
ENDBRANCH   2  19
TORSDOF 5
