REMARK  6 active torsions:
REMARK  status: ('A' for Active; 'I' for Inactive)
REMARK    1  A    between atoms: C4_4  and  N4_22 
REMARK    2  A    between atoms: C5_5  and  N2_8 
REMARK    3  A    between atoms: N2_8  and  C7_9 
REMARK    4  A    between atoms: C7_9  and  C8_10 
REMARK    5  A    between atoms: C8_10  and  N3_11 
REMARK    6  A    between atoms: N3_11  and  C9_12 
ROOT
ATOM      1  C7  <0> d           0.073  -4.801   1.431  0.00  0.00     0.141 C 
ENDROOT
BRANCH   1   2
ATOM      2  N2  <0> d           0.058  -4.121   0.134  0.00  0.00    -0.373 N 
ATOM      3  H6  <0> d           0.061  -4.640  -0.686  0.00  0.00     0.161 HD
BRANCH   2   4
ATOM      4  C5  <0> d           0.039  -2.729   0.077  0.00  0.00     0.127 A 
ATOM      5  C4  <0> d           0.025  -2.086  -1.163  0.00  0.00     0.070 A 
ATOM      6  C3  <0> d           0.006  -0.698  -1.201  0.00  0.00     0.041 A 
ATOM      7  C2  <0> d           0.002  -0.004   0.002  0.00  0.00    -0.044 A 
ATOM      8  C1  <0> d          -0.018   1.503   0.010  0.00  0.00     0.049 C 
ATOM      9  C6  <0> d           0.023  -0.707   1.189  0.00  0.00     0.096 A 
ATOM     10  N1  <0> d           0.035  -2.027   1.198  0.00  0.00    -0.350 N 
ATOM     11  H21 <0> d           0.045  -2.494   2.048  0.00  0.00     0.166 HD
BRANCH   5  12
ATOM     12  N4  <0> d           0.029  -2.829  -2.350  0.00  0.00    -0.396 N 
ATOM     13  H19 <0> d           0.018  -2.375  -3.207  0.00  0.00     0.156 HD
ATOM     14  H20 <0> d           0.042  -3.798  -2.315  0.00  0.00     0.156 HD
ENDBRANCH   5  12
ENDBRANCH   2   4
ENDBRANCH   1   2
BRANCH   1  15
ATOM     15  C8  <0> d           0.092  -6.315   1.213  0.00  0.00     0.139 C 
BRANCH  15  16
ATOM     16  N3  <0> d           0.107  -6.996   2.510  0.00  0.00    -0.388 N 
ATOM     17  H11 <0> d           0.105  -6.477   3.330  0.00  0.00     0.159 HD
BRANCH  16  18
ATOM     18  C9  <0> d           0.126  -8.388   2.567  0.00  0.00     0.039 A 
ATOM     19  C14 <0> d           0.141  -9.050   3.813  0.00  0.00     0.001 A 
ATOM     20  C13 <0> d           0.155 -10.466   3.846  0.00  0.00    -0.024 A 
ATOM     21  C15 <0> d           0.136  -8.332   5.019  0.00  0.00     0.014 A 
ATOM     22  C12 <0> d           0.164 -11.186   2.639  0.00  0.00     0.012 A 
ATOM     23  C18 <0> d           0.163 -11.125   5.088  0.00  0.00     0.012 A 
ATOM     24  C11 <0> d           0.155 -10.521   1.451  0.00  0.00     0.003 A 
ATOM     25  C10 <0> d           0.136  -9.131   1.405  0.00  0.00     0.030 A 
ATOM     26  C17 <0> d           0.170 -10.397   6.237  0.00  0.00     0.001 A 
ATOM     27  C16 <0> d           0.150  -9.004   6.203  0.00  0.00     0.001 A 
ENDBRANCH  16  18
ENDBRANCH  15  16
ENDBRANCH   1  15
TORSDOF 6
