REMARK  5 active torsions:
REMARK  status: ('A' for Active; 'I' for Inactive)
REMARK    1  A    between atoms: C2_2  and  C4_4 
REMARK    2  A    between atoms: C4_4  and  O1_5 
REMARK    3  A    between atoms: O1_5  and  C5_6 
REMARK    4  A    between atoms: C8_9  and  C12_14 
REMARK    5  A    between atoms: C10_11  and  O2_12 
ROOT
ATOM      1  C5  <0> d          -2.620  -2.590  -0.120  0.00  0.00     0.102 A 
ATOM      2  C6  <0> d          -3.791  -1.857  -0.015  0.00  0.00     0.040 A 
ATOM      3  C7  <0> d          -5.014  -2.502  -0.023  0.00  0.00     0.011 A 
ATOM      4  C8  <0> d          -5.072  -3.879  -0.135  0.00  0.00    -0.037 A 
ATOM      5  C9  <0> d          -3.907  -4.616  -0.240  0.00  0.00     0.048 A 
ATOM      6  C10 <0> d          -2.679  -3.975  -0.239  0.00  0.00     0.102 A 
ENDROOT
BRANCH   4   7
ATOM      7  C12 <0> d          -6.407  -4.577  -0.143  0.00  0.00     0.118 C 
ATOM      8  S1  <0> d          -7.233  -4.259   1.418  0.00  0.00    -0.145 SA
ATOM      9  C17 <0> d          -8.683  -5.322   1.441  0.00  0.00     0.178 C 
ATOM     10  C16 <0> d          -9.725  -4.905   0.482  0.00  0.00     0.232 C 
ATOM     11  N3  <0> d          -9.625  -4.437  -0.726  0.00  0.00    -0.309 N 
ATOM     12  O3  <0> d         -10.862  -5.019   0.888  0.00  0.00    -0.272 OA
ATOM     13  C15 <0> d          -8.568  -4.062  -1.534  0.00  0.00     0.159 A 
ATOM     14  H19 <0> d         -10.486  -4.325  -1.159  0.00  0.00     0.170 HD
ATOM     15  C13 <0> d          -7.189  -4.105  -1.328  0.00  0.00     0.025 A 
ATOM     16  N2  <0> d          -8.776  -3.558  -2.747  0.00  0.00    -0.156 NA
ATOM     17  C14 <0> d          -6.583  -3.616  -2.450  0.00  0.00     0.121 A 
ATOM     18  N1  <0> d          -7.541  -3.276  -3.329  0.00  0.00    -0.287 N 
ATOM     19  H2  <0> d          -7.398  -2.901  -4.213  0.00  0.00     0.188 HD
ENDBRANCH   4   7
BRANCH   6  20
ATOM     20  O2  <0> d          -1.533  -4.699  -0.348  0.00  0.00    -0.353 OA
ATOM     21  C11 <0> d          -1.669  -6.117  -0.466  0.00  0.00     0.210 C 
ENDBRANCH   6  20
BRANCH   1  22
ATOM     22  O1  <0> d          -1.417  -1.957  -0.112  0.00  0.00    -0.348 OA
BRANCH  22  23
ATOM     23  C4  <0> d          -1.433  -0.534   0.013  0.00  0.00     0.179 C 
BRANCH  23  24
ATOM     24  C2  <0> d           0.002  -0.004   0.002  0.00  0.00     0.002 C 
ATOM     25  C1  <0> d          -0.019   1.526   0.010  0.00  0.00     0.011 C 
ATOM     26  C3  <0> d           0.742  -0.511   1.242  0.00  0.00     0.011 C 
ENDBRANCH  23  24
ENDBRANCH  22  23
ENDBRANCH   1  22
TORSDOF 5
