REMARK  4 active torsions:
REMARK  status: ('A' for Active; 'I' for Inactive)
REMARK    1  A    between atoms: C7_7  and  N1_8 
REMARK    2  A    between atoms: N3_11  and  C10_14 
REMARK    3  A    between atoms: C10_14  and  N4_15 
REMARK    4  A    between atoms: C13_18  and  C16_21 
REMARK       I    between atoms: C16_21  and  N5_23 
ROOT
ATOM      1  N1  <0> d          -0.119   1.840   2.456  0.00  0.00    -0.273 N 
ATOM      2  C8  <0> d          -0.718   1.572   1.248  0.00  0.00     0.130 A 
ATOM      3  N2  <0> d          -1.986   1.811   1.349  0.00  0.00    -0.155 NA
ATOM      4  N3  <0> d          -2.247   2.241   2.657  0.00  0.00    -0.216 N 
ATOM      5  C9  <0> d          -1.071   2.252   3.318  0.00  0.00     0.204 A 
ATOM      6  S1  <0> d          -0.830   2.707   4.951  0.00  0.00    -0.038 SA
ATOM      7  C17 <0> d          -0.013   1.086   0.008  0.00  0.00     0.093 C 
ENDROOT
BRANCH   4   8
ATOM      8  C10 <0> d          -3.553   2.616   3.203  0.00  0.00     0.388 C 
BRANCH   8   9
ATOM      9  N4  <0> d          -3.780   4.051   2.991  0.00  0.00    -0.053 N 
ATOM     10  C15 <0> d          -5.166   4.418   3.308  0.00  0.00     0.237 C 
ATOM     11  C14 <0> d          -5.327   5.937   3.216  0.00  0.00     0.042 C 
ATOM     12  C13 <0> d          -4.968   6.399   1.801  0.00  0.00     0.081 C 
ATOM     13  C12 <0> d          -3.537   5.963   1.478  0.00  0.00     0.042 C 
ATOM     14  C11 <0> d          -3.428   4.443   1.620  0.00  0.00     0.237 C 
ATOM     15  H24 <0> d          -3.122   4.605   3.677  0.00  0.00     0.281 HD
BRANCH  12  16
ATOM     16  C16 <0> d          -5.067   7.901   1.721  0.00  0.00     0.219 C 
ATOM     17  O1  <0> d          -5.393   8.540   2.699  0.00  0.00    -0.273 OA
ATOM     18  N5  <0> d          -4.794   8.533   0.563  0.00  0.00    -0.370 N 
ATOM     19  H19 <0> d          -4.867   9.629   0.504  0.00  0.00     0.159 HD
ATOM     20  H20 <0> d          -4.499   7.953  -0.324  0.00  0.00     0.159 HD
ENDBRANCH  12  16
ENDBRANCH   8   9
ENDBRANCH   4   8
BRANCH   1  21
ATOM     21  C7  <0> d           1.246   1.707   2.743  0.00  0.00     0.049 A 
ATOM     22  C2  <0> d           1.740   0.506   3.234  0.00  0.00    -0.035 A 
ATOM     23  C1  <0> d           0.808  -0.657   3.459  0.00  0.00     0.050 C 
ATOM     24  C3  <0> d           3.087   0.376   3.511  0.00  0.00     0.009 A 
ATOM     25  C4  <0> d           3.941   1.445   3.310  0.00  0.00     0.001 A 
ATOM     26  C5  <0> d           3.451   2.644   2.826  0.00  0.00     0.002 A 
ATOM     27  C6  <0> d           2.107   2.778   2.542  0.00  0.00     0.031 A 
ENDBRANCH   1  21
TORSDOF 4
