REMARK  7 active torsions:
REMARK  status: ('A' for Active; 'I' for Inactive)
REMARK    1  A    between atoms: C9_10  and  C15_19 
REMARK    2  A    between atoms: N3_13  and  C11_14 
REMARK    3  A    between atoms: C11_14  and  C12_15 
REMARK    4  A    between atoms: C12_15  and  C13_16 
REMARK    5  A    between atoms: C13_16  and  O1_17 
REMARK       I    between atoms: C15_19  and  N4_21 
REMARK    6  A    between atoms: N4_21  and  C16_22 
REMARK    7  A    between atoms: C16_22  and  C17_23 
ROOT
ATOM      1  C1  <0> d          -0.797   7.814  -0.044  0.00  0.00     0.049 C 
ATOM      2  C2  <0> d          -0.870   6.309  -0.030  0.00  0.00    -0.046 A 
ATOM      3  C3  <0> d          -2.116   5.668  -0.009  0.00  0.00     0.012 A 
ATOM      4  C4  <0> d          -2.173   4.306   0.003  0.00  0.00     0.052 A 
ATOM      5  C5  <0> d          -0.980   3.562  -0.004  0.00  0.00     0.139 A 
ATOM      6  N1  <0> d          -1.048   2.230   0.003  0.00  0.00    -0.212 NA
ATOM      7  C6  <0> d           0.043   1.476   0.002  0.00  0.00     0.149 A 
ATOM      8  C7  <0> d           1.313   2.098  -0.018  0.00  0.00     0.080 A 
ATOM      9  C8  <0> d           2.486   1.331  -0.025  0.00  0.00     0.042 A 
ATOM     10  C9  <0> d           2.396  -0.055  -0.012  0.00  0.00     0.076 A 
ATOM     11  C10 <0> d           1.066  -0.683   0.009  0.00  0.00     0.118 A 
ATOM     12  N2  <0> d           0.955  -1.988   0.021  0.00  0.00    -0.384 N 
ATOM     13  N3  <0> d          -0.063   0.107   0.015  0.00  0.00    -0.316 N 
ATOM     14  C23 <0> d           1.377   3.515  -0.032  0.00  0.00     0.267 A 
ATOM     15  O3  <0> d           2.451   4.089  -0.050  0.00  0.00    -0.267 OA
ATOM     16  N5  <0> d           0.221   4.215  -0.024  0.00  0.00    -0.272 N 
ATOM     17  C24 <0> d           0.267   5.577  -0.037  0.00  0.00     0.108 A 
ATOM     18  H7  <0> d          -0.040  -2.455   0.036  0.00  0.00     0.157 HD
ATOM     19  H26 <0> d           1.858  -2.616   0.015  0.00  0.00     0.157 HD
ENDROOT
BRANCH  10  20
ATOM     20  C15 <0> d           3.609  -0.880  -0.019  0.00  0.00     0.255 C 
ATOM     21  O2  <0> d           3.521  -2.090  -0.113  0.00  0.00    -0.268 OA
ATOM     22  N4  <0> d           4.821  -0.298   0.080  0.00  0.00    -0.353 N 
ATOM     23  H17 <0> d           4.900   0.796   0.165  0.00  0.00     0.163 HD
BRANCH  22  24
ATOM     24  C16 <0> d           6.032  -1.122   0.073  0.00  0.00     0.161 C 
BRANCH  24  25
ATOM     25  C17 <0> d           7.244  -0.234   0.194  0.00  0.00    -0.041 A 
ATOM     26  C22 <0> d           7.746   0.084   1.442  0.00  0.00     0.009 A 
ATOM     27  C21 <0> d           8.858   0.898   1.553  0.00  0.00     0.001 A 
ATOM     28  C20 <0> d           9.467   1.394   0.416  0.00  0.00     0.000 A 
ATOM     29  C19 <0> d           8.965   1.076  -0.833  0.00  0.00     0.001 A 
ATOM     30  C18 <0> d           7.857   0.257  -0.944  0.00  0.00     0.009 A 
ENDBRANCH  24  25
ENDBRANCH  22  24
ENDBRANCH  10  20
BRANCH  13  31
ATOM     31  C11 <0> d          -1.388  -0.518   0.036  0.00  0.00     0.134 C 
BRANCH  31  32
ATOM     32  C12 <0> d          -1.865  -0.749  -1.399  0.00  0.00     0.046 C 
BRANCH  32  33
ATOM     33  C13 <0> d          -3.249  -1.402  -1.377  0.00  0.00     0.168 C 
BRANCH  33  34
ATOM     34  O1  <0> d          -3.695  -1.617  -2.718  0.00  0.00    -0.396 OA
ATOM     35  C14 <0> d          -4.984  -2.226  -2.811  0.00  0.00     0.201 C 
ENDBRANCH  33  34
ENDBRANCH  32  33
ENDBRANCH  31  32
ENDBRANCH  13  31
TORSDOF 7
