REMARK  7 active torsions:
REMARK  status: ('A' for Active; 'I' for Inactive)
REMARK    1  A    between atoms: C2_2  and  O1_3 
REMARK    2  A    between atoms: O1_3  and  C3_4 
REMARK    3  A    between atoms: C3_4  and  C4_6 
REMARK    4  A    between atoms: C7_10  and  N1_11 
REMARK       I    between atoms: N1_11  and  C8_12 
REMARK    5  A    between atoms: C8_12  and  C9_14 
REMARK    6  A    between atoms: C9_14  and  C10_15 
REMARK    7  A    between atoms: C13_18  and  N2_21 
ROOT
ATOM      1  C4  <0> d           1.449  -2.344  -2.516  0.00  0.00     0.080 A 
ATOM      2  C5  <0> d           2.869  -2.615  -2.533  0.00  0.00    -0.021 A 
ATOM      3  C6  <0> d           3.335  -3.111  -3.703  0.00  0.00     0.027 A 
ATOM      4  S1  <0> d           1.904  -3.216  -4.736  0.00  0.00    -0.073 SA
ATOM      5  C7  <0> d           0.742  -2.622  -3.680  0.00  0.00     0.094 A 
ATOM      6  C16 <0> d           4.751  -3.465  -4.014  0.00  0.00     0.153 C 
ATOM      7  N3  <0> d           5.609  -3.406  -2.832  0.00  0.00    -0.054 N 
ATOM      8  C17 <0> d           4.944  -3.475  -1.538  0.00  0.00     0.124 C 
ATOM      9  C18 <0> d           3.853  -2.407  -1.392  0.00  0.00     0.079 C 
ATOM     10  C19 <0> d           4.336  -4.860  -1.302  0.00  0.00     0.046 C 
ATOM     11  C20 <0> d           5.995  -3.227  -0.439  0.00  0.00     0.046 C 
ATOM     12  C21 <0> d           4.802  -4.866  -4.639  0.00  0.00     0.052 C 
ATOM     13  C22 <0> d           5.281  -2.462  -5.058  0.00  0.00     0.052 C 
ATOM     14  H13 <0> d           6.291  -4.165  -2.887  0.00  0.00     0.279 HD
ATOM     15  H28 <0> d           6.156  -2.544  -2.870  0.00  0.00     0.279 HD
ENDROOT
BRANCH   5  16
ATOM     16  N1  <0> d          -0.613  -2.447  -3.913  0.00  0.00    -0.320 N 
ATOM     17  C8  <0> d          -1.138  -2.772  -5.112  0.00  0.00     0.226 C 
ATOM     18  O3  <0> d          -0.425  -3.217  -5.986  0.00  0.00    -0.273 OA
ATOM     19  H6  <0> d          -1.184  -2.091  -3.215  0.00  0.00     0.169 HD
BRANCH  17  20
ATOM     20  C9  <0> d          -2.611  -2.581  -5.366  0.00  0.00     0.141 C 
BRANCH  20  21
ATOM     21  C10 <0> d          -2.939  -3.017  -6.771  0.00  0.00    -0.049 A 
ATOM     22  C15 <0> d          -3.301  -4.327  -7.021  0.00  0.00     0.010 A 
ATOM     23  C14 <0> d          -3.606  -4.725  -8.310  0.00  0.00     0.036 A 
ATOM     24  C13 <0> d          -3.541  -3.815  -9.348  0.00  0.00     0.102 A 
ATOM     25  C12 <0> d          -3.174  -2.506  -9.098  0.00  0.00     0.036 A 
ATOM     26  C11 <0> d          -2.873  -2.107  -7.809  0.00  0.00     0.010 A 
BRANCH  24  27
ATOM     27  N2  <0> d          -3.864  -4.243 -10.728  0.00  0.00    -0.116 N 
ATOM     28  O4  <0> d          -3.807  -3.447 -11.636  0.00  0.00    -0.532 OA
ATOM     29  O5  <0> d          -4.184  -5.388 -10.947  0.00  0.00    -0.532 OA
ENDBRANCH  24  27
ENDBRANCH  20  21
ENDBRANCH  17  20
ENDBRANCH   5  16
BRANCH   1  30
ATOM     30  C3  <0> d           0.776  -1.800  -1.335  0.00  0.00     0.296 C 
ATOM     31  O2  <0> d           0.312  -2.552  -0.499  0.00  0.00    -0.259 OA
BRANCH  30  32
ATOM     32  O1  <0> d           0.671  -0.465  -1.174  0.00  0.00    -0.318 OA
BRANCH  32  33
ATOM     33  C2  <0> d           0.002  -0.004   0.002  0.00  0.00     0.174 C 
ATOM     34  C1  <0> d          -0.019   1.526   0.010  0.00  0.00     0.034 C 
ENDBRANCH  32  33
ENDBRANCH  30  32
ENDBRANCH   1  30
TORSDOF 7
