REMARK  3 active torsions:
REMARK  status: ('A' for Active; 'I' for Inactive)
REMARK    1  A    between atoms: C4_4  and  N1_7 
REMARK    2  A    between atoms: C11_14  and  C25_28 
REMARK    3  A    between atoms: N2_29  and  O3_30 
ROOT
ATOM      1  N1  <0> d           3.626  -0.654  -0.103  0.00  0.00    -0.252 N 
ATOM      2  C7  <0> d           4.845  -0.026  -0.092  0.00  0.00     0.237 C 
ATOM      3  O1  <0> d           5.108   1.100   0.274  0.00  0.00    -0.272 OA
ATOM      4  C8  <0> d           5.798  -1.090  -0.655  0.00  0.00     0.106 C 
ATOM      5  C9  <0> d           5.155  -2.224   0.225  0.00  0.00     0.116 C 
ATOM      6  C10 <0> d           3.732  -2.025  -0.097  0.00  0.00     0.238 C 
ATOM      7  O2  <0> d           2.875  -2.857  -0.304  0.00  0.00    -0.272 OA
ATOM      8  C11 <0> d           5.957  -3.520   0.113  0.00  0.00     0.064 C 
ATOM      9  C12 <0> d           6.836  -3.106   1.343  0.00  0.00    -0.032 A 
ATOM     10  C13 <0> d           7.096  -3.932   2.387  0.00  0.00     0.009 A 
ATOM     11  C14 <0> d           7.811  -3.416   3.465  0.00  0.00     0.001 A 
ATOM     12  C15 <0> d           8.217  -2.095   3.448  0.00  0.00     0.001 A 
ATOM     13  C16 <0> d           7.966  -1.279   2.356  0.00  0.00     0.008 A 
ATOM     14  C17 <0> d           7.304  -1.807   1.267  0.00  0.00    -0.041 A 
ATOM     15  C18 <0> d           7.252  -1.008  -0.057  0.00  0.00     0.067 C 
ATOM     16  C19 <0> d           7.774  -2.122  -1.006  0.00  0.00    -0.041 A 
ATOM     17  C20 <0> d           7.052  -3.326  -0.966  0.00  0.00    -0.032 A 
ATOM     18  C21 <0> d           7.341  -4.334  -1.857  0.00  0.00     0.009 A 
ATOM     19  C22 <0> d           8.382  -4.153  -2.755  0.00  0.00     0.001 A 
ATOM     20  C23 <0> d           9.126  -2.988  -2.755  0.00  0.00     0.001 A 
ATOM     21  C24 <0> d           8.819  -1.938  -1.862  0.00  0.00     0.008 A 
ENDROOT
BRANCH   1  22
ATOM     22  C4  <0> d           2.402   0.029  -0.113  0.00  0.00     0.045 A 
ATOM     23  C3  <0> d           2.380   1.417  -0.119  0.00  0.00     0.030 A 
ATOM     24  C2  <0> d           1.172   2.087  -0.130  0.00  0.00     0.002 A 
ATOM     25  C1  <0> d          -0.014   1.377  -0.135  0.00  0.00     0.000 A 
ATOM     26  C6  <0> d           0.005  -0.006  -0.129  0.00  0.00     0.002 A 
ATOM     27  C5  <0> d           1.209  -0.682  -0.118  0.00  0.00     0.030 A 
ENDBRANCH   1  22
BRANCH   8  28
ATOM     28  C25 <0> d           5.203  -4.825   0.118  0.00  0.00     0.139 C 
ATOM     29  N2  <0> d           5.514  -5.739   0.958  0.00  0.00    -0.151 NA
BRANCH  29  30
ATOM     30  O3  <0> d           4.805  -6.965   0.963  0.00  0.00    -0.267 OA
ATOM     31  H18 <0> d           5.111  -7.594   1.631  0.00  0.00     0.247 HD
ENDBRANCH  29  30
ENDBRANCH   8  28
TORSDOF 3
