REMARK  6 active torsions:
REMARK  status: ('A' for Active; 'I' for Inactive)
REMARK    1  A    between atoms: C5_5  and  N3_18 
REMARK    2  A    between atoms: C7_7  and  S1_8 
REMARK    3  A    between atoms: S1_8  and  N1_11 
REMARK    4  A    between atoms: N1_11  and  C8_12 
REMARK    5  A    between atoms: C8_12  and  C9_13 
REMARK    6  A    between atoms: C9_13  and  N2_14 
REMARK       I    between atoms: N2_14  and  C10_15 
ROOT
ATOM      1  C1  <0> d          -2.127   3.578  -0.130  0.00  0.00     0.050 C 
ATOM      2  C2  <0> d          -0.696   3.114  -0.034  0.00  0.00    -0.039 A 
ATOM      3  C3  <0> d          -0.409   1.761  -0.018  0.00  0.00     0.010 A 
ATOM      4  C4  <0> d           0.901   1.333   0.075  0.00  0.00     0.031 A 
ATOM      5  C5  <0> d           1.931   2.263   0.142  0.00  0.00     0.054 A 
ATOM      6  C6  <0> d           1.639   3.620   0.122  0.00  0.00     0.056 A 
ATOM      7  C7  <0> d           0.327   4.042   0.034  0.00  0.00     0.087 A 
ENDROOT
BRANCH   7   8
ATOM      8  S1  <0> d          -0.044   5.764   0.008  0.00  0.00     0.259 S 
ATOM      9  O1  <0> d           1.196   6.449   0.118  0.00  0.00    -0.201 OA
ATOM     10  O2  <0> d          -0.934   5.971  -1.080  0.00  0.00    -0.201 OA
BRANCH   8  11
ATOM     11  N1  <0> d          -0.895   6.103   1.388  0.00  0.00    -0.314 N 
ATOM     12  H7  <0> d          -1.811   6.418   1.328  0.00  0.00     0.172 HD
BRANCH  11  13
ATOM     13  C8  <0> d          -0.266   5.926   2.699  0.00  0.00     0.152 C 
BRANCH  13  14
ATOM     14  C9  <0> d          -1.082   6.667   3.760  0.00  0.00     0.143 C 
BRANCH  14  15
ATOM     15  N2  <0> d          -0.452   6.491   5.071  0.00  0.00    -0.360 N 
ATOM     16  C10 <0> d          -1.000   7.059   6.163  0.00  0.00     0.213 C 
ATOM     17  O3  <0> d          -2.014   7.716   6.061  0.00  0.00    -0.274 OA
ATOM     18  C11 <0> d          -0.353   6.878   7.512  0.00  0.00     0.117 C 
ATOM     19  H12 <0> d           0.359   5.965   5.153  0.00  0.00     0.162 HD
ENDBRANCH  14  15
ENDBRANCH  13  14
ENDBRANCH  11  13
ENDBRANCH   8  11
ENDBRANCH   7   8
BRANCH   5  20
ATOM     20  N3  <0> d           3.259   1.832   0.232  0.00  0.00    -0.209 N 
ATOM     21  S2  <0> d           3.856   0.361  -0.300  0.00  0.00     0.240 S 
ATOM     22  C14 <0> d           5.504   0.384   0.515  0.00  0.00     0.173 C 
ATOM     23  O5  <0> d           3.016  -0.627   0.281  0.00  0.00    -0.205 OA
ATOM     24  O6  <0> d           3.984   0.485  -1.710  0.00  0.00    -0.205 OA
ATOM     25  C13 <0> d           5.648   1.914   0.731  0.00  0.00     0.121 C 
ATOM     26  C12 <0> d           4.281   2.527   0.753  0.00  0.00     0.238 C 
ATOM     27  O4  <0> d           4.102   3.626   1.235  0.00  0.00    -0.272 OA
ENDBRANCH   5  20
TORSDOF 6
