REMARK  5 active torsions:
REMARK  status: ('A' for Active; 'I' for Inactive)
REMARK    1  A    between atoms: N1_2  and  C2_3 
REMARK    2  A    between atoms: C2_3  and  C3_4 
REMARK    3  A    between atoms: C3_4  and  C4_5 
REMARK    4  A    between atoms: C4_5  and  C5_6 
REMARK    5  A    between atoms: C4_5  and  O3_17 
ROOT
ATOM      1  C5  <0> d           1.340  -4.004  -2.545  0.00  0.00    -0.027 A 
ATOM      2  C6  <0> d           2.197  -4.780  -1.787  0.00  0.00     0.012 A 
ATOM      3  C7  <0> d           2.124  -6.160  -1.846  0.00  0.00     0.040 A 
ATOM      4  C8  <0> d           1.186  -6.762  -2.668  0.00  0.00     0.102 A 
ATOM      5  C9  <0> d           0.326  -5.984  -3.429  0.00  0.00     0.102 A 
ATOM      6  C10 <0> d           0.399  -4.603  -3.363  0.00  0.00     0.049 A 
ATOM      7  O1  <0> d          -0.596  -6.587  -4.235  0.00  0.00    -0.348 OA
ATOM      8  C11 <0> d          -0.072  -7.295  -5.361  0.00  0.00     0.178 C 
ATOM      9  C12 <0> d           0.342  -8.704  -4.967  0.00  0.00     0.053 C 
ATOM     10  C13 <0> d           1.495  -8.713  -3.976  0.00  0.00     0.178 C 
ATOM     11  O2  <0> d           1.102  -8.123  -2.735  0.00  0.00    -0.348 OA
ENDROOT
BRANCH   1  12
ATOM     12  C4  <0> d           1.427  -2.501  -2.474  0.00  0.00     0.152 C 
BRANCH  12  13
ATOM     13  C3  <0> d           0.710  -2.008  -1.215  0.00  0.00     0.064 C 
BRANCH  13  14
ATOM     14  C2  <0> d           0.690  -0.478  -1.207  0.00  0.00     0.234 C 
BRANCH  14  15
ATOM     15  N1  <0> d           0.002  -0.004   0.002  0.00  0.00    -0.079 N 
ATOM     16  C1  <0> d          -0.018   1.465   0.010  0.00  0.00     0.266 C 
ATOM     17  H5  <0> d           0.490  -0.338   0.820  0.00  0.00     0.276 HD
ATOM     18  H20 <0> d          -0.945  -0.353   0.009  0.00  0.00     0.276 HD
ENDBRANCH  14  15
ENDBRANCH  13  14
ENDBRANCH  12  13
BRANCH  12  19
ATOM     19  O3  <0> d           2.799  -2.105  -2.428  0.00  0.00    -0.391 OA
ATOM     20  H19 <0> d           3.284  -2.454  -1.668  0.00  0.00     0.210 HD
ENDBRANCH  12  19
ENDBRANCH   1  12
TORSDOF 5
