REMARK  1 active torsions:
REMARK  status: ('A' for Active; 'I' for Inactive)
REMARK    1  A    between atoms: C8_10  and  C9_12 
ROOT
ATOM      1  C1  <0> d          -0.018   1.503   0.010  0.00  0.00     0.048 C 
ATOM      2  C2  <0> d           0.002  -0.004   0.002  0.00  0.00    -0.058 A 
ATOM      3  C3  <0> d           0.006  -0.682  -1.197  0.00  0.00     0.041 A 
ATOM      4  C4  <0> d           0.025  -2.077  -1.204  0.00  0.00     0.095 A 
ATOM      5  C5  <0> d           0.040  -2.778   0.012  0.00  0.00     0.123 A 
ATOM      6  C6  <0> d           0.036  -2.080   1.210  0.00  0.00     0.047 A 
ATOM      7  C7  <0> d           0.023  -0.699   1.202  0.00  0.00     0.028 A 
ATOM      8 Br1  <0> d           0.056  -3.017   2.853  0.00  0.00    -0.048 Br
ATOM      9  O1  <0> d           0.056  -4.090  -0.309  0.00  0.00    -0.292 OA
ATOM     10  C8  <0> d           0.051  -4.194  -1.647  0.00  0.00     0.151 A 
ATOM     11  N1  <0> d           0.033  -3.014  -2.190  0.00  0.00    -0.225 NA
ENDROOT
BRANCH  10  12
ATOM     12  C9  <0> d           0.066  -5.493  -2.410  0.00  0.00     0.066 C 
ATOM     13  C13 <0> d          -1.171  -6.317  -2.042  0.00  0.00     0.040 C 
ATOM     14  C12 <0> d          -1.110  -7.668  -2.759  0.00  0.00     0.233 C 
ATOM     15  N2  <0> d           0.101  -8.389  -2.348  0.00  0.00    -0.075 N 
ATOM     16  C11 <0> d           1.292  -7.639  -2.762  0.00  0.00     0.233 C 
ATOM     17  H11 <0> d           0.111  -9.301  -2.781  0.00  0.00     0.277 HD
ATOM     18  H16 <0> d           0.103  -8.496  -1.345  0.00  0.00     0.277 HD
ATOM     19  C10 <0> d           1.323  -6.288  -2.045  0.00  0.00     0.040 C 
ENDBRANCH  10  12
TORSDOF 1
