REMARK  3 active torsions:
REMARK  status: ('A' for Active; 'I' for Inactive)
REMARK    1  A    between atoms: C3_3  and  C7_9 
REMARK    2  A    between atoms: C7_9  and  N3_10 
REMARK       I    between atoms: N3_10  and  C8_11 
REMARK    3  A    between atoms: C8_11  and  C9_13 
ROOT
ATOM      1  N3  <0> d           0.196  -0.208   4.437  0.00  0.00    -0.351 N 
ATOM      2  C8  <0> d           0.225   0.078   3.120  0.00  0.00     0.273 C 
ATOM      3  O1  <0> d           0.959  -0.546   2.380  0.00  0.00    -0.266 OA
ATOM      4  H12 <0> d          -0.390   0.290   5.028  0.00  0.00     0.163 HD
ENDROOT
BRANCH   1   5
ATOM      5  C7  <0> d           1.049  -1.270   4.976  0.00  0.00     0.165 C 
BRANCH   5   6
ATOM      6  C3  <0> d           0.828  -1.387   6.462  0.00  0.00     0.009 A 
ATOM      7  C2  <0> d           1.535  -0.702   7.455  0.00  0.00     0.060 A 
ATOM      8  C1  <0> d           2.653   0.282   7.225  0.00  0.00     0.073 C 
ATOM      9  N2  <0> d           1.057  -1.061   8.619  0.00  0.00    -0.177 NA
ATOM     10  N1  <0> d           0.035  -1.995   8.403  0.00  0.00    -0.278 N 
ATOM     11  C4  <0> d          -0.086  -2.178   7.071  0.00  0.00     0.036 A 
ATOM     12  C5  <0> d          -0.761  -2.656   9.439  0.00  0.00     0.179 C 
ATOM     13  C6  <0> d          -1.064  -3.097   6.386  0.00  0.00     0.070 C 
ENDBRANCH   5   6
ENDBRANCH   1   5
BRANCH   2  14
ATOM     14  C9  <0> d          -0.638   1.153   2.575  0.00  0.00     0.160 A 
ATOM     15  N4  <0> d          -1.479   1.913   3.243  0.00  0.00    -0.122 NA
ATOM     16  O2  <0> d          -2.041   2.704   2.514  0.00  0.00    -0.217 OA
ATOM     17  C11 <0> d          -1.641   2.574   1.250  0.00  0.00     0.087 A 
ATOM     18  C10 <0> d          -0.727   1.576   1.234  0.00  0.00     0.010 A 
ATOM     19  C12 <0> d          -2.067   3.341   0.025  0.00  0.00     0.068 C 
ATOM     20  C15 <0> d          -0.013   1.086   0.008  0.00  0.00     0.044 C 
ATOM     21  C14 <0> d          -0.767   1.600  -1.226  0.00  0.00     0.005 C 
ATOM     22  C13 <0> d          -1.027   3.102  -1.078  0.00  0.00     0.007 C 
ENDBRANCH   2  14
TORSDOF 3
