REMARK  3 active torsions:
REMARK  status: ('A' for Active; 'I' for Inactive)
REMARK    1  A    between atoms: C3_3  and  C10_12 
REMARK    2  A    between atoms: C10_12  and  C11_13 
REMARK       I    between atoms: C11_13  and  N2_15 
REMARK    3  A    between atoms: N2_15  and  C12_16 
ROOT
ATOM      1  C10 <0> d          -4.934   4.923  -2.128  0.00  0.00     0.144 C 
ENDROOT
BRANCH   1   2
ATOM      2  C3  <0> d          -5.392   6.327  -1.829  0.00  0.00    -0.015 A 
ATOM      3  C2  <0> d          -6.247   6.700  -0.863  0.00  0.00     0.013 A 
ATOM      4  C1  <0> d          -6.913   5.763   0.111  0.00  0.00     0.068 C 
ATOM      5  N1  <0> d          -6.421   8.056  -0.892  0.00  0.00    -0.359 N 
ATOM      6  C9  <0> d          -5.670   8.603  -1.909  0.00  0.00     0.043 A 
ATOM      7  H1  <0> d          -7.087   8.541  -0.163  0.00  0.00     0.166 HD
ATOM      8  C4  <0> d          -4.993   7.544  -2.540  0.00  0.00    -0.001 A 
ATOM      9  C8  <0> d          -5.488   9.902  -2.373  0.00  0.00     0.030 A 
ATOM     10  C5  <0> d          -4.148   7.803  -3.621  0.00  0.00     0.014 A 
ATOM     11  C6  <0> d          -3.983   9.086  -4.060  0.00  0.00     0.001 A 
ATOM     12  C7  <0> d          -4.649  10.135  -3.441  0.00  0.00     0.002 A 
ENDBRANCH   1   2
BRANCH   1  13
ATOM     13  C11 <0> d          -3.690   4.620  -1.333  0.00  0.00     0.222 C 
ATOM     14  O1  <0> d          -3.221   5.462  -0.597  0.00  0.00    -0.273 OA
ATOM     15  N2  <0> d          -3.098   3.414  -1.442  0.00  0.00    -0.355 N 
ATOM     16  H12 <0> d          -3.523   2.651  -2.110  0.00  0.00     0.162 HD
BRANCH  15  17
ATOM     17  C12 <0> d          -1.889   3.120  -0.669  0.00  0.00     0.099 C 
ATOM     18  C15 <0> d          -1.066   2.010  -1.384  0.00  0.00     0.165 C 
ATOM     19  S1  <0> d          -0.017   1.417   0.010  0.00  0.00     0.146 S 
ATOM     20  C14 <0> d          -1.037   1.994   1.427  0.00  0.00     0.142 C 
ATOM     21  O2  <0> d           0.002  -0.004   0.002  0.00  0.00    -0.228 OA
ATOM     22  O3  <0> d           1.210   2.133   0.002  0.00  0.00    -0.228 OA
ATOM     23  C13 <0> d          -2.276   2.604   0.726  0.00  0.00     0.041 C 
ENDBRANCH  15  17
ENDBRANCH   1  13
TORSDOF 3
