REMARK  5 active torsions:
REMARK  status: ('A' for Active; 'I' for Inactive)
REMARK    1  A    between atoms: C4_5  and  N2_8 
REMARK    2  A    between atoms: C7_9  and  N3_10 
REMARK       I    between atoms: N3_10  and  C8_11 
REMARK    3  A    between atoms: C8_11  and  C9_13 
REMARK    4  A    between atoms: C13_18  and  S1_19 
REMARK    5  A    between atoms: S1_19  and  C14_20 
ROOT
ATOM      1  N3  <0> d           3.619  -4.591  -0.070  0.00  0.00    -0.307 N 
ATOM      2  C8  <0> d           4.545  -5.571  -0.084  0.00  0.00     0.260 C 
ATOM      3  O1  <0> d           4.198  -6.736  -0.089  0.00  0.00    -0.267 OA
ATOM      4  H23 <0> d           3.896  -3.662  -0.066  0.00  0.00     0.170 HD
ENDROOT
BRANCH   1   5
ATOM      5  C7  <0> d           2.263  -4.915  -0.062  0.00  0.00     0.128 A 
ATOM      6  N2  <0> d           1.228  -4.035  -0.048  0.00  0.00    -0.249 N 
ATOM      7  N5  <0> d           0.038  -4.775  -0.037  0.00  0.00    -0.183 NA
ATOM      8  C21 <0> d           0.342  -6.047  -0.054  0.00  0.00     0.142 A 
ATOM      9  C20 <0> d           1.734  -6.169  -0.066  0.00  0.00     0.071 A 
BRANCH   6  10
ATOM     10  C4  <0> d           1.337  -2.575  -0.040  0.00  0.00     0.115 C 
ATOM     11  C3  <0> d           0.639  -2.002  -1.277  0.00  0.00     0.055 C 
ATOM     12  C2  <0> d           0.687  -0.474  -1.221  0.00  0.00     0.236 C 
ATOM     13  N1  <0> d           0.003  -0.003  -0.010  0.00  0.00    -0.075 N 
ATOM     14  C1  <0> d          -0.016   1.466  -0.001  0.00  0.00     0.269 C 
ATOM     15  C6  <0> d           0.710  -0.489   1.181  0.00  0.00     0.236 C 
ATOM     16  H24 <0> d          -0.944  -0.351  -0.004  0.00  0.00     0.279 HD
ATOM     17  C5  <0> d           0.663  -2.018   1.218  0.00  0.00     0.055 C 
ENDBRANCH   6  10
ENDBRANCH   1   5
BRANCH   2  18
ATOM     18  C9  <0> d           5.979  -5.229  -0.093  0.00  0.00     0.068 A 
ATOM     19  C13 <0> d           6.955  -6.240  -0.107  0.00  0.00     0.113 A 
ATOM     20  N4  <0> d           8.243  -5.927  -0.120  0.00  0.00    -0.253 NA
ATOM     21  C12 <0> d           8.652  -4.674  -0.109  0.00  0.00     0.118 A 
ATOM     22  C11 <0> d           7.750  -3.624  -0.090  0.00  0.00     0.020 A 
ATOM     23  C10 <0> d           6.393  -3.892  -0.081  0.00  0.00     0.021 A 
BRANCH  19  24
ATOM     24  S1  <0> d           6.465  -7.933  -0.115  0.00  0.00    -0.070 SA
BRANCH  24  25
ATOM     25  C14 <0> d           7.981  -8.815  -0.286  0.00  0.00     0.007 A 
ATOM     26  C19 <0> d           8.519  -9.037  -1.547  0.00  0.00     0.019 A 
ATOM     27  C18 <0> d           9.710  -9.724  -1.677  0.00  0.00     0.001 A 
ATOM     28  C17 <0> d          10.361 -10.201  -0.553  0.00  0.00     0.000 A 
ATOM     29  C16 <0> d           9.825  -9.986   0.704  0.00  0.00     0.001 A 
ATOM     30  C15 <0> d           8.638  -9.295   0.841  0.00  0.00     0.019 A 
ENDBRANCH  24  25
ENDBRANCH  19  24
ENDBRANCH   2  18
TORSDOF 5
