REMARK  6 active torsions:
REMARK  status: ('A' for Active; 'I' for Inactive)
REMARK    1  A    between atoms: C4_4  and  C7_8 
REMARK    2  A    between atoms: C7_8  and  C8_9 
REMARK    3  A    between atoms: C7_8  and  O4_27 
REMARK    4  A    between atoms: C8_9  and  N1_30 
REMARK    5  A    between atoms: C15_16  and  O3_26 
REMARK    6  A    between atoms: C19_20  and  O2_24 
ROOT
ATOM      1  C9  <0> d          -0.807   1.986  -1.113  0.00  0.00     0.238 C 
ATOM      2  C10 <0> d          -0.928   3.507  -0.990  0.00  0.00     0.066 C 
ATOM      3  C11 <0> d           0.469   4.128  -0.986  0.00  0.00     0.073 C 
ATOM      4  C12 <0> d           1.289   3.531   0.159  0.00  0.00     0.066 C 
ATOM      5  C13 <0> d           1.346   2.010   0.000  0.00  0.00     0.238 C 
ATOM      6  C14 <0> d           0.354   5.645  -0.798  0.00  0.00     0.075 C 
ATOM      7  C15 <0> d          -0.561   6.198  -1.893  0.00  0.00     0.156 C 
ATOM      8  C16 <0> d          -0.139   5.650  -3.232  0.00  0.00     0.004 A 
ATOM      9  C17 <0> d          -0.571   6.293  -4.381  0.00  0.00     0.015 A 
ATOM     10  C18 <0> d          -0.208   5.820  -5.625  0.00  0.00     0.037 A 
ATOM     11  C19 <0> d           0.595   4.692  -5.730  0.00  0.00     0.070 A 
ATOM     12  C20 <0> d           1.030   4.047  -4.585  0.00  0.00     0.074 A 
ATOM     13  C21 <0> d           0.664   4.526  -3.332  0.00  0.00     0.081 A 
ATOM     14  O1  <0> d           1.117   3.871  -2.231  0.00  0.00    -0.339 OA
ATOM     15  N1  <0> d          -0.031   1.473   0.036  0.00  0.00    -0.068 N 
ATOM     16  H30 <0> d          -0.484   1.776   0.906  0.00  0.00     0.280 HD
ENDROOT
BRANCH   7  17
ATOM     17  O3  <0> d          -0.471   7.624  -1.913  0.00  0.00    -0.391 OA
ATOM     18  H28 <0> d          -1.027   8.044  -2.584  0.00  0.00     0.210 HD
ENDBRANCH   7  17
BRANCH  15  19
ATOM     19  C8  <0> d           0.002  -0.004   0.002  0.00  0.00     0.271 C 
BRANCH  19  20
ATOM     20  C7  <0> d          -1.409  -0.535   0.263  0.00  0.00     0.178 C 
BRANCH  20  21
ATOM     21  C4  <0> d          -1.389  -2.042   0.255  0.00  0.00    -0.014 A 
ATOM     22  C3  <0> d          -1.264  -2.748   1.437  0.00  0.00     0.025 A 
ATOM     23  C2  <0> d          -1.249  -4.103   1.394  0.00  0.00    -0.020 A 
ATOM     24  C1  <0> d          -1.126  -5.086   2.529  0.00  0.00     0.056 C 
ATOM     25  S1  <0> d          -1.414  -4.419  -0.355  0.00  0.00    -0.099 SA
ATOM     26  C5  <0> d          -1.497  -2.724  -0.911  0.00  0.00    -0.012 A 
ATOM     27  C6  <0> d          -1.648  -2.192  -2.312  0.00  0.00     0.057 C 
ENDBRANCH  20  21
BRANCH  20  28
ATOM     28  O4  <0> d          -1.864  -0.071   1.536  0.00  0.00    -0.389 OA
ATOM     29  H29 <0> d          -1.311  -0.353   2.278  0.00  0.00     0.210 HD
ENDBRANCH  20  28
ENDBRANCH  19  20
ENDBRANCH  15  19
BRANCH  11  30
ATOM     30  O2  <0> d           0.953   4.222  -6.954  0.00  0.00    -0.356 OA
ATOM     31  C22 <0> d           0.467   4.939  -8.091  0.00  0.00     0.210 C 
ENDBRANCH  11  30
TORSDOF 6
