REMARK  6 active torsions:
REMARK  status: ('A' for Active; 'I' for Inactive)
REMARK    1  A    between atoms: N1_4  and  C4_6 
REMARK    2  A    between atoms: C4_6  and  C5_7 
REMARK    3  A    between atoms: C5_7  and  C6_8 
REMARK    4  A    between atoms: C6_8  and  C7_9 
REMARK    5  A    between atoms: C6_8  and  N3_12 
REMARK    6  A    between atoms: N3_12  and  C8_13 
ROOT
ATOM      1  C6  <0> d           1.683  -4.016   1.145  0.00  0.00     0.287 C 
ENDROOT
BRANCH   1   2
ATOM      2  C5  <0> d           1.195  -2.566   1.158  0.00  0.00     0.066 C 
BRANCH   2   3
ATOM      3  C4  <0> d           1.805  -1.812  -0.025  0.00  0.00     0.153 C 
BRANCH   3   4
ATOM      4  N1  <0> d           1.338  -0.424  -0.013  0.00  0.00    -0.280 N 
ATOM      5  C3  <0> d           2.120   0.677  -0.015  0.00  0.00     0.137 A 
ATOM      6  C2  <0> d           1.307   1.760  -0.001  0.00  0.00     0.070 A 
ATOM      7  C1  <0> d          -0.016   1.304   0.009  0.00  0.00     0.164 A 
ATOM      8 Cl1  <0> d           1.817   3.419   0.003  0.00  0.00    -0.081 Cl
ATOM      9  N2  <0> d           0.002  -0.004   0.002  0.00  0.00    -0.184 NA
ENDBRANCH   3   4
ENDBRANCH   2   3
ENDBRANCH   1   2
BRANCH   1  10
ATOM     10  C7  <0> d           1.182  -4.726   2.377  0.00  0.00     0.204 C 
ATOM     11  O1  <0> d           0.325  -5.587   2.278  0.00  0.00    -0.646 OA
ATOM     12  O2  <0> d           1.634  -4.439   3.472  0.00  0.00    -0.646 OA
ENDBRANCH   1  10
BRANCH   1  13
ATOM     13  N3  <0> d           1.171  -4.695  -0.053  0.00  0.00    -0.057 N 
ATOM     14  H8  <0> d           0.165  -4.752  -0.003  0.00  0.00     0.278 HD
ATOM     15  H14 <0> d           1.438  -4.173  -0.875  0.00  0.00     0.278 HD
BRANCH  13  16
ATOM     16  C8  <0> d           1.735  -6.049  -0.128  0.00  0.00     0.187 A 
ATOM     17  C10 <0> d           1.232  -6.963  -1.247  0.00  0.00     0.035 A 
ATOM     18  C9  <0> d           2.641  -6.372  -1.318  0.00  0.00     0.035 A 
ENDBRANCH  13  16
ENDBRANCH   1  13
TORSDOF 6
