REMARK  3 active torsions:
REMARK  status: ('A' for Active; 'I' for Inactive)
REMARK    1  A    between atoms: N1_6  and  S1_8 
REMARK    2  A    between atoms: S1_8  and  N2_11 
REMARK    3  A    between atoms: C12_18  and  N3_21 
ROOT
ATOM      1  N2  <0> d           2.435  -3.360  -0.114  0.00  0.00    -0.257 N 
ATOM      2  C7  <0> d           1.798  -4.532  -0.706  0.00  0.00     0.154 C 
ATOM      3  C8  <0> d           2.891  -5.505  -1.174  0.00  0.00     0.100 C 
ATOM      4  S2  <0> d           3.813  -4.693  -2.514  0.00  0.00    -0.126 SA
ATOM      5  C9  <0> d           4.104  -3.072  -1.881  0.00  0.00     0.028 A 
ATOM      6  C10 <0> d           3.391  -2.594  -0.783  0.00  0.00     0.065 A 
ATOM      7  C11 <0> d           3.638  -1.305  -0.318  0.00  0.00     0.060 A 
ATOM      8  C12 <0> d           4.583  -0.504  -0.941  0.00  0.00     0.028 A 
ATOM      9  C13 <0> d           5.290  -0.985  -2.034  0.00  0.00     0.030 A 
ATOM     10  C14 <0> d           5.055  -2.269  -2.498  0.00  0.00     0.023 A 
ENDROOT
BRANCH   1  11
ATOM     11  S1  <0> d           1.999  -2.914   1.419  0.00  0.00     0.323 S 
ATOM     12  O1  <0> d           3.107  -2.216   1.970  0.00  0.00    -0.182 OA
ATOM     13  O2  <0> d           1.442  -4.067   2.035  0.00  0.00    -0.182 OA
BRANCH  11  14
ATOM     14  N1  <0> d           0.770  -1.813   1.278  0.00  0.00    -0.293 N 
ATOM     15  C5  <0> d          -0.601  -2.255   0.985  0.00  0.00     0.137 C 
ATOM     16  C4  <0> d          -1.113  -1.492  -0.241  0.00  0.00     0.021 C 
ATOM     17  C3  <0> d          -0.977   0.012   0.005  0.00  0.00     0.007 C 
ATOM     18  C2  <0> d           0.498   0.365   0.212  0.00  0.00     0.000 C 
ATOM     19  C1  <0> d           0.637   1.874   0.426  0.00  0.00     0.011 C 
ATOM     20  C6  <0> d           1.030  -0.376   1.443  0.00  0.00     0.141 C 
ENDBRANCH  11  14
ENDBRANCH   1  11
BRANCH   8  21
ATOM     21  N3  <0> d           4.823   0.791  -0.466  0.00  0.00    -0.399 N 
ATOM     22  H20 <0> d           4.329   1.127   0.298  0.00  0.00     0.156 HD
ATOM     23  H21 <0> d           5.484   1.352  -0.901  0.00  0.00     0.156 HD
ENDBRANCH   8  21
TORSDOF 3
