REMARK  2 active torsions:
REMARK  status: ('A' for Active; 'I' for Inactive)
REMARK    1  A    between atoms: C2_2  and  N1_3 
REMARK    2  A    between atoms: C5_7  and  C6_8 
ROOT
ATOM      1  N1  <0> d          -5.870   2.410   0.336  0.00  0.00    -0.265 N 
ATOM      2  C3  <0> d          -5.065   1.331   0.253  0.00  0.00     0.278 A 
ATOM      3  O1  <0> d          -5.406   0.163   0.274  0.00  0.00    -0.265 OA
ATOM      4  C4  <0> d          -3.697   1.848   0.132  0.00  0.00     0.106 A 
ATOM      5  C5  <0> d          -2.550   1.128   0.020  0.00  0.00     0.047 C 
ATOM      6  N2  <0> d          -3.827   3.246   0.162  0.00  0.00    -0.304 N 
ATOM      7  C10 <0> d          -5.136   3.532   0.279  0.00  0.00     0.330 A 
ATOM      8  O2  <0> d          -5.594   4.658   0.330  0.00  0.00    -0.246 OA
ATOM      9  H10 <0> d          -3.104   3.889   0.106  0.00  0.00     0.171 HD
ENDROOT
BRANCH   5  10
ATOM     10  C6  <0> d          -1.251   1.804   0.089  0.00  0.00    -0.027 A 
ATOM     11  C9  <0> d          -1.121   3.066   0.638  0.00  0.00     0.061 A 
ATOM     12  S1  <0> d           0.570   3.399   0.473  0.00  0.00    -0.113 SA
ATOM     13  C8  <0> d           1.095   1.885  -0.304  0.00  0.00     0.050 A 
ATOM     14  C7  <0> d          -0.049   1.181  -0.408  0.00  0.00     0.019 A 
ENDBRANCH   5  10
BRANCH   1  15
ATOM     15  C2  <0> d          -7.328   2.364   0.469  0.00  0.00     0.133 C 
ATOM     16  C1  <0> d          -7.704   2.335   1.952  0.00  0.00     0.027 C 
ENDBRANCH   1  15
TORSDOF 2
