REMARK  6 active torsions:
REMARK  status: ('A' for Active; 'I' for Inactive)
REMARK    1  A    between atoms: C4_4  and  S3_20 
REMARK    2  A    between atoms: C7_7  and  N1_8 
REMARK       I    between atoms: N1_8  and  C8_9 
REMARK    3  A    between atoms: C8_9  and  C9_11 
REMARK    4  A    between atoms: C9_11  and  S1_12 
REMARK    5  A    between atoms: S1_12  and  C10_13 
REMARK    6  A    between atoms: S3_20  and  C14_21 
ROOT
ATOM      1  C1  <0> d          -0.043   1.494   0.006  0.00  0.00     0.050 C 
ATOM      2  C2  <0> d           0.013  -0.011   0.003  0.00  0.00    -0.034 A 
ATOM      3  C3  <0> d           0.038  -0.698  -1.195  0.00  0.00     0.027 A 
ATOM      4  C4  <0> d           0.090  -2.086  -1.198  0.00  0.00     0.008 A 
ATOM      5  C5  <0> d           0.117  -2.783   0.004  0.00  0.00     0.021 A 
ATOM      6  C6  <0> d           0.093  -2.096   1.201  0.00  0.00     0.031 A 
ATOM      7  C7  <0> d           0.047  -0.708   1.204  0.00  0.00     0.040 A 
ENDROOT
BRANCH   7   8
ATOM      8  N1  <0> d           0.028  -0.010   2.418  0.00  0.00    -0.326 N 
ATOM      9  C8  <0> d          -0.452  -0.604   3.529  0.00  0.00     0.231 C 
ATOM     10  O1  <0> d          -0.800  -1.766   3.494  0.00  0.00    -0.272 OA
ATOM     11  H8  <0> d           0.360   0.900   2.460  0.00  0.00     0.169 HD
BRANCH   9  12
ATOM     12  C9  <0> d          -0.555   0.175   4.815  0.00  0.00     0.177 C 
BRANCH  12  13
ATOM     13  S1  <0> d          -1.232  -0.893   6.116  0.00  0.00    -0.154 SA
BRANCH  13  14
ATOM     14  C10 <0> d          -1.292   0.180   7.578  0.00  0.00     0.062 C 
ATOM     15  C13 <0> d          -1.716  -0.654   8.810  0.00  0.00     0.155 C 
ATOM     16  S2  <0> d          -2.638   0.567   9.828  0.00  0.00     0.145 S 
ATOM     17  C12 <0> d          -2.568   2.021   8.698  0.00  0.00     0.141 C 
ATOM     18  O2  <0> d          -3.988   0.141   9.950  0.00  0.00    -0.228 OA
ATOM     19  O3  <0> d          -1.888   0.856  11.000  0.00  0.00    -0.228 OA
ATOM     20  C11 <0> d          -2.305   1.312   7.339  0.00  0.00     0.031 C 
ENDBRANCH  13  14
ENDBRANCH  12  13
ENDBRANCH   9  12
ENDBRANCH   7   8
BRANCH   4  21
ATOM     21  S3  <0> d           0.121  -2.963  -2.726  0.00  0.00    -0.063 SA
BRANCH  21  22
ATOM     22  C14 <0> d           1.825  -2.983  -3.172  0.00  0.00     0.139 A 
ATOM     23  S4  <0> d           3.116  -2.226  -2.403  0.00  0.00    -0.073 SA
ATOM     24  C16 <0> d           4.413  -2.772  -3.502  0.00  0.00     0.079 A 
ATOM     25  C15 <0> d           3.700  -3.506  -4.390  0.00  0.00     0.039 A 
ATOM     26  N2  <0> d           2.397  -3.590  -4.191  0.00  0.00    -0.239 NA
ATOM     27  C17 <0> d           4.365  -4.197  -5.553  0.00  0.00     0.071 C 
ENDBRANCH  21  22
ENDBRANCH   4  21
TORSDOF 6
