REMARK  3 active torsions:
REMARK  status: ('A' for Active; 'I' for Inactive)
REMARK    1  A    between atoms: C6_6  and  C8_8 
REMARK    2  A    between atoms: C9_10  and  C10_13 
REMARK    3  A    between atoms: C13_16  and  C15_19 
ROOT
ATOM      1  C8  <0> d           0.054  -2.845   2.489  0.00  0.00     0.235 A 
ATOM      2  N1  <0> d           0.799  -4.106   2.340  0.00  0.00    -0.345 N 
ATOM      3  C9  <0> d           1.876  -4.036   3.223  0.00  0.00     0.174 A 
ATOM      4  N2  <0> d           1.885  -2.921   3.877  0.00  0.00    -0.157 NA
ATOM      5  N3  <0> d           0.808  -2.101   3.512  0.00  0.00    -0.284 N 
ATOM      6  H9  <0> d           0.583  -4.841   1.745  0.00  0.00     0.163 HD
ATOM      7  H10 <0> d           0.600  -1.220   3.862  0.00  0.00     0.185 HD
ENDROOT
BRANCH   3   8
ATOM      8  C10 <0> d           2.882  -5.105   3.391  0.00  0.00     0.103 A 
ATOM      9  N4  <0> d           2.788  -6.218   2.672  0.00  0.00    -0.256 NA
ATOM     10  C14 <0> d           3.667  -7.192   2.789  0.00  0.00     0.133 A 
ATOM     11  C13 <0> d           4.721  -7.094   3.679  0.00  0.00     0.065 A 
ATOM     12  C12 <0> d           4.856  -5.950   4.454  0.00  0.00     0.020 A 
ATOM     13  C11 <0> d           3.922  -4.940   4.308  0.00  0.00     0.036 A 
BRANCH  11  14
ATOM     14  C15 <0> d           5.716  -8.219   3.805  0.00  0.00     0.418 C 
ATOM     15  F1  <0> d           5.282  -9.117   4.786  0.00  0.00    -0.166 F 
ATOM     16  F2  <0> d           5.827  -8.884   2.579  0.00  0.00    -0.166 F 
ATOM     17  F3  <0> d           6.964  -7.699   4.168  0.00  0.00    -0.166 F 
ENDBRANCH  11  14
ENDBRANCH   3   8
BRANCH   1  18
ATOM     18  C6  <0> d           0.037  -2.084   1.188  0.00  0.00    -0.015 A 
ATOM     19  C5  <0> d           0.040  -2.768  -0.013  0.00  0.00     0.011 A 
ATOM     20  C4  <0> d           0.025  -2.071  -1.207  0.00  0.00     0.001 A 
ATOM     21  C3  <0> d           0.006  -0.689  -1.199  0.00  0.00     0.007 A 
ATOM     22  C2  <0> d           0.002  -0.004   0.002  0.00  0.00    -0.061 A 
ATOM     23  C1  <0> d          -0.018   1.503   0.010  0.00  0.00     0.048 C 
ATOM     24  C7  <0> d           0.023  -0.702   1.195  0.00  0.00     0.017 A 
ENDBRANCH   1  18
TORSDOF 3
