REMARK  4 active torsions:
REMARK  status: ('A' for Active; 'I' for Inactive)
REMARK    1  A    between atoms: C2_2  and  N1_3 
REMARK    2  A    between atoms: N2_6  and  C7_9 
REMARK    3  A    between atoms: C8_10  and  N3_16 
REMARK    4  A    between atoms: N3_16  and  C13_17 
REMARK       I    between atoms: N4_19  and  C14_20 
ROOT
ATOM      1  C7  <0> d          -4.450  -2.684  -1.825  0.00  0.00     0.079 A 
ATOM      2  C8  <0> d          -5.682  -3.110  -1.330  0.00  0.00     0.062 A 
ATOM      3  C9  <0> d          -6.348  -4.157  -1.949  0.00  0.00     0.032 A 
ATOM      4  C10 <0> d          -5.791  -4.775  -3.053  0.00  0.00     0.004 A 
ATOM      5  C11 <0> d          -4.570  -4.353  -3.544  0.00  0.00     0.026 A 
ATOM      6  C12 <0> d          -3.900  -3.306  -2.937  0.00  0.00     0.062 A 
ATOM      7 Cl1  <0> d          -2.370  -2.774  -3.562  0.00  0.00    -0.082 Cl
ENDROOT
BRANCH   1   8
ATOM      8  N2  <0> d          -3.772  -1.627  -1.204  0.00  0.00    -0.374 N 
ATOM      9  C4  <0> d          -3.998  -0.235  -1.621  0.00  0.00     0.150 C 
ATOM     10  C3  <0> d          -2.638   0.424  -1.874  0.00  0.00     0.254 C 
ATOM     11  N1  <0> d          -1.796   0.278  -0.680  0.00  0.00    -0.068 N 
ATOM     12  C6  <0> d          -1.509  -1.142  -0.441  0.00  0.00     0.254 C 
ATOM     13  H22 <0> d          -2.279   0.661   0.119  0.00  0.00     0.280 HD
ATOM     14  C5  <0> d          -2.813  -1.878  -0.117  0.00  0.00     0.150 C 
BRANCH  11  15
ATOM     15  C2  <0> d          -0.534   1.003  -0.881  0.00  0.00     0.230 C 
ATOM     16  C1  <0> d          -0.821   2.501  -1.006  0.00  0.00     0.034 C 
ENDBRANCH  11  15
ENDBRANCH   1   8
BRANCH   2  17
ATOM     17  N3  <0> d          -6.245  -2.483  -0.211  0.00  0.00    -0.331 N 
ATOM     18  H17 <0> d          -5.703  -2.318   0.577  0.00  0.00     0.168 HD
BRANCH  17  19
ATOM     19  C13 <0> d          -7.540  -2.109  -0.228  0.00  0.00     0.178 C 
ATOM     20  S1  <0> d          -8.525  -2.498  -1.573  0.00  0.00    -0.040 SA
ATOM     21  N4  <0> d          -8.059  -1.429   0.813  0.00  0.00    -0.304 N 
ATOM     22  C14 <0> d          -9.353  -1.055   0.796  0.00  0.00     0.219 C 
ATOM     23  H18 <0> d          -7.500  -1.208   1.575  0.00  0.00     0.171 HD
ATOM     24  O1  <0> d         -10.051  -1.330  -0.157  0.00  0.00    -0.274 OA
ATOM     25  C15 <0> d          -9.934  -0.294   1.960  0.00  0.00     0.117 C 
ENDBRANCH  17  19
ENDBRANCH   2  17
TORSDOF 4
