REMARK  4 active torsions:
REMARK  status: ('A' for Active; 'I' for Inactive)
REMARK    1  A    between atoms: C6_6  and  C9_9 
REMARK    2  A    between atoms: C9_9  and  N1_10 
REMARK       I    between atoms: N1_10  and  C10_11 
REMARK    3  A    between atoms: C10_11  and  C11_13 
REMARK       I    between atoms: N2_15  and  C19_23 
REMARK    4  A    between atoms: C19_23  and  C20_25 
ROOT
ATOM      1  C11 <0> d          -2.939  -3.590   4.767  0.00  0.00     0.106 C 
ATOM      2  C12 <0> d          -3.900  -4.261   3.760  0.00  0.00     0.141 C 
ATOM      3  N2  <0> d          -3.935  -5.685   4.169  0.00  0.00    -0.346 N 
ATOM      4  C13 <0> d          -3.937  -5.644   5.651  0.00  0.00     0.136 C 
ATOM      5  C14 <0> d          -2.969  -4.498   6.008  0.00  0.00    -0.007 C 
ATOM      6  C15 <0> d          -3.488  -3.725   7.216  0.00  0.00     0.039 C 
ATOM      7  C16 <0> d          -3.453  -4.631   8.450  0.00  0.00     0.233 C 
ATOM      8  N3  <0> d          -2.077  -5.085   8.688  0.00  0.00    -0.075 N 
ATOM      9  C17 <0> d          -1.619  -5.906   7.561  0.00  0.00     0.233 C 
ATOM     10  C18 <0> d          -1.576  -5.053   6.290  0.00  0.00     0.039 C 
ATOM     11  C19 <0> d          -3.960  -6.773   3.373  0.00  0.00     0.255 C 
ATOM     12  O2  <0> d          -3.856  -6.647   2.167  0.00  0.00    -0.267 OA
ATOM     13  H22 <0> d          -1.472  -4.283   8.786  0.00  0.00     0.277 HD
ATOM     14  H32 <0> d          -2.047  -5.631   9.535  0.00  0.00     0.277 HD
ENDROOT
BRANCH   1  15
ATOM     15  C10 <0> d          -1.545  -3.525   4.198  0.00  0.00     0.224 C 
ATOM     16  N1  <0> d          -0.721  -2.517   4.548  0.00  0.00    -0.356 N 
ATOM     17  H13 <0> d          -1.025  -1.834   5.166  0.00  0.00     0.162 HD
ATOM     18  O1  <0> d          -1.165  -4.379   3.425  0.00  0.00    -0.273 OA
BRANCH  16  19
ATOM     19  C9  <0> d           0.634  -2.454   3.995  0.00  0.00     0.161 C 
BRANCH  19  20
ATOM     20  C6  <0> d           1.344  -1.242   4.541  0.00  0.00    -0.034 A 
ATOM     21  C5  <0> d           1.439  -0.094   3.776  0.00  0.00     0.009 A 
ATOM     22  C4  <0> d           2.089   1.018   4.277  0.00  0.00     0.001 A 
ATOM     23  C3  <0> d           2.644   0.983   5.543  0.00  0.00     0.007 A 
ATOM     24  C2  <0> d           2.548  -0.164   6.308  0.00  0.00    -0.056 A 
ATOM     25  C1  <0> d           3.152  -0.203   7.688  0.00  0.00     0.049 C 
ATOM     26  C7  <0> d           1.902  -1.278   5.805  0.00  0.00    -0.048 A 
ATOM     27  C8  <0> d           1.803  -2.531   6.636  0.00  0.00     0.049 C 
ENDBRANCH  19  20
ENDBRANCH  16  19
ENDBRANCH   1  15
BRANCH  11  28
ATOM     28  C20 <0> d          -4.112  -8.110   3.961  0.00  0.00     0.050 A 
ATOM     29  C23 <0> d          -3.442  -9.273   3.375  0.00  0.00    -0.003 A 
ATOM     30  C22 <0> d          -3.704 -10.463   4.080  0.00  0.00     0.016 A 
ATOM     31  C24 <0> d          -2.602  -9.362   2.249  0.00  0.00     0.014 A 
ATOM     32  S1  <0> d          -4.778  -9.948   5.391  0.00  0.00    -0.100 SA
ATOM     33  C27 <0> d          -3.165 -11.672   3.694  0.00  0.00     0.019 A 
ATOM     34  C21 <0> d          -4.882  -8.307   5.063  0.00  0.00     0.068 A 
ATOM     35  C26 <0> d          -2.352 -11.730   2.579  0.00  0.00     0.001 A 
ATOM     36  C25 <0> d          -2.075 -10.571   1.869  0.00  0.00     0.001 A 
ENDBRANCH  11  28
TORSDOF 4
