REMARK  3 active torsions:
REMARK  status: ('A' for Active; 'I' for Inactive)
REMARK    1  A    between atoms: C5_6  and  C6_7 
REMARK       I    between atoms: C6_7  and  N2_9 
REMARK    2  A    between atoms: N2_9  and  C7_10 
REMARK    3  A    between atoms: C7_10  and  C8_11 
ROOT
ATOM      1  C6  <0> d           1.286  -0.730  -0.014  0.00  0.00     0.253 C 
ATOM      2  O1  <0> d           1.297  -1.946  -0.021  0.00  0.00    -0.268 OA
ATOM      3  N2  <0> d           2.447  -0.045  -0.022  0.00  0.00    -0.353 N 
ATOM      4  H4  <0> d           2.438   0.925  -0.016  0.00  0.00     0.163 HD
ENDROOT
BRANCH   1   5
ATOM      5  C5  <0> d           0.002  -0.004   0.002  0.00  0.00     0.047 A 
ATOM      6  C1  <0> d          -0.017   1.412   0.010  0.00  0.00     0.024 A 
ATOM      7  C2  <0> d          -1.215   2.055   0.019  0.00  0.00     0.075 A 
ATOM      8  C3  <0> d          -2.405   1.304   0.021  0.00  0.00     0.245 A 
ATOM      9  O3  <0> d          -3.482   1.876   0.029  0.00  0.00    -0.268 OA
ATOM     10  N1  <0> d          -2.364  -0.041   0.013  0.00  0.00    -0.333 N 
ATOM     11  H10 <0> d          -3.193  -0.544   0.015  0.00  0.00     0.168 HD
ATOM     12  C4  <0> d          -1.190  -0.700   0.004  0.00  0.00     0.108 A 
ENDBRANCH   1   5
BRANCH   3  13
ATOM     13  C7  <0> d           3.722  -0.766  -0.038  0.00  0.00     0.163 C 
BRANCH  13  14
ATOM     14  C8  <0> d           4.858   0.224  -0.043  0.00  0.00    -0.016 A 
ATOM     15  C11 <0> d           5.473   0.745   1.034  0.00  0.00     0.150 A 
ATOM     16  O2  <0> d           6.433   1.583   0.611  0.00  0.00    -0.334 OA
ATOM     17  C10 <0> d           6.439   1.615  -0.732  0.00  0.00     0.142 A 
ATOM     18  C9  <0> d           5.479   0.787  -1.181  0.00  0.00     0.035 A 
ENDBRANCH  13  14
ENDBRANCH   3  13
TORSDOF 3
