REMARK  9 active torsions:
REMARK  status: ('A' for Active; 'I' for Inactive)
REMARK    1  A    between atoms: C5_5  and  N1_8 
REMARK       I    between atoms: N1_8  and  C8_9 
REMARK    2  A    between atoms: C8_9  and  C9_11 
REMARK    3  A    between atoms: C10_14  and  C11_16 
REMARK    4  A    between atoms: C11_16  and  C12_17 
REMARK    5  A    between atoms: C12_17  and  C13_18 
REMARK    6  A    between atoms: C13_18  and  C14_19 
REMARK       I    between atoms: C14_19  and  N4_21 
REMARK    7  A    between atoms: N4_21  and  C15_22 
REMARK    8  A    between atoms: C15_22  and  C16_23 
REMARK    9  A    between atoms: C16_23  and  C17_24 
ROOT
ATOM      1  C12 <0> d          -0.565  -8.999   5.101  0.00  0.00     0.012 C 
ENDROOT
BRANCH   1   2
ATOM      2  C11 <0> d          -1.441  -8.531   3.938  0.00  0.00     0.040 C 
BRANCH   2   3
ATOM      3  C10 <0> d          -0.587  -8.404   2.675  0.00  0.00     0.194 C 
ATOM      4  N3  <0> d          -1.388  -7.919   1.528  0.00  0.00    -0.180 NA
ATOM      5  N2  <0> d          -0.989  -7.003   0.836  0.00  0.00    -0.171 NA
ATOM      6  C9  <0> d           0.309  -6.349   1.121  0.00  0.00     0.286 C 
ATOM      7  S1  <0> d           0.627  -7.016   2.816  0.00  0.00    -0.101 SA
BRANCH   6   8
ATOM      8  C8  <0> d           0.175  -4.848   1.138  0.00  0.00     0.259 C 
ATOM      9  N1  <0> d           0.059  -4.170  -0.021  0.00  0.00    -0.325 N 
ATOM     10  H10 <0> d          -0.017  -4.651  -0.860  0.00  0.00     0.169 HD
ATOM     11  O1  <0> d           0.173  -4.251   2.193  0.00  0.00    -0.270 OA
BRANCH   9  12
ATOM     12  C5  <0> d           0.046  -2.771  -0.014  0.00  0.00     0.034 A 
ATOM     13  C4  <0> d           0.791  -2.073   0.927  0.00  0.00     0.030 A 
ATOM     14  C3  <0> d           0.777  -0.692   0.931  0.00  0.00     0.009 A 
ATOM     15  C2  <0> d           0.022  -0.004  -0.001  0.00  0.00    -0.062 A 
ATOM     16  C1  <0> d           0.008   1.503   0.007  0.00  0.00     0.048 C 
ATOM     17  C7  <0> d          -0.726  -0.696  -0.936  0.00  0.00     0.009 A 
ATOM     18  C6  <0> d          -0.712  -2.077  -0.948  0.00  0.00     0.030 A 
ENDBRANCH   9  12
ENDBRANCH   6   8
ENDBRANCH   2   3
ENDBRANCH   1   2
BRANCH   1  19
ATOM     19  C13 <0> d          -1.419  -9.125   6.364  0.00  0.00     0.103 C 
BRANCH  19  20
ATOM     20  C14 <0> d          -0.556  -9.587   7.511  0.00  0.00     0.217 C 
ATOM     21  O2  <0> d           0.626  -9.794   7.334  0.00  0.00    -0.274 OA
ATOM     22  N4  <0> d          -1.098  -9.769   8.731  0.00  0.00    -0.361 N 
ATOM     23  H17 <0> d          -2.043  -9.603   8.872  0.00  0.00     0.162 HD
BRANCH  22  24
ATOM     24  C15 <0> d          -0.259 -10.218   9.845  0.00  0.00     0.127 C 
BRANCH  24  25
ATOM     25  C16 <0> d          -1.113 -10.344  11.108  0.00  0.00     0.056 C 
BRANCH  25  26
ATOM     26  C17 <0> d          -0.250 -10.805  12.254  0.00  0.00    -0.048 A 
ATOM     27  C24 <0> d           0.112 -12.232  12.604  0.00  0.00     0.155 A 
ATOM     28  N5  <0> d           0.968 -12.150  13.792  0.00  0.00    -0.385 N 
ATOM     29  C23 <0> d           1.103 -10.889  14.124  0.00  0.00     0.038 A 
ATOM     30  H27 <0> d           1.365 -12.904  14.256  0.00  0.00     0.160 HD
ATOM     31  C18 <0> d           0.353 -10.028  13.182  0.00  0.00    -0.004 A 
ATOM     32  C22 <0> d           1.814 -10.261  15.183  0.00  0.00     0.031 A 
ATOM     33  C19 <0> d           0.386  -8.576  13.393  0.00  0.00     0.037 A 
ATOM     34  C20 <0> d           1.095  -8.080  14.434  0.00  0.00     0.035 A 
ATOM     35  C21 <0> d           1.797  -8.917  15.313  0.00  0.00     0.026 A 
ATOM     36 Cl1  <0> d           1.136  -6.363  14.688  0.00  0.00    -0.084 Cl
ENDBRANCH  25  26
ENDBRANCH  24  25
ENDBRANCH  22  24
ENDBRANCH  19  20
ENDBRANCH   1  19
TORSDOF 9
