REMARK  5 active torsions:
REMARK  status: ('A' for Active; 'I' for Inactive)
REMARK    1  A    between atoms: C7_7  and  N1_8 
REMARK       I    between atoms: N1_8  and  C8_9 
REMARK    2  A    between atoms: C8_9  and  C9_11 
REMARK    3  A    between atoms: C9_11  and  N2_13 
REMARK    4  A    between atoms: C13_16  and  C16_19 
REMARK    5  A    between atoms: C16_19  and  C17_20 
REMARK       I    between atoms: C17_20  and  N3_22 
ROOT
ATOM      1  N2  <0> d           0.955   0.522   5.984  0.00  0.00    -0.059 N 
ATOM      2  C11 <0> d           2.062   1.460   5.764  0.00  0.00     0.236 C 
ATOM      3  C12 <0> d           3.067   1.345   6.912  0.00  0.00     0.032 C 
ATOM      4  C13 <0> d           2.367   1.681   8.232  0.00  0.00    -0.003 C 
ATOM      5  C14 <0> d           1.169   0.745   8.415  0.00  0.00     0.032 C 
ATOM      6  C15 <0> d           0.234   0.881   7.211  0.00  0.00     0.236 C 
ATOM      7  H32 <0> d           1.321  -0.414   6.072  0.00  0.00     0.280 HD
ENDROOT
BRANCH   1   8
ATOM      8  C9  <0> d           0.033   0.579   4.842  0.00  0.00     0.275 C 
ATOM      9  C10 <0> d          -1.148  -0.361   5.092  0.00  0.00     0.050 C 
BRANCH   8  10
ATOM     10  C8  <0> d           0.756   0.154   3.590  0.00  0.00     0.248 C 
ATOM     11  N1  <0> d           0.355   0.618   2.390  0.00  0.00    -0.354 N 
ATOM     12  H15 <0> d          -0.400   1.224   2.332  0.00  0.00     0.162 HD
ATOM     13  O1  <0> d           1.700  -0.604   3.663  0.00  0.00    -0.271 OA
BRANCH  11  14
ATOM     14  C7  <0> d           1.059   0.205   1.173  0.00  0.00     0.088 C 
ATOM     15  C2  <0> d           0.869   1.267   0.089  0.00  0.00     0.004 C 
ATOM     16  C1  <0> d           1.436   2.602   0.578  0.00  0.00     0.012 C 
ATOM     17  C3  <0> d          -0.622   1.427  -0.214  0.00  0.00     0.006 C 
ATOM     18  C4  <0> d          -1.189   0.093  -0.703  0.00  0.00     0.001 C 
ATOM     19  C5  <0> d          -0.999  -0.970   0.381  0.00  0.00     0.002 C 
ATOM     20  C6  <0> d           0.492  -1.130   0.684  0.00  0.00     0.025 C 
ENDBRANCH  11  14
ENDBRANCH   8  10
ENDBRANCH   1   8
BRANCH   4  21
ATOM     21  C16 <0> d           3.346   1.491   9.393  0.00  0.00     0.107 C 
BRANCH  21  22
ATOM     22  C17 <0> d           2.695   1.938  10.677  0.00  0.00     0.215 C 
ATOM     23  O2  <0> d           1.560   2.365  10.665  0.00  0.00    -0.274 OA
ATOM     24  N3  <0> d           3.373   1.862  11.839  0.00  0.00    -0.370 N 
ATOM     25  H30 <0> d           4.281   1.520  11.849  0.00  0.00     0.159 HD
ATOM     26  H31 <0> d           2.954   2.150  12.665  0.00  0.00     0.159 HD
ENDBRANCH  21  22
ENDBRANCH   4  21
TORSDOF 5
