REMARK  7 active torsions:
REMARK  status: ('A' for Active; 'I' for Inactive)
REMARK    1  A    between atoms: C5_5  and  C8_8 
REMARK    2  A    between atoms: C8_8  and  N1_9 
REMARK    3  A    between atoms: N1_9  and  C9_10 
REMARK    4  A    between atoms: N2_12  and  N3_13 
REMARK       I    between atoms: N3_13  and  C10_14 
REMARK    5  A    between atoms: C10_14  and  C11_16 
REMARK    6  A    between atoms: C14_19  and  O3_23 
REMARK    7  A    between atoms: C16_21  and  O2_22 
ROOT
ATOM      1  C9  <0> d          -0.016   1.344   0.009  0.00  0.00     0.186 C 
ATOM      2  S1  <0> d          -1.510   2.179   0.021  0.00  0.00    -0.040 SA
ATOM      3  N2  <0> d           1.142   2.033   0.002  0.00  0.00    -0.274 N 
ATOM      4  H11 <0> d           1.129   3.003   0.007  0.00  0.00     0.189 HD
ENDROOT
BRANCH   3   5
ATOM      5  N3  <0> d           2.364   1.349  -0.013  0.00  0.00    -0.264 N 
ATOM      6  C10 <0> d           3.522   2.039  -0.021  0.00  0.00     0.272 C 
ATOM      7  O1  <0> d           3.506   3.255  -0.014  0.00  0.00    -0.266 OA
ATOM      8  H12 <0> d           2.377   0.379  -0.019  0.00  0.00     0.190 HD
BRANCH   6   9
ATOM      9  C11 <0> d           4.808   1.320  -0.037  0.00  0.00     0.067 A 
ATOM     10  C16 <0> d           6.015   2.035  -0.050  0.00  0.00     0.084 A 
ATOM     11  C15 <0> d           7.218   1.351  -0.061  0.00  0.00     0.074 A 
ATOM     12  C14 <0> d           7.229  -0.035  -0.069  0.00  0.00     0.068 A 
ATOM     13  C13 <0> d           6.032  -0.746  -0.060  0.00  0.00     0.037 A 
ATOM     14  C12 <0> d           4.830  -0.078  -0.044  0.00  0.00     0.022 A 
BRANCH  10  15
ATOM     15  O2  <0> d           6.002   3.392  -0.048  0.00  0.00    -0.360 OA
ATOM     16  H16 <0> d           6.009   3.784   0.836  0.00  0.00     0.217 HD
ENDBRANCH  10  15
BRANCH  12  17
ATOM     17  O3  <0> d           8.411  -0.702  -0.084  0.00  0.00    -0.361 OA
ATOM     18  H17 <0> d           8.744  -0.891  -0.972  0.00  0.00     0.217 HD
ENDBRANCH  12  17
ENDBRANCH   6   9
ENDBRANCH   3   5
BRANCH   1  19
ATOM     19  N1  <0> d           0.002  -0.004   0.002  0.00  0.00    -0.362 N 
ATOM     20  H10 <0> d           0.849  -0.478  -0.009  0.00  0.00     0.162 HD
BRANCH  19  21
ATOM     21  C8  <0> d          -1.256  -0.754   0.010  0.00  0.00     0.160 C 
BRANCH  21  22
ATOM     22  C5  <0> d          -0.961  -2.232  -0.001  0.00  0.00    -0.041 A 
ATOM     23  C4  <0> d          -0.814  -2.916   1.191  0.00  0.00     0.009 A 
ATOM     24  C3  <0> d          -0.543  -4.271   1.181  0.00  0.00     0.007 A 
ATOM     25  C2  <0> d          -0.420  -4.943  -0.021  0.00  0.00    -0.062 A 
ATOM     26  C1  <0> d          -0.124  -6.420  -0.031  0.00  0.00     0.048 C 
ATOM     27  C7  <0> d          -0.567  -4.258  -1.213  0.00  0.00     0.007 A 
ATOM     28  C6  <0> d          -0.843  -2.904  -1.203  0.00  0.00     0.009 A 
ENDBRANCH  21  22
ENDBRANCH  19  21
ENDBRANCH   1  19
TORSDOF 7
