REMARK  7 active torsions:
REMARK  status: ('A' for Active; 'I' for Inactive)
REMARK    1  A    between atoms: C5_6  and  C9_10 
REMARK    2  A    between atoms: C9_10  and  C10_11 
REMARK    3  A    between atoms: C10_11  and  C11_12 
REMARK    4  A    between atoms: C10_11  and  N3_21 
REMARK       I    between atoms: C11_12  and  N2_14 
REMARK    5  A    between atoms: N2_14  and  C12_15 
REMARK    6  A    between atoms: N3_21  and  S1_22 
REMARK    7  A    between atoms: S1_22  and  C18_25 
ROOT
ATOM      1  C10 <0> d           5.120  -2.820   1.241  0.00  0.00     0.187 C 
ENDROOT
BRANCH   1   2
ATOM      2  C9  <0> d           3.608  -2.711   1.031  0.00  0.00     0.064 C 
BRANCH   2   3
ATOM      3  C5  <0> d           2.978  -4.101   1.133  0.00  0.00     0.108 A 
ATOM      4  N1  <0> d           3.415  -4.938   0.010  0.00  0.00    -0.381 N 
ATOM      5  C4  <0> d           2.360  -5.295  -0.681  0.00  0.00     0.038 A 
ATOM      6  H31 <0> d           4.332  -5.187  -0.187  0.00  0.00     0.160 HD
ATOM      7  C3  <0> d           2.219  -6.095  -1.849  0.00  0.00     0.030 A 
ATOM      8  C7  <0> d           1.135  -4.726  -0.077  0.00  0.00    -0.012 A 
ATOM      9  C2  <0> d           0.998  -6.319  -2.379  0.00  0.00     0.002 A 
ATOM     10  C1  <0> d          -0.176  -5.791  -1.825  0.00  0.00     0.001 A 
ATOM     11  C8  <0> d          -0.154  -5.018  -0.716  0.00  0.00     0.013 A 
ATOM     12  C6  <0> d           1.473  -4.003   1.015  0.00  0.00     0.012 A 
ENDBRANCH   2   3
ENDBRANCH   1   2
BRANCH   1  13
ATOM     13  C11 <0> d           5.396  -3.527   2.543  0.00  0.00     0.241 C 
ATOM     14  O1  <0> d           6.027  -4.563   2.548  0.00  0.00    -0.271 OA
ATOM     15  N2  <0> d           4.943  -3.008   3.701  0.00  0.00    -0.355 N 
ATOM     16  H10 <0> d           4.439  -2.179   3.697  0.00  0.00     0.162 HD
BRANCH  15  17
ATOM     17  C12 <0> d           5.212  -3.695   4.967  0.00  0.00     0.084 C 
ATOM     18  C17 <0> d           5.178  -2.684   6.114  0.00  0.00     0.025 C 
ATOM     19  C16 <0> d           5.458  -3.402   7.436  0.00  0.00     0.002 C 
ATOM     20  C15 <0> d           4.393  -4.475   7.670  0.00  0.00     0.000 C 
ATOM     21  C14 <0> d           4.428  -5.486   6.522  0.00  0.00     0.002 C 
ATOM     22  C13 <0> d           4.147  -4.768   5.201  0.00  0.00     0.025 C 
ENDBRANCH  15  17
ENDBRANCH   1  13
BRANCH   1  23
ATOM     23  N3  <0> d           5.713  -3.579   0.138  0.00  0.00    -0.301 N 
ATOM     24  H22 <0> d           5.756  -4.547   0.183  0.00  0.00     0.173 HD
BRANCH  23  25
ATOM     25  S1  <0> d           6.308  -2.785  -1.188  0.00  0.00     0.259 S 
ATOM     26  O2  <0> d           6.862  -3.777  -2.041  0.00  0.00    -0.201 OA
ATOM     27  O3  <0> d           5.290  -1.892  -1.618  0.00  0.00    -0.201 OA
BRANCH  25  28
ATOM     28  C18 <0> d           7.652  -1.787  -0.637  0.00  0.00     0.080 A 
ATOM     29  C23 <0> d           8.935  -2.304  -0.625  0.00  0.00     0.034 A 
ATOM     30  C22 <0> d           9.991  -1.522  -0.198  0.00  0.00    -0.029 A 
ATOM     31  C21 <0> d           9.762  -0.221   0.229  0.00  0.00     0.041 A 
ATOM     32  C24 <0> d          11.390  -2.080  -0.188  0.00  0.00     0.050 C 
ATOM     33  C20 <0> d           8.472   0.293   0.221  0.00  0.00     0.031 A 
ATOM     34  N4  <0> d          10.831   0.568   0.666  0.00  0.00    -0.327 N 
ATOM     35  C19 <0> d           7.421  -0.491  -0.212  0.00  0.00     0.027 A 
ATOM     36  C26 <0> d          12.096   0.242   0.344  0.00  0.00     0.222 C 
ATOM     37  H30 <0> d          10.659   1.356   1.205  0.00  0.00     0.169 HD
ATOM     38  C25 <0> d          12.387  -0.965  -0.507  0.00  0.00     0.108 C 
ATOM     39  O4  <0> d          13.012   0.928   0.743  0.00  0.00    -0.273 OA
ENDBRANCH  25  28
ENDBRANCH  23  25
ENDBRANCH   1  23
TORSDOF 7
