REMARK  4 active torsions:
REMARK  status: ('A' for Active; 'I' for Inactive)
REMARK    1  A    between atoms: N1_2  and  C2_3 
REMARK    2  A    between atoms: N1_2  and  S1_12 
REMARK    3  A    between atoms: C2_3  and  C3_4 
REMARK       I    between atoms: C3_4  and  N2_6 
REMARK    4  A    between atoms: S1_12  and  C8_15 
ROOT
ATOM      1  C1  <0> d          -0.018   1.461   0.010  0.00  0.00     0.163 C 
ATOM      2  N1  <0> d           0.002  -0.004   0.002  0.00  0.00    -0.302 N 
ENDROOT
BRANCH   2   3
ATOM      3  C2  <0> d           0.024  -0.743   1.267  0.00  0.00     0.237 C 
BRANCH   3   4
ATOM      4  C3  <0> d          -1.384  -0.909   1.776  0.00  0.00     0.238 C 
ATOM      5  O1  <0> d          -2.315  -0.455   1.145  0.00  0.00    -0.272 OA
ATOM      6  N2  <0> d          -1.610  -1.563   2.933  0.00  0.00    -0.347 N 
ATOM      7  C7  <0> d          -2.977  -1.736   3.448  0.00  0.00     0.155 C 
ATOM      8  C4  <0> d          -0.495  -2.116   3.717  0.00  0.00     0.155 C 
ATOM      9  C6  <0> d          -3.186  -3.224   3.768  0.00  0.00     0.289 C 
ATOM     10  N3  <0> d          -2.120  -3.681   4.670  0.00  0.00     0.086 N 
ATOM     11  C5  <0> d          -0.802  -3.585   4.029  0.00  0.00     0.289 C 
ATOM     12  H10 <0> d          -2.298  -4.620   4.994  0.00  0.00     0.316 HD
ENDBRANCH   3   4
ENDBRANCH   2   3
BRANCH   2  13
ATOM     13  S1  <0> d          -0.000  -0.824  -1.437  0.00  0.00     0.262 S 
ATOM     14  O2  <0> d          -0.531  -2.115  -1.167  0.00  0.00    -0.200 OA
ATOM     15  O3  <0> d          -0.572   0.049  -2.401  0.00  0.00    -0.200 OA
BRANCH  13  16
ATOM     16  C8  <0> d           1.682  -1.059  -1.905  0.00  0.00     0.105 A 
ATOM     17  C11 <0> d           2.468   0.004  -2.205  0.00  0.00     0.076 A 
ATOM     18  S2  <0> d           4.022  -0.783  -2.595  0.00  0.00    -0.073 SA
ATOM     19 Br1  <0> d           2.032   1.844  -2.206  0.00  0.00    -0.041 Br
ATOM     20  C10 <0> d           3.517  -2.477  -2.342  0.00  0.00     0.054 A 
ATOM     21  C9  <0> d           2.219  -2.332  -1.978  0.00  0.00     0.053 A 
ATOM     22 Br2  <0> d           4.530  -4.062  -2.532  0.00  0.00    -0.043 Br
ENDBRANCH  13  16
ENDBRANCH   2  13
TORSDOF 4
