REMARK  6 active torsions:
REMARK  status: ('A' for Active; 'I' for Inactive)
REMARK    1  A    between atoms: S1_2  and  C2_5 
REMARK    2  A    between atoms: C2_5  and  C3_6 
REMARK    3  A    between atoms: C3_6  and  C4_7 
REMARK    4  A    between atoms: C4_7  and  C5_8 
REMARK    5  A    between atoms: C4_7  and  N1_11 
REMARK       I    between atoms: N1_11  and  C6_12 
REMARK    6  A    between atoms: C6_12  and  C7_14 
ROOT
ATOM      1  N1  <0> d           3.105  -1.743  -2.915  0.00  0.00    -0.342 N 
ATOM      2  C6  <0> d           3.791  -1.445  -4.036  0.00  0.00     0.253 C 
ATOM      3  O5  <0> d           3.263  -1.574  -5.123  0.00  0.00    -0.268 OA
ATOM      4  H9  <0> d           3.527  -1.640  -2.047  0.00  0.00     0.163 HD
ENDROOT
BRANCH   1   5
ATOM      5  C4  <0> d           1.724  -2.223  -3.006  0.00  0.00     0.186 C 
BRANCH   5   6
ATOM      6  C3  <0> d           0.986  -1.902  -1.705  0.00  0.00     0.051 C 
BRANCH   6   7
ATOM      7  C2  <0> d           0.877  -0.385  -1.541  0.00  0.00     0.142 C 
BRANCH   7   8
ATOM      8  S1  <0> d           0.002  -0.004   0.002  0.00  0.00     0.140 S 
ATOM      9  C1  <0> d          -0.022   1.810   0.012  0.00  0.00     0.161 C 
ATOM     10  O1  <0> d           0.798  -0.449   1.092  0.00  0.00    -0.228 OA
ATOM     11  O2  <0> d          -1.335  -0.471  -0.113  0.00  0.00    -0.228 OA
ENDBRANCH   7   8
ENDBRANCH   6   7
ENDBRANCH   5   6
BRANCH   5  12
ATOM     12  C5  <0> d           1.724  -3.713  -3.229  0.00  0.00     0.196 C 
ATOM     13  O3  <0> d           0.816  -4.236  -3.854  0.00  0.00    -0.646 OA
ATOM     14  O4  <0> d           2.631  -4.396  -2.785  0.00  0.00    -0.646 OA
ENDBRANCH   5  12
ENDBRANCH   1   5
BRANCH   2  15
ATOM     15  C7  <0> d           5.184  -0.961  -3.944  0.00  0.00     0.050 A 
ATOM     16  C11 <0> d           5.802  -0.808  -2.702  0.00  0.00     0.133 A 
ATOM     17  N2  <0> d           7.045  -0.383  -2.620  0.00  0.00    -0.271 NA
ATOM     18  C10 <0> d           7.749  -0.075  -3.692  0.00  0.00     0.135 A 
ATOM     19  C9  <0> d           7.207  -0.193  -4.961  0.00  0.00     0.029 A 
ATOM     20  C8  <0> d           5.905  -0.642  -5.102  0.00  0.00     0.039 A 
ATOM     21 Br1  <0> d           8.234   0.253  -6.484  0.00  0.00    -0.050 Br
ENDBRANCH   2  15
TORSDOF 6
