REMARK  3 active torsions:
REMARK  status: ('A' for Active; 'I' for Inactive)
REMARK    1  A    between atoms: C6_6  and  C8_8 
REMARK       I    between atoms: C8_8  and  N1_10 
REMARK    2  A    between atoms: N1_10  and  C9_11 
REMARK    3  A    between atoms: N2_13  and  C10_14 
ROOT
ATOM      1  C9  <0> d          -2.349   1.179   0.020  0.00  0.00     0.180 C 
ATOM      2  S1  <0> d          -2.325  -0.532   0.010  0.00  0.00    -0.040 SA
ATOM      3  N2  <0> d          -3.525   1.837   0.029  0.00  0.00    -0.312 N 
ATOM      4  H9  <0> d          -3.538   2.807   0.034  0.00  0.00     0.170 HD
ENDROOT
BRANCH   1   5
ATOM      5  N1  <0> d          -1.191   1.869   0.018  0.00  0.00    -0.299 N 
ATOM      6  C8  <0> d          -0.014   1.211   0.009  0.00  0.00     0.257 C 
ATOM      7  O1  <0> d           0.002  -0.004   0.002  0.00  0.00    -0.267 OA
ATOM      8  H8  <0> d          -1.204   2.839   0.023  0.00  0.00     0.171 HD
BRANCH   6   9
ATOM      9  C6  <0> d           1.255   1.967   0.001  0.00  0.00     0.032 A 
ATOM     10  C5  <0> d           1.240   3.363   0.003  0.00  0.00     0.017 A 
ATOM     11  C4  <0> d           2.429   4.063   0.001  0.00  0.00     0.002 A 
ATOM     12  C3  <0> d           3.634   3.384  -0.014  0.00  0.00     0.007 A 
ATOM     13  C2  <0> d           3.657   2.001  -0.022  0.00  0.00    -0.061 A 
ATOM     14  C1  <0> d           4.975   1.270  -0.039  0.00  0.00     0.048 C 
ATOM     15  C7  <0> d           2.475   1.289  -0.015  0.00  0.00     0.023 A 
ENDBRANCH   6   9
ENDBRANCH   1   5
BRANCH   3  16
ATOM     16  C10 <0> d          -4.714   1.129   0.030  0.00  0.00     0.174 A 
ATOM     17  S2  <0> d          -6.389   1.751   0.049  0.00  0.00    -0.050 SA
ATOM     18  C16 <0> d          -7.213   0.177   0.038  0.00  0.00     0.037 A 
ATOM     19  C11 <0> d          -6.128  -0.730   0.028  0.00  0.00     0.078 A 
ATOM     20  C15 <0> d          -8.522  -0.234   0.043  0.00  0.00     0.029 A 
ATOM     21  N3  <0> d          -4.898  -0.171   0.025  0.00  0.00    -0.223 NA
ATOM     22  C12 <0> d          -6.462  -2.104   0.023  0.00  0.00     0.057 A 
ATOM     23  C13 <0> d          -7.774  -2.506   0.028  0.00  0.00     0.042 A 
ATOM     24  C14 <0> d          -8.814  -1.586   0.038  0.00  0.00    -0.039 A 
ATOM     25 Cl1  <0> d          -8.141  -4.202   0.021  0.00  0.00    -0.084 Cl
ATOM     26  C17 <0> d         -10.245  -2.056   0.044  0.00  0.00     0.050 C 
ENDBRANCH   3  16
TORSDOF 3
