REMARK  4 active torsions:
REMARK  status: ('A' for Active; 'I' for Inactive)
REMARK    1  A    between atoms: C3_4  and  C5_7 
REMARK    2  A    between atoms: C5_7  and  S1_8 
REMARK    3  A    between atoms: S1_8  and  C6_10 
REMARK    4  A    between atoms: C11_15  and  N3_16 
ROOT
ATOM      1  C6  <0> d           1.600  -5.186  -2.955  0.00  0.00     0.058 A 
ATOM      2  C7  <0> d           1.634  -5.051  -4.329  0.00  0.00     0.023 A 
ATOM      3  C8  <0> d           1.513  -6.166  -5.138  0.00  0.00     0.002 A 
ATOM      4  C9  <0> d           1.357  -7.420  -4.574  0.00  0.00     0.002 A 
ATOM      5  C10 <0> d           1.322  -7.561  -3.201  0.00  0.00     0.030 A 
ATOM      6  C11 <0> d           1.449  -6.444  -2.386  0.00  0.00     0.045 A 
ENDROOT
BRANCH   1   7
ATOM      7  S1  <0> d           1.754  -3.765  -1.925  0.00  0.00     0.056 S 
ATOM      8  O1  <0> d           2.341  -2.788  -2.774  0.00  0.00    -0.252 OA
BRANCH   7   9
ATOM      9  C5  <0> d           0.039  -3.298  -1.561  0.00  0.00     0.155 C 
BRANCH   9  10
ATOM     10  C3  <0> d           0.027  -2.079  -0.676  0.00  0.00    -0.010 A 
ATOM     11  C2  <0> d           0.008  -0.792  -1.094  0.00  0.00     0.121 A 
ATOM     12  N1  <0> d           0.002  -0.004   0.002  0.00  0.00    -0.285 N 
ATOM     13  C1  <0> d          -0.018   1.461   0.010  0.00  0.00     0.179 C 
ATOM     14  N2  <0> d           0.025  -0.834   1.130  0.00  0.00    -0.185 NA
ATOM     15  C4  <0> d           0.034  -2.078   0.723  0.00  0.00     0.148 A 
ENDBRANCH   9  10
ENDBRANCH   7   9
ENDBRANCH   1   7
BRANCH   6  16
ATOM     16  N3  <0> d           1.419  -6.584  -0.997  0.00  0.00    -0.398 N 
ATOM     17  H12 <0> d           1.504  -5.803  -0.428  0.00  0.00     0.156 HD
ATOM     18  H13 <0> d           1.313  -7.463  -0.600  0.00  0.00     0.156 HD
ENDBRANCH   6  16
TORSDOF 4
