REMARK  3 active torsions:
REMARK  status: ('A' for Active; 'I' for Inactive)
REMARK    1  A    between atoms: N1_4  and  C7_10 
REMARK    2  A    between atoms: C4_5  and  N3_9 
REMARK    3  A    between atoms: C7_10  and  C9_12 
ROOT
ATOM      1  C1  <0> d           0.920   0.731   1.119  0.00  0.00     0.052 C 
ATOM      2  C2  <0> d           0.603  -0.174  -0.044  0.00  0.00    -0.015 A 
ATOM      3  C3  <0> d           0.523  -1.513  -0.019  0.00  0.00     0.017 A 
ATOM      4  N1  <0> d           0.214  -1.973  -1.273  0.00  0.00    -0.329 N 
ATOM      5  C4  <0> d           0.089  -0.931  -2.135  0.00  0.00     0.123 A 
ATOM      6  C5  <0> d           0.317   0.241  -1.424  0.00  0.00     0.096 A 
ATOM      7  C6  <0> d           0.283   1.579  -1.933  0.00  0.00     0.104 C 
ATOM      8  N2  <0> d           0.256   2.640  -2.337  0.00  0.00    -0.191 NA
ATOM      9  C13 <0> d           0.739  -2.376   1.197  0.00  0.00     0.069 C 
ENDROOT
BRANCH   5  10
ATOM     10  N3  <0> d          -0.217  -1.020  -3.481  0.00  0.00    -0.384 N 
ATOM     11  H6  <0> d          -0.467  -1.874  -3.866  0.00  0.00     0.157 HD
ATOM     12  H7  <0> d          -0.181  -0.228  -4.040  0.00  0.00     0.157 HD
ENDBRANCH   5  10
BRANCH   4  13
ATOM     13  C7  <0> d           0.044  -3.383  -1.631  0.00  0.00     0.116 C 
ATOM     14  C8  <0> d           1.331  -4.148  -1.316  0.00  0.00     0.035 C 
BRANCH  13  15
ATOM     15  C9  <0> d          -1.113  -3.978  -0.826  0.00  0.00     0.144 C 
ATOM     16  O1  <0> d          -0.782  -4.013   0.571  0.00  0.00    -0.384 OA
ATOM     17  C12 <0> d          -1.319  -5.200   1.170  0.00  0.00     0.168 C 
ATOM     18  C11 <0> d          -2.021  -6.008   0.057  0.00  0.00     0.029 C 
ATOM     19  C10 <0> d          -1.344  -5.456  -1.228  0.00  0.00     0.036 C 
ENDBRANCH  13  15
ENDBRANCH   4  13
TORSDOF 3
