REMARK  7 active torsions:
REMARK  status: ('A' for Active; 'I' for Inactive)
REMARK    1  A    between atoms: C2_2  and  N1_4 
REMARK    2  A    between atoms: C6_7  and  C8_9 
REMARK    3  A    between atoms: C8_9  and  N2_10 
REMARK       I    between atoms: N2_10  and  C9_11 
REMARK    4  A    between atoms: C9_11  and  C10_13 
REMARK    5  A    between atoms: C10_13  and  C11_14 
REMARK    6  A    between atoms: C11_14  and  N3_15 
REMARK       I    between atoms: N3_15  and  C12_16 
REMARK    7  A    between atoms: C12_16  and  C13_18 
ROOT
ATOM      1  C10 <0> d          -6.257  -3.538  -4.342  0.00  0.00     0.122 C 
ENDROOT
BRANCH   1   2
ATOM      2  C9  <0> d          -5.089  -2.596  -4.199  0.00  0.00     0.219 C 
ATOM      3  N2  <0> d          -4.674  -2.218  -2.974  0.00  0.00    -0.361 N 
ATOM      4  H18 <0> d          -5.128  -2.552  -2.184  0.00  0.00     0.162 HD
ATOM      5  O1  <0> d          -4.522  -2.179  -5.187  0.00  0.00    -0.274 OA
BRANCH   3   6
ATOM      6  C8  <0> d          -3.539  -1.303  -2.835  0.00  0.00     0.128 C 
BRANCH   6   7
ATOM      7  C6  <0> d          -3.276  -1.037  -1.351  0.00  0.00     0.031 C 
ATOM      8  C5  <0> d          -2.796  -2.326  -0.653  0.00  0.00     0.035 C 
ATOM      9  C4  <0> d          -1.385  -1.992  -0.122  0.00  0.00     0.236 C 
ATOM     10  N1  <0> d          -1.376  -0.512   0.012  0.00  0.00    -0.067 N 
ATOM     11  C7  <0> d          -2.116  -0.033  -1.183  0.00  0.00     0.241 C 
ATOM     12  H29 <0> d          -1.850  -0.230   0.857  0.00  0.00     0.280 HD
BRANCH  10  13
ATOM     13  C2  <0> d           0.002  -0.004   0.002  0.00  0.00     0.180 C 
ATOM     14  C1  <0> d          -0.019   1.526   0.010  0.00  0.00     0.039 C 
ATOM     15  C3  <0> d           0.742  -0.511   1.242  0.00  0.00     0.039 C 
ENDBRANCH  10  13
ENDBRANCH   6   7
ENDBRANCH   3   6
ENDBRANCH   1   2
BRANCH   1  16
ATOM     16  C11 <0> d          -6.519  -3.803  -5.826  0.00  0.00     0.132 C 
BRANCH  16  17
ATOM     17  N3  <0> d          -7.655  -4.719  -5.965  0.00  0.00    -0.356 N 
ATOM     18  C12 <0> d          -8.069  -5.097  -7.190  0.00  0.00     0.253 C 
ATOM     19  O2  <0> d          -7.501  -4.678  -8.181  0.00  0.00    -0.268 OA
ATOM     20  H23 <0> d          -8.108  -5.052  -5.175  0.00  0.00     0.162 HD
BRANCH  18  21
ATOM     21  C13 <0> d          -9.208  -6.015  -7.329  0.00  0.00     0.059 A 
ATOM     22  C16 <0> d          -9.783  -6.523  -8.588  0.00  0.00     0.008 A 
ATOM     23  C15 <0> d         -10.844  -7.364  -8.214  0.00  0.00     0.043 A 
ATOM     24  C17 <0> d          -9.484  -6.333  -9.935  0.00  0.00     0.015 A 
ATOM     25  N4  <0> d         -10.912  -7.356  -6.837  0.00  0.00    -0.364 N 
ATOM     26  C20 <0> d         -11.588  -8.003  -9.201  0.00  0.00     0.030 A 
ATOM     27  C14 <0> d          -9.945  -6.560  -6.320  0.00  0.00     0.106 A 
ATOM     28  H1  <0> d         -11.560  -7.852  -6.312  0.00  0.00     0.165 HD
ATOM     29  C19 <0> d         -11.286  -7.799 -10.530  0.00  0.00     0.002 A 
ATOM     30  C18 <0> d         -10.235  -6.971 -10.897  0.00  0.00     0.001 A 
ENDBRANCH  18  21
ENDBRANCH  16  17
ENDBRANCH   1  16
TORSDOF 7
