REMARK  6 active torsions:
REMARK  status: ('A' for Active; 'I' for Inactive)
REMARK    1  A    between atoms: C7_7  and  C8_8 
REMARK    2  A    between atoms: C8_8  and  N1_10 
REMARK       I    between atoms: N1_10  and  C10_11 
REMARK    3  A    between atoms: C10_11  and  C11_13 
REMARK    4  A    between atoms: C11_13  and  N4_29 
REMARK    5  A    between atoms: C13_15  and  C14_16 
REMARK    6  A    between atoms: C13_15  and  N4_29 
ROOT
ATOM      1  C12 <0> d           4.368   0.548   2.632  0.00  0.00     0.270 C 
ATOM      2  N4  <0> d           4.616   0.239   1.208  0.00  0.00    -0.060 N 
ATOM      3  H25 <0> d           4.352  -0.736   1.027  0.00  0.00     0.280 HD
ENDROOT
BRANCH   2   4
ATOM      4  C11 <0> d           3.800   1.124   0.350  0.00  0.00     0.337 C 
BRANCH   4   5
ATOM      5  C10 <0> d           2.346   0.769   0.529  0.00  0.00     0.244 C 
ATOM      6  N1  <0> d           1.400   1.430  -0.167  0.00  0.00    -0.351 N 
ATOM      7  H13 <0> d           1.655   2.134  -0.784  0.00  0.00     0.163 HD
ATOM      8  O1  <0> d           2.028  -0.111   1.301  0.00  0.00    -0.272 OA
BRANCH   6   9
ATOM      9  C8  <0> d          -0.013   1.086   0.008  0.00  0.00     0.114 C 
ATOM     10  C9  <0> d          -0.878   2.307  -0.310  0.00  0.00     0.037 C 
BRANCH   9  11
ATOM     11  C7  <0> d          -0.374  -0.043  -0.923  0.00  0.00    -0.030 A 
ATOM     12  C2  <0> d          -1.474  -0.835  -0.655  0.00  0.00    -0.054 A 
ATOM     13  C1  <0> d          -2.313  -0.570   0.568  0.00  0.00     0.049 C 
ATOM     14  C3  <0> d          -1.805  -1.870  -1.510  0.00  0.00     0.007 A 
ATOM     15  C4  <0> d          -1.036  -2.112  -2.632  0.00  0.00     0.001 A 
ATOM     16  C5  <0> d           0.064  -1.320  -2.901  0.00  0.00     0.001 A 
ATOM     17  C6  <0> d           0.393  -0.282  -2.049  0.00  0.00     0.010 A 
ENDBRANCH   9  11
ENDBRANCH   6   9
ENDBRANCH   4   5
ENDBRANCH   2   4
BRANCH   2  18
ATOM     18  C13 <0> d           6.050   0.415   0.895  0.00  0.00     0.313 C 
BRANCH  18  19
ATOM     19  C14 <0> d           6.839  -0.646   1.619  0.00  0.00     0.133 A 
ATOM     20  N3  <0> d           6.196  -1.483   2.375  0.00  0.00    -0.233 NA
ATOM     21  C21 <0> d           6.838  -2.467   3.053  0.00  0.00     0.074 A 
ATOM     22  C16 <0> d           8.242  -2.574   2.939  0.00  0.00     0.061 A 
ATOM     23  C20 <0> d           6.147  -3.370   3.863  0.00  0.00     0.032 A 
ATOM     24  C15 <0> d           8.940  -1.606   2.079  0.00  0.00     0.259 A 
ATOM     25  C17 <0> d           8.925  -3.572   3.630  0.00  0.00     0.019 A 
ATOM     26  N2  <0> d           8.187  -0.674   1.451  0.00  0.00    -0.309 N 
ATOM     27  O2  <0> d          10.149  -1.643   1.938  0.00  0.00    -0.267 OA
ATOM     28  H2  <0> d           8.613  -0.019   0.876  0.00  0.00     0.170 HD
ATOM     29  C18 <0> d           8.220  -4.452   4.423  0.00  0.00     0.001 A 
ATOM     30  C19 <0> d           6.840  -4.350   4.537  0.00  0.00     0.002 A 
ENDBRANCH  18  19
ENDBRANCH   2  18
TORSDOF 6
