REMARK  6 active torsions:
REMARK  status: ('A' for Active; 'I' for Inactive)
REMARK    1  A    between atoms: C7_7  and  C11_14 
REMARK    2  A    between atoms: C11_14  and  C12_15 
REMARK    3  A    between atoms: C11_14  and  N6_29 
REMARK    4  A    between atoms: N5_19  and  C13_20 
REMARK    5  A    between atoms: C13_20  and  C14_21 
REMARK    6  A    between atoms: C14_21  and  O2_22 
ROOT
ATOM      1  C11 <0> d           1.688   3.140   0.002  0.00  0.00     0.299 C 
ENDROOT
BRANCH   1   2
ATOM      2  C7  <0> d           1.580   3.668   1.409  0.00  0.00     0.049 A 
ATOM      3  C6  <0> d           1.099   2.871   2.395  0.00  0.00     0.029 A 
ATOM      4  C5  <0> d           1.011   3.413   3.752  0.00  0.00    -0.009 A 
ATOM      5  C4  <0> d           0.528   2.637   4.811  0.00  0.00     0.014 A 
ATOM      6  C9  <0> d           1.417   4.740   3.985  0.00  0.00     0.045 A 
ATOM      7  C3  <0> d           0.454   3.174   6.065  0.00  0.00     0.007 A 
ATOM      8  C2  <0> d           0.855   4.483   6.298  0.00  0.00    -0.060 A 
ATOM      9  C1  <0> d           0.764   5.053   7.690  0.00  0.00     0.048 C 
ATOM     10  C10 <0> d           1.333   5.265   5.270  0.00  0.00     0.037 A 
ATOM     11  N1  <0> d           1.893   5.501   2.938  0.00  0.00    -0.322 N 
ATOM     12  C8  <0> d           1.975   4.993   1.695  0.00  0.00     0.254 A 
ATOM     13  H1  <0> d           2.181   6.444   3.104  0.00  0.00     0.169 HD
ATOM     14  O1  <0> d           2.401   5.694   0.794  0.00  0.00    -0.268 OA
ENDBRANCH   1   2
BRANCH   1  15
ATOM     15  C12 <0> d           1.194   1.717  -0.040  0.00  0.00     0.183 A 
ATOM     16  N5  <0> d           1.949   0.607  -0.134  0.00  0.00    -0.230 N 
ATOM     17  N4  <0> d           1.143  -0.401  -0.140  0.00  0.00    -0.044 NA
ATOM     18  N3  <0> d          -0.065   0.034  -0.054  0.00  0.00    -0.023 NA
ATOM     19  N2  <0> d          -0.054   1.320   0.008  0.00  0.00    -0.111 NA
BRANCH  16  20
ATOM     20  C13 <0> d           3.411   0.552  -0.216  0.00  0.00     0.180 C 
BRANCH  20  21
ATOM     21  C14 <0> d           3.842   0.603  -1.683  0.00  0.00     0.189 C 
BRANCH  21  22
ATOM     22  O2  <0> d           5.268   0.550  -1.763  0.00  0.00    -0.394 OA
ATOM     23  C15 <0> d           5.777   0.592  -3.097  0.00  0.00     0.201 C 
ENDBRANCH  21  22
ENDBRANCH  20  21
ENDBRANCH  16  20
ENDBRANCH   1  15
BRANCH   1  24
ATOM     24  N6  <0> d           0.884   3.996  -0.895  0.00  0.00    -0.056 N 
ATOM     25  C16 <0> d          -0.523   4.017  -0.444  0.00  0.00     0.236 C 
ATOM     26  C17 <0> d          -1.309   5.001  -1.314  0.00  0.00     0.028 C 
ATOM     27  C18 <0> d          -1.242   4.548  -2.775  0.00  0.00     0.003 C 
ATOM     28  C19 <0> d           0.224   4.458  -3.207  0.00  0.00     0.028 C 
ATOM     29  C20 <0> d           0.966   3.490  -2.282  0.00  0.00     0.236 C 
ATOM     30  H27 <0> d           1.258   4.952  -0.866  0.00  0.00     0.281 HD
ENDBRANCH   1  24
TORSDOF 6
