REMARK  4 active torsions:
REMARK  status: ('A' for Active; 'I' for Inactive)
REMARK    1  A    between atoms: C6_6  and  S1_14 
REMARK       I    between atoms: N1_10  and  C10_11 
REMARK    2  A    between atoms: S1_14  and  O4_17 
REMARK    3  A    between atoms: O4_17  and  C12_18 
REMARK    4  A    between atoms: C15_21  and  C18_24 
REMARK       I    between atoms: C18_24  and  N2_26 
ROOT
ATOM      1  S1  <0> d          -2.795   3.951   0.132  0.00  0.00     0.303 S 
ATOM      2  O2  <0> d          -3.734   3.045   0.696  0.00  0.00    -0.193 OA
ATOM      3  O3  <0> d          -2.544   5.233   0.692  0.00  0.00    -0.193 OA
ENDROOT
BRANCH   1   4
ATOM      4  C6  <0> d          -1.248   3.109   0.086  0.00  0.00     0.087 A 
ATOM      5  C5  <0> d          -0.068   3.829   0.066  0.00  0.00     0.035 A 
ATOM      6  C4  <0> d           1.146   3.171   0.030  0.00  0.00    -0.028 A 
ATOM      7  C3  <0> d           2.562   3.702   0.002  0.00  0.00     0.066 A 
ATOM      8  C9  <0> d           1.194   1.786   0.013  0.00  0.00     0.044 A 
ATOM      9  C2  <0> d           3.446   2.445  -0.034  0.00  0.00     0.093 A 
ATOM     10  C1  <0> d           4.289   2.425  -1.310  0.00  0.00     0.033 C 
ATOM     11  N1  <0> d           2.511   1.317  -0.024  0.00  0.00    -0.313 N 
ATOM     12  C10 <0> d           2.868   0.017  -0.047  0.00  0.00     0.220 C 
ATOM     13  O1  <0> d           2.018  -0.844  -0.136  0.00  0.00    -0.273 OA
ATOM     14  C11 <0> d           4.322  -0.366   0.038  0.00  0.00     0.117 C 
ATOM     15  C8  <0> d          -0.002   1.066   0.033  0.00  0.00     0.032 A 
ATOM     16  C7  <0> d          -1.211   1.727   0.064  0.00  0.00     0.028 A 
ENDBRANCH   1   4
BRANCH   1  17
ATOM     17  O4  <0> d          -3.225   4.182  -1.309  0.00  0.00    -0.229 OA
BRANCH  17  18
ATOM     18  C12 <0> d          -3.686   3.068  -1.933  0.00  0.00     0.089 A 
ATOM     19  C17 <0> d          -5.039   2.753  -1.878  0.00  0.00     0.039 A 
ATOM     20  C16 <0> d          -5.510   1.624  -2.510  0.00  0.00     0.020 A 
ATOM     21  C15 <0> d          -4.627   0.795  -3.207  0.00  0.00     0.032 A 
ATOM     22  C14 <0> d          -3.268   1.116  -3.260  0.00  0.00     0.020 A 
ATOM     23  C13 <0> d          -2.805   2.250  -2.630  0.00  0.00     0.039 A 
BRANCH  21  24
ATOM     24  C18 <0> d          -5.128  -0.417  -3.884  0.00  0.00     0.251 C 
ATOM     25  O5  <0> d          -6.311  -0.695  -3.837  0.00  0.00    -0.268 OA
ATOM     26  N2  <0> d          -4.275  -1.215  -4.556  0.00  0.00    -0.361 N 
ATOM     27  C19 <0> d          -4.773  -2.418  -5.229  0.00  0.00     0.149 C 
ATOM     28  H17 <0> d          -3.205  -0.964  -4.599  0.00  0.00     0.162 HD
ENDBRANCH  21  24
ENDBRANCH  17  18
ENDBRANCH   1  17
TORSDOF 4
