REMARK  4 active torsions:
REMARK  status: ('A' for Active; 'I' for Inactive)
REMARK    1  A    between atoms: C5_6  and  C6_7 
REMARK    2  A    between atoms: C6_7  and  C7_8 
REMARK    3  A    between atoms: C8_9  and  O3_23 
REMARK    4  A    between atoms: N3_13  and  C11_16 
ROOT
ATOM      1  C7  <0> d           2.395   1.620   0.183  0.00  0.00     0.087 A 
ATOM      2  C8  <0> d           1.168   2.286  -0.100  0.00  0.00     0.183 A 
ATOM      3  N2  <0> d           0.029   1.708   0.241  0.00  0.00    -0.168 NA
ATOM      4  C9  <0> d          -0.010   0.521   0.842  0.00  0.00     0.358 A 
ATOM      5  O1  <0> d          -1.096   0.048   1.127  0.00  0.00    -0.244 OA
ATOM      6  N3  <0> d           1.095  -0.179   1.147  0.00  0.00    -0.225 N 
ATOM      7  C10 <0> d           2.319   0.309   0.848  0.00  0.00     0.271 A 
ATOM      8  O2  <0> d           3.327  -0.317   1.120  0.00  0.00    -0.266 OA
ENDROOT
BRANCH   1   9
ATOM      9  C6  <0> d           3.622   2.189  -0.158  0.00  0.00     0.051 C 
BRANCH   9  10
ATOM     10  C5  <0> d           4.805   1.454   0.007  0.00  0.00     0.034 A 
ATOM     11  N1  <0> d           5.126   0.268  -0.623  0.00  0.00    -0.361 N 
ATOM     12  C1  <0> d           4.282  -0.444  -1.586  0.00  0.00     0.155 C 
ATOM     13  C2  <0> d           6.347  -0.125  -0.207  0.00  0.00     0.091 A 
ATOM     14  C3  <0> d           6.825   0.778   0.690  0.00  0.00     0.019 A 
ATOM     15  C4  <0> d           5.871   1.781   0.840  0.00  0.00     0.031 A 
ENDBRANCH   9  10
ENDBRANCH   1   9
BRANCH   2  16
ATOM     16  O3  <0> d           1.169   3.491  -0.708  0.00  0.00    -0.344 OA
ATOM     17  H12 <0> d           0.286   3.857  -0.855  0.00  0.00     0.219 HD
ENDBRANCH   2  16
BRANCH   6  18
ATOM     18  C11 <0> d           0.978  -1.424   1.781  0.00  0.00     0.086 A 
ATOM     19  C16 <0> d           0.972  -1.501   3.169  0.00  0.00     0.143 A 
ATOM     20  C15 <0> d           0.851  -2.731   3.791  0.00  0.00     0.044 A 
ATOM     21  F1  <0> d           1.078  -0.377   3.910  0.00  0.00    -0.204 F 
ATOM     22  C14 <0> d           0.747  -3.882   3.032  0.00  0.00     0.003 A 
ATOM     23  C13 <0> d           0.758  -3.808   1.651  0.00  0.00     0.002 A 
ATOM     24  C12 <0> d           0.874  -2.583   1.024  0.00  0.00     0.033 A 
ENDBRANCH   6  18
TORSDOF 4
