REMARK  6 active torsions:
REMARK  status: ('A' for Active; 'I' for Inactive)
REMARK    1  A    between atoms: C6_8  and  S1_13 
REMARK    2  A    between atoms: S1_13  and  N2_16 
REMARK    3  A    between atoms: N2_16  and  C10_17 
REMARK    4  A    between atoms: C10_17  and  C11_18 
REMARK    5  A    between atoms: C11_18  and  C12_19 
REMARK    6  A    between atoms: C11_18  and  N3_24 
ROOT
ATOM      1  S1  <0> d           0.176  -6.188   1.349  0.00  0.00     0.258 S 
ATOM      2  O3  <0> d          -0.485  -5.980   2.589  0.00  0.00    -0.201 OA
ATOM      3  O4  <0> d          -0.275  -7.139   0.395  0.00  0.00    -0.201 OA
ENDROOT
BRANCH   1   4
ATOM      4  C6  <0> d           0.209  -4.629   0.528  0.00  0.00     0.080 A 
ATOM      5  C5  <0> d           0.323  -4.580  -0.849  0.00  0.00     0.026 A 
ATOM      6  C4  <0> d           0.349  -3.362  -1.509  0.00  0.00     0.020 A 
ATOM      7  C3  <0> d           0.261  -2.185  -0.783  0.00  0.00     0.048 A 
ATOM      8  C2  <0> d           0.257  -0.750  -1.139  0.00  0.00     0.261 A 
ATOM      9  C8  <0> d           0.145  -2.235   0.621  0.00  0.00     0.049 A 
ATOM     10  N1  <0> d           0.146  -0.029  -0.009  0.00  0.00    -0.284 N 
ATOM     11  O1  <0> d           0.341  -0.298  -2.263  0.00  0.00    -0.267 OA
ATOM     12  C1  <0> d           0.108   1.435   0.040  0.00  0.00     0.163 C 
ATOM     13  C9  <0> d           0.080  -0.828   1.071  0.00  0.00     0.261 A 
ATOM     14  O2  <0> d          -0.020  -0.457   2.223  0.00  0.00    -0.267 OA
ATOM     15  C7  <0> d           0.120  -3.460   1.267  0.00  0.00     0.043 A 
ENDBRANCH   1   4
BRANCH   1  16
ATOM     16  N2  <0> d           1.743  -6.585   1.708  0.00  0.00    -0.313 N 
ATOM     17  H8  <0> d           2.156  -7.358   1.292  0.00  0.00     0.172 HD
BRANCH  16  18
ATOM     18  C10 <0> d           2.507  -5.768   2.655  0.00  0.00     0.172 C 
BRANCH  18  19
ATOM     19  C11 <0> d           3.763  -6.528   3.086  0.00  0.00     0.262 C 
BRANCH  19  20
ATOM     20  C12 <0> d           4.663  -6.728   1.893  0.00  0.00     0.085 A 
ATOM     21  O5  <0> d           5.496  -5.812   1.375  0.00  0.00    -0.325 OA
ATOM     22  C15 <0> d           6.142  -6.338   0.321  0.00  0.00     0.142 A 
ATOM     23  C14 <0> d           5.716  -7.603   0.151  0.00  0.00     0.027 A 
ATOM     24  C13 <0> d           4.763  -7.854   1.164  0.00  0.00     0.037 A 
ENDBRANCH  19  20
BRANCH  19  25
ATOM     25  N3  <0> d           4.476  -5.754   4.111  0.00  0.00    -0.067 N 
ATOM     26  C16 <0> d           3.628  -5.624   5.304  0.00  0.00     0.270 C 
ATOM     27  C17 <0> d           5.721  -6.445   4.469  0.00  0.00     0.270 C 
ATOM     28  H20 <0> d           4.692  -4.837   3.751  0.00  0.00     0.280 HD
ENDBRANCH  19  25
ENDBRANCH  18  19
ENDBRANCH  16  18
ENDBRANCH   1  16
TORSDOF 6
