REMARK  7 active torsions:
REMARK  status: ('A' for Active; 'I' for Inactive)
REMARK    1  A    between atoms: C2_2  and  C4_4 
REMARK    2  A    between atoms: C7_7  and  N1_10 
REMARK    3  A    between atoms: C10_11  and  N7_33 
REMARK    4  A    between atoms: C12_13  and  C21_27 
REMARK    5  A    between atoms: C13_15  and  N5_19 
REMARK    6  A    between atoms: N5_19  and  C15_20 
REMARK    7  A    between atoms: C15_20  and  C16_21 
ROOT
ATOM      1  N1  <0> d          -5.498  -1.969  -0.439  0.00  0.00    -0.238 N 
ATOM      2  C10 <0> d          -5.752  -3.283  -0.280  0.00  0.00     0.138 A 
ATOM      3  C11 <0> d          -7.010  -3.398   0.301  0.00  0.00     0.087 A 
ATOM      4  C12 <0> d          -7.840  -4.463   0.716  0.00  0.00     0.104 A 
ATOM      5  N2  <0> d          -9.020  -4.170   1.247  0.00  0.00    -0.061 NA
ATOM      6  C13 <0> d          -9.436  -2.917   1.398  0.00  0.00     0.725 A 
ATOM      7  N3  <0> d          -8.728  -1.866   1.040  0.00  0.00    -0.043 NA
ATOM      8  C14 <0> d          -7.510  -2.023   0.486  0.00  0.00     0.178 A 
ATOM      9  N4  <0> d          -6.575  -1.214   0.038  0.00  0.00    -0.274 N 
ATOM     10  H26 <0> d          -6.626  -0.245   0.036  0.00  0.00     0.189 HD
ENDROOT
BRANCH   1  11
ATOM     11  C7  <0> d          -4.327  -1.439  -0.993  0.00  0.00     0.058 A 
ATOM     12  C6  <0> d          -3.690  -0.368  -0.379  0.00  0.00     0.032 A 
ATOM     13  C5  <0> d          -2.534   0.153  -0.928  0.00  0.00     0.010 A 
ATOM     14  C4  <0> d          -2.011  -0.391  -2.087  0.00  0.00    -0.055 A 
ATOM     15  C9  <0> d          -2.646  -1.454  -2.703  0.00  0.00     0.010 A 
ATOM     16  C8  <0> d          -3.799  -1.982  -2.157  0.00  0.00     0.032 A 
BRANCH  14  17
ATOM     17  C2  <0> d          -0.750   0.180  -2.683  0.00  0.00     0.010 C 
ATOM     18  C1  <0> d          -0.970   1.654  -3.026  0.00  0.00     0.015 C 
ATOM     19  C3  <0> d           0.393   0.056  -1.673  0.00  0.00     0.015 C 
ENDBRANCH  14  17
ENDBRANCH   1  11
BRANCH   2  20
ATOM     20  N7  <0> d          -4.916  -4.326  -0.630  0.00  0.00    -0.383 N 
ATOM     21  H24 <0> d          -3.970  -4.164  -0.766  0.00  0.00     0.157 HD
ATOM     22  H25 <0> d          -5.276  -5.220  -0.741  0.00  0.00     0.157 HD
ENDBRANCH   2  20
BRANCH   4  23
ATOM     23  C21 <0> d          -7.404  -5.870   0.560  0.00  0.00    -0.006 A 
ATOM     24  C26 <0> d          -8.286  -6.824   0.052  0.00  0.00     0.014 A 
ATOM     25  C25 <0> d          -7.872  -8.132  -0.095  0.00  0.00     0.001 A 
ATOM     26  C24 <0> d          -6.590  -8.500   0.271  0.00  0.00     0.000 A 
ATOM     27  C23 <0> d          -5.713  -7.560   0.781  0.00  0.00     0.001 A 
ATOM     28  C22 <0> d          -6.112  -6.247   0.927  0.00  0.00     0.014 A 
ENDBRANCH   4  23
BRANCH   6  29
ATOM     29  N5  <0> d         -10.682  -2.705   1.962  0.00  0.00    -0.218 N 
ATOM     30  H12 <0> d         -11.225  -3.461   2.235  0.00  0.00     0.178 HD
BRANCH  29  31
ATOM     31  C15 <0> d         -11.180  -1.340   2.146  0.00  0.00     0.178 C 
BRANCH  31  32
ATOM     32  C16 <0> d         -12.548  -1.385   2.775  0.00  0.00    -0.022 A 
ATOM     33  C20 <0> d         -12.688  -1.371   4.149  0.00  0.00     0.124 A 
ATOM     34  N6  <0> d         -13.883  -1.404   4.707  0.00  0.00    -0.273 NA
ATOM     35  C19 <0> d         -14.984  -1.463   3.983  0.00  0.00     0.116 A 
ATOM     36  C18 <0> d         -14.922  -1.486   2.603  0.00  0.00     0.020 A 
ATOM     37  C17 <0> d         -13.684  -1.446   1.981  0.00  0.00     0.012 A 
ENDBRANCH  31  32
ENDBRANCH  29  31
ENDBRANCH   6  29
TORSDOF 7
