REMARK  5 active torsions:
REMARK  status: ('A' for Active; 'I' for Inactive)
REMARK    1  A    between atoms: C3_3  and  S1_9 
REMARK    2  A    between atoms: S1_9  and  N3_12 
REMARK    3  A    between atoms: N3_12  and  C6_13 
REMARK    4  A    between atoms: C6_13  and  C7_14 
REMARK    5  A    between atoms: C7_14  and  N4_16 
ROOT
ATOM      1  N3  <0> d           1.647  -0.172  -3.070  0.00  0.00    -0.313 N 
ATOM      2  H9  <0> d           1.948   0.717  -3.315  0.00  0.00     0.172 HD
ENDROOT
BRANCH   1   3
ATOM      3  S1  <0> d           0.156  -0.381  -2.379  0.00  0.00     0.264 S 
ATOM      4  O1  <0> d          -0.479  -1.432  -3.095  0.00  0.00    -0.200 OA
ATOM      5  O2  <0> d          -0.418   0.912  -2.255  0.00  0.00    -0.200 OA
BRANCH   3   6
ATOM      6  C3  <0> d           0.419  -0.975  -0.741  0.00  0.00     0.145 A 
ATOM      7  C2  <0> d           0.570  -0.188   0.405  0.00  0.00     0.077 A 
ATOM      8  C1  <0> d           0.536   1.318   0.454  0.00  0.00     0.074 C 
ATOM      9  N2  <0> d           0.750  -0.985   1.427  0.00  0.00    -0.175 NA
ATOM     10  N1  <0> d           0.712  -2.307   0.965  0.00  0.00    -0.261 N 
ATOM     11  C4  <0> d           0.511  -2.274  -0.369  0.00  0.00     0.147 A 
ATOM     12  C5  <0> d           0.867  -3.511   1.784  0.00  0.00     0.181 C 
ATOM     13 Cl1  <0> d           0.390  -3.651  -1.420  0.00  0.00    -0.061 Cl
ENDBRANCH   3   6
ENDBRANCH   1   3
BRANCH   1  14
ATOM     14  C6  <0> d           2.512  -1.331  -3.310  0.00  0.00     0.165 C 
BRANCH  14  15
ATOM     15  C7  <0> d           3.637  -0.936  -4.268  0.00  0.00     0.202 C 
ATOM     16  C8  <0> d           4.580  -2.126  -4.465  0.00  0.00     0.042 C 
BRANCH  15  17
ATOM     17  N4  <0> d           4.387   0.194  -3.704  0.00  0.00    -0.065 N 
ATOM     18  C13 <0> d           5.066  -0.235  -2.476  0.00  0.00     0.239 C 
ATOM     19  C12 <0> d           5.782   0.959  -1.841  0.00  0.00     0.007 C 
ATOM     20  C11 <0> d           6.813   1.513  -2.828  0.00  0.00     0.007 C 
ATOM     21  C14 <0> d           6.491   0.509  -0.561  0.00  0.00     0.011 C 
ATOM     22  C10 <0> d           6.104   1.889  -4.133  0.00  0.00     0.028 C 
ATOM     23  C9  <0> d           5.376   0.660  -4.683  0.00  0.00     0.235 C 
ATOM     24  H26 <0> d           3.749   0.946  -3.490  0.00  0.00     0.280 HD
ENDBRANCH  15  17
ENDBRANCH  14  15
ENDBRANCH   1  14
TORSDOF 5
