REMARK  3 active torsions:
REMARK  status: ('A' for Active; 'I' for Inactive)
REMARK    1  A    between atoms: N1_4  and  C6_8 
REMARK    2  A    between atoms: C6_8  and  N2_9 
REMARK    3  A    between atoms: C8_12  and  C11_17 
ROOT
ATOM      1  N2  <0> d          -0.721   1.571  -1.179  0.00  0.00    -0.240 N 
ATOM      2  C7  <0> d          -1.715   0.900  -1.794  0.00  0.00     0.258 A 
ATOM      3  O2  <0> d          -2.174  -0.177  -1.482  0.00  0.00    -0.270 OA
ATOM      4  C8  <0> d          -2.141   1.775  -2.957  0.00  0.00     0.116 A 
ATOM      5  N3  <0> d          -1.249   2.943  -2.856  0.00  0.00    -0.324 N 
ATOM      6  C9  <0> d          -0.458   2.732  -1.789  0.00  0.00     0.327 A 
ATOM      7  O3  <0> d           0.401   3.510  -1.421  0.00  0.00    -0.247 OA
ATOM      8  C10 <0> d          -3.603   2.200  -2.809  0.00  0.00     0.049 C 
ATOM      9  H13 <0> d          -1.329   3.760  -3.588  0.00  0.00     0.165 HD
ENDROOT
BRANCH   1  10
ATOM     10  C6  <0> d          -0.013   1.086   0.008  0.00  0.00     0.409 C 
BRANCH  10  11
ATOM     11  N1  <0> d          -0.700   1.560   1.217  0.00  0.00     0.110 N 
ATOM     12  C3  <0> d          -0.431   0.672   2.358  0.00  0.00     0.306 C 
ATOM     13  C2  <0> d          -1.213   1.168   3.578  0.00  0.00     0.145 C 
ATOM     14  C1  <0> d          -0.875   0.296   4.789  0.00  0.00     0.041 C 
ATOM     15  O1  <0> d          -0.852   2.525   3.850  0.00  0.00    -0.383 OA
ATOM     16  C5  <0> d          -1.101   3.417   2.760  0.00  0.00     0.198 C 
ATOM     17  C4  <0> d          -0.318   2.944   1.532  0.00  0.00     0.300 C 
ENDBRANCH  10  11
ENDBRANCH   1  10
BRANCH   4  18
ATOM     18  C11 <0> d          -1.926   1.046  -4.285  0.00  0.00     0.023 A 
ATOM     19  C13 <0> d          -2.206   1.825  -5.572  0.00  0.00     0.008 A 
ATOM     20  C12 <0> d          -0.764   1.510  -5.165  0.00  0.00     0.008 A 
ENDBRANCH   4  18
TORSDOF 3
