REMARK  7 active torsions:
REMARK  status: ('A' for Active; 'I' for Inactive)
REMARK    1  A    between atoms: C2_2  and  O1_3 
REMARK    2  A    between atoms: O1_3  and  C3_4 
REMARK    3  A    between atoms: C4_5  and  C8_10 
REMARK    4  A    between atoms: C8_10  and  N2_11 
REMARK       I    between atoms: N2_11  and  C9_12 
REMARK    5  A    between atoms: C9_12  and  C10_14 
REMARK       I    between atoms: C10_14  and  N3_16 
REMARK    6  A    between atoms: N3_16  and  C11_17 
REMARK    7  A    between atoms: C13_19  and  C18_24 
REMARK       I    between atoms: C18_24  and  N4_26 
ROOT
ATOM      1  C10 <0> d          -5.541   0.332  -2.950  0.00  0.00     0.314 C 
ATOM      2  O3  <0> d          -4.821  -0.011  -3.865  0.00  0.00    -0.262 OA
ATOM      3  N3  <0> d          -6.582   1.156  -3.183  0.00  0.00    -0.318 N 
ATOM      4  H12 <0> d          -7.204   1.366  -2.469  0.00  0.00     0.169 HD
ENDROOT
BRANCH   1   5
ATOM      5  C9  <0> d          -5.274  -0.160  -1.565  0.00  0.00     0.309 C 
ATOM      6  N2  <0> d          -4.233  -0.984  -1.332  0.00  0.00    -0.349 N 
ATOM      7  H11 <0> d          -3.658  -1.257  -2.063  0.00  0.00     0.163 HD
ATOM      8  O2  <0> d          -5.993   0.183  -0.650  0.00  0.00    -0.262 OA
BRANCH   6   9
ATOM      9  C8  <0> d          -3.971  -1.466   0.027  0.00  0.00     0.166 C 
BRANCH   9  10
ATOM     10  C4  <0> d          -2.761  -2.364   0.016  0.00  0.00     0.012 A 
ATOM     11  C3  <0> d          -1.482  -1.822   0.003  0.00  0.00     0.172 A 
ATOM     12  N1  <0> d          -0.417  -2.607  -0.011  0.00  0.00    -0.237 NA
ATOM     13  C7  <0> d          -0.527  -3.922  -0.003  0.00  0.00     0.119 A 
ATOM     14  C6  <0> d          -1.767  -4.529   0.010  0.00  0.00     0.020 A 
ATOM     15  C5  <0> d          -2.909  -3.740   0.019  0.00  0.00     0.014 A 
BRANCH  11  16
ATOM     16  O1  <0> d          -1.323  -0.474  -0.001  0.00  0.00    -0.334 OA
BRANCH  16  17
ATOM     17  C2  <0> d           0.017   0.021  -0.021  0.00  0.00     0.173 C 
ATOM     18  C1  <0> d          -0.004   1.551  -0.023  0.00  0.00     0.034 C 
ENDBRANCH  16  17
ENDBRANCH  11  16
ENDBRANCH   9  10
ENDBRANCH   6   9
ENDBRANCH   1   5
BRANCH   3  19
ATOM     19  C11 <0> d          -6.765   1.708  -4.454  0.00  0.00     0.042 A 
ATOM     20  C16 <0> d          -8.033   2.102  -4.865  0.00  0.00    -0.035 A 
ATOM     21  C15 <0> d          -8.218   2.652  -6.119  0.00  0.00     0.010 A 
ATOM     22  C17 <0> d          -9.209   1.933  -3.938  0.00  0.00     0.050 C 
ATOM     23  C14 <0> d          -7.147   2.805  -6.976  0.00  0.00     0.017 A 
ATOM     24  C13 <0> d          -5.870   2.408  -6.575  0.00  0.00     0.034 A 
ATOM     25  C12 <0> d          -5.682   1.857  -5.308  0.00  0.00     0.047 A 
BRANCH  24  26
ATOM     26  C18 <0> d          -4.721   2.571  -7.491  0.00  0.00     0.251 C 
ATOM     27  O4  <0> d          -3.610   2.224  -7.140  0.00  0.00    -0.268 OA
ATOM     28  N4  <0> d          -4.906   3.103  -8.716  0.00  0.00    -0.361 N 
ATOM     29  C19 <0> d          -3.767   3.265  -9.623  0.00  0.00     0.149 C 
ATOM     30  H19 <0> d          -5.792   3.380  -8.996  0.00  0.00     0.162 HD
ENDBRANCH  24  26
ENDBRANCH   3  19
TORSDOF 7
