REMARK  7 active torsions:
REMARK  status: ('A' for Active; 'I' for Inactive)
REMARK    1  A    between atoms: C4_4  and  C7_7 
REMARK    2  A    between atoms: C10_10  and  C13_13 
REMARK       I    between atoms: C13_13  and  N1_15 
REMARK    3  A    between atoms: N1_15  and  N2_16 
REMARK       I    between atoms: N2_16  and  C14_17 
REMARK    4  A    between atoms: C14_17  and  C15_19 
REMARK    5  A    between atoms: C18_22  and  N3_25 
REMARK    6  A    between atoms: N3_25  and  S1_26 
REMARK    7  A    between atoms: S1_26  and  C21_29 
ROOT
ATOM      1  N2  <0> d           2.868   4.123  -0.205  0.00  0.00    -0.263 N 
ATOM      2  C14 <0> d           1.655   3.539  -0.135  0.00  0.00     0.270 C 
ATOM      3  O2  <0> d           0.652   4.225  -0.097  0.00  0.00    -0.266 OA
ATOM      4  H11 <0> d           3.669   3.576  -0.235  0.00  0.00     0.190 HD
ENDROOT
BRANCH   1   5
ATOM      5  N1  <0> d           2.973   5.520  -0.234  0.00  0.00    -0.263 N 
ATOM      6  C13 <0> d           4.186   6.103  -0.304  0.00  0.00     0.270 C 
ATOM      7  O1  <0> d           5.189   5.418  -0.343  0.00  0.00    -0.266 OA
ATOM      8  H10 <0> d           2.172   6.067  -0.204  0.00  0.00     0.190 HD
BRANCH   6   9
ATOM      9  C10 <0> d           4.296   7.576  -0.335  0.00  0.00     0.033 A 
ATOM     10  C9  <0> d           5.553   8.182  -0.408  0.00  0.00     0.018 A 
ATOM     11  C8  <0> d           5.654   9.554  -0.437  0.00  0.00     0.013 A 
ATOM     12  C7  <0> d           4.503  10.341  -0.393  0.00  0.00    -0.026 A 
ATOM     13  C12 <0> d           3.247   9.737  -0.321  0.00  0.00     0.013 A 
ATOM     14  C11 <0> d           3.143   8.364  -0.297  0.00  0.00     0.018 A 
BRANCH  12  15
ATOM     15  C4  <0> d           4.614  11.819  -0.424  0.00  0.00    -0.026 A 
ATOM     16  C3  <0> d           3.465  12.607  -0.380  0.00  0.00     0.012 A 
ATOM     17  C2  <0> d           3.574  13.983  -0.409  0.00  0.00     0.001 A 
ATOM     18  C1  <0> d           4.820  14.579  -0.480  0.00  0.00     0.000 A 
ATOM     19  C6  <0> d           5.963  13.802  -0.523  0.00  0.00     0.001 A 
ATOM     20  C5  <0> d           5.867  12.425  -0.491  0.00  0.00     0.012 A 
ENDBRANCH  12  15
ENDBRANCH   6   9
ENDBRANCH   1   5
BRANCH   2  21
ATOM     21  C15 <0> d           1.545   2.068  -0.104  0.00  0.00     0.033 A 
ATOM     22  C20 <0> d           2.698   1.279  -0.148  0.00  0.00     0.019 A 
ATOM     23  C19 <0> d           2.592  -0.093  -0.119  0.00  0.00     0.031 A 
ATOM     24  C18 <0> d           1.339  -0.694  -0.047  0.00  0.00     0.042 A 
ATOM     25  C17 <0> d           0.189   0.089  -0.003  0.00  0.00     0.031 A 
ATOM     26  C16 <0> d           0.288   1.462  -0.031  0.00  0.00     0.019 A 
BRANCH  24  27
ATOM     27  N3  <0> d           1.235  -2.081  -0.018  0.00  0.00    -0.280 N 
ATOM     28  H16 <0> d           1.454  -2.566   0.793  0.00  0.00     0.179 HD
BRANCH  27  29
ATOM     29  S1  <0> d           0.738  -2.903  -1.366  0.00  0.00     0.269 S 
ATOM     30  O3  <0> d           0.778  -4.285  -1.038  0.00  0.00    -0.200 OA
ATOM     31  O4  <0> d          -0.447  -2.262  -1.819  0.00  0.00    -0.200 OA
BRANCH  29  32
ATOM     32  C21 <0> d           1.957  -2.645  -2.612  0.00  0.00     0.120 A 
ATOM     33  S2  <0> d           2.111  -1.297  -3.773  0.00  0.00    -0.088 SA
ATOM     34  C24 <0> d           3.584  -1.855  -4.613  0.00  0.00     0.051 A 
ATOM     35  C23 <0> d           3.851  -3.017  -3.968  0.00  0.00     0.009 A 
ATOM     36  C22 <0> d           3.017  -3.422  -2.942  0.00  0.00     0.033 A 
ENDBRANCH  29  32
ENDBRANCH  27  29
ENDBRANCH  24  27
ENDBRANCH   2  21
TORSDOF 7
