REMARK  4 active torsions:
REMARK  status: ('A' for Active; 'I' for Inactive)
REMARK    1  A    between atoms: C2_2  and  C6_11 
REMARK    2  A    between atoms: C6_11  and  N4_12 
REMARK    3  A    between atoms: C11_17  and  C12_18 
REMARK    4  A    between atoms: C12_18  and  N5_19 
ROOT
ATOM      1  N4  <0> d           1.757   4.090   1.405  0.00  0.00    -0.060 N 
ATOM      2  C7  <0> d           3.131   3.586   1.516  0.00  0.00     0.236 C 
ATOM      3  C8  <0> d           3.779   4.137   2.788  0.00  0.00     0.028 C 
ATOM      4  C9  <0> d           3.799   5.667   2.723  0.00  0.00     0.004 C 
ATOM      5  C10 <0> d           2.368   6.178   2.532  0.00  0.00     0.035 C 
ATOM      6  C11 <0> d           1.772   5.552   1.270  0.00  0.00     0.214 C 
ATOM      7  H19 <0> d           1.240   3.835   2.233  0.00  0.00     0.280 HD
ENDROOT
BRANCH   1   8
ATOM      8  C6  <0> d           1.114   3.497   0.225  0.00  0.00     0.294 C 
BRANCH   8   9
ATOM      9  C2  <0> d           0.949   2.014   0.434  0.00  0.00     0.068 A 
ATOM     10  C1  <0> d          -0.307   1.453   0.521  0.00  0.00     0.105 A 
ATOM     11  C4  <0> d          -0.439   0.077   0.715  0.00  0.00     0.272 A 
ATOM     12  N2  <0> d           0.676  -0.705   0.817  0.00  0.00    -0.172 N 
ATOM     13  O1  <0> d          -1.549  -0.426   0.793  0.00  0.00    -0.266 OA
ATOM     14  C3  <0> d           1.882  -0.067   0.719  0.00  0.00     0.199 A 
ATOM     15  N3  <0> d           0.722  -2.083   1.009  0.00  0.00    -0.168 NA
ATOM     16  N1  <0> d           2.014   1.223   0.538  0.00  0.00    -0.225 NA
ATOM     17  S1  <0> d           3.041  -1.405   0.899  0.00  0.00    -0.041 SA
ATOM     18  C5  <0> d           1.850  -2.722   1.091  0.00  0.00     0.192 A 
ENDBRANCH   8   9
ENDBRANCH   1   8
BRANCH   6  19
ATOM     19  C12 <0> d           0.342   6.060   1.075  0.00  0.00     0.262 C 
BRANCH  19  20
ATOM     20  N5  <0> d          -0.506   5.566   2.168  0.00  0.00    -0.077 N 
ATOM     21  H16 <0> d          -0.442   4.560   2.216  0.00  0.00     0.274 HD
ATOM     22  H17 <0> d          -0.195   5.965   3.041  0.00  0.00     0.274 HD
ATOM     23  H18 <0> d          -1.464   5.834   1.998  0.00  0.00     0.274 HD
ENDBRANCH  19  20
ENDBRANCH   6  19
TORSDOF 4
