REMARK  3 active torsions:
REMARK  status: ('A' for Active; 'I' for Inactive)
REMARK    1  A    between atoms: C3_3  and  S1_9 
REMARK    2  A    between atoms: C6_6  and  N1_7 
REMARK    3  A    between atoms: S1_9  and  N2_12 
ROOT
ATOM      1  S1  <0> d           3.890   2.321  -0.023  0.00  0.00     0.262 S 
ATOM      2  O1  <0> d           4.688   1.766  -1.059  0.00  0.00    -0.200 OA
ATOM      3  O2  <0> d           3.540   3.697   0.015  0.00  0.00    -0.200 OA
ENDROOT
BRANCH   1   4
ATOM      4  C3  <0> d           2.377   1.416  -0.013  0.00  0.00     0.097 A 
ATOM      5  C2  <0> d           1.171   2.091   0.002  0.00  0.00     0.029 A 
ATOM      6  C1  <0> d          -0.017   1.385   0.010  0.00  0.00     0.030 A 
ATOM      7  C6  <0> d           0.002  -0.004   0.002  0.00  0.00     0.027 A 
ATOM      8  C5  <0> d           1.216  -0.679  -0.014  0.00  0.00     0.049 A 
ATOM      9  C4  <0> d           2.400   0.033  -0.021  0.00  0.00     0.036 A 
ATOM     10 Br1  <0> d           4.054  -0.885  -0.043  0.00  0.00    -0.049 Br
BRANCH   7  11
ATOM     11  N1  <0> d          -1.197  -0.720   0.010  0.00  0.00    -0.399 N 
ATOM     12  H5  <0> d          -2.044  -0.248   0.020  0.00  0.00     0.156 HD
ATOM     13  H6  <0> d          -1.183  -1.690   0.004  0.00  0.00     0.156 HD
ENDBRANCH   7  11
ENDBRANCH   1   4
BRANCH   1  14
ATOM     14  N2  <0> d           4.667   1.990   1.402  0.00  0.00    -0.305 N 
ATOM     15  C14 <0> d           5.603   0.840   1.462  0.00  0.00     0.168 C 
ATOM     16  C13 <0> d           6.845   1.221   2.274  0.00  0.00     0.206 C 
ATOM     17  N3  <0> d           7.303   2.562   2.005  0.00  0.00    -0.065 N 
ATOM     18  C12 <0> d           7.996   0.250   1.944  0.00  0.00     0.036 C 
ATOM     19  C9  <0> d           6.765   3.516   2.964  0.00  0.00     0.237 C 
ATOM     20  C10 <0> d           8.787   2.536   2.098  0.00  0.00     0.235 C 
ATOM     21  H21 <0> d           7.034   2.831   1.070  0.00  0.00     0.280 HD
ATOM     22  C8  <0> d           5.411   3.998   2.593  0.00  0.00     0.048 C 
ATOM     23  C7  <0> d           4.409   2.826   2.551  0.00  0.00     0.137 C 
ATOM     24  C11 <0> d           9.153   1.165   1.473  0.00  0.00     0.030 C 
ENDBRANCH   1  14
TORSDOF 3
