REMARK  6 active torsions:
REMARK  status: ('A' for Active; 'I' for Inactive)
REMARK    1  A    between atoms: C8_10  and  C9_12 
REMARK    2  A    between atoms: C9_12  and  C10_13 
REMARK    3  A    between atoms: C10_13  and  O3_15 
REMARK    4  A    between atoms: O3_15  and  C11_16 
REMARK    5  A    between atoms: C11_16  and  C12_17 
REMARK       I    between atoms: C12_17  and  N2_19 
REMARK    6  A    between atoms: N2_19  and  C13_20 
ROOT
ATOM      1  C13 <0> d           1.715  -0.261  -0.008  0.00  0.00     0.098 A 
ATOM      2  C14 <0> d           2.226   1.027  -0.006  0.00  0.00     0.085 A 
ATOM      3  C15 <0> d           1.278   2.133   0.001  0.00  0.00    -0.021 A 
ATOM      4  C16 <0> d          -0.022   1.768   0.012  0.00  0.00    -0.007 A 
ATOM      5  S2  <0> d           0.002  -0.004   0.002  0.00  0.00    -0.075 SA
ATOM      6  C17 <0> d          -1.224   2.660   0.038  0.00  0.00     0.047 C 
ATOM      7  C18 <0> d          -1.074   3.740  -1.041  0.00  0.00     0.005 C 
ATOM      8  C19 <0> d          -0.353   4.938  -0.431  0.00  0.00     0.001 C 
ATOM      9  C20 <0> d           0.650   4.467   0.621  0.00  0.00     0.005 C 
ATOM     10  C21 <0> d           1.722   3.590  -0.017  0.00  0.00     0.041 C 
ATOM     11  C22 <0> d           3.638   1.262  -0.010  0.00  0.00     0.103 C 
ATOM     12  N3  <0> d           4.759   1.450  -0.013  0.00  0.00    -0.191 NA
ENDROOT
BRANCH   1  13
ATOM     13  N2  <0> d           2.407  -1.464  -0.017  0.00  0.00    -0.318 N 
ATOM     14  C12 <0> d           1.732  -2.630  -0.018  0.00  0.00     0.246 C 
ATOM     15  O4  <0> d           0.519  -2.628  -0.011  0.00  0.00    -0.271 OA
ATOM     16  H11 <0> d           3.377  -1.465  -0.023  0.00  0.00     0.169 HD
BRANCH  14  17
ATOM     17  C11 <0> d           2.483  -3.936  -0.028  0.00  0.00     0.281 C 
BRANCH  17  18
ATOM     18  O3  <0> d           1.538  -5.038  -0.027  0.00  0.00    -0.312 OA
BRANCH  18  19
ATOM     19  C10 <0> d           2.049  -6.279  -0.035  0.00  0.00     0.260 C 
ATOM     20  O2  <0> d           3.247  -6.439  -0.042  0.00  0.00    -0.265 OA
BRANCH  19  21
ATOM     21  C9  <0> d           1.129  -7.473  -0.035  0.00  0.00     0.136 C 
BRANCH  21  22
ATOM     22  C8  <0> d           1.961  -8.758  -0.044  0.00  0.00     0.154 C 
ATOM     23  C7  <0> d           1.047  -9.951  -0.142  0.00  0.00     0.236 C 
ATOM     24  N1  <0> d           0.418 -10.473   0.906  0.00  0.00    -0.325 N 
ATOM     25  O1  <0> d           0.877 -10.461  -1.230  0.00  0.00    -0.272 OA
ATOM     26  C5  <0> d           0.577 -10.102   2.238  0.00  0.00     0.051 A 
ATOM     27  H6  <0> d          -0.215 -11.185   0.725  0.00  0.00     0.169 HD
ATOM     28  C4  <0> d           1.674  -9.358   2.671  0.00  0.00     0.028 A 
ATOM     29  C6  <0> d          -0.389 -10.479   3.167  0.00  0.00     0.031 A 
ATOM     30  C3  <0> d           1.798  -8.993   4.001  0.00  0.00     0.021 A 
ATOM     31  S1  <0> d           2.910  -8.884   1.502  0.00  0.00    -0.113 SA
ATOM     32  C2  <0> d           0.828  -9.371   4.912  0.00  0.00     0.002 A 
ATOM     33  C1  <0> d          -0.260 -10.113   4.492  0.00  0.00     0.002 A 
ENDBRANCH  21  22
ENDBRANCH  19  21
ENDBRANCH  18  19
ENDBRANCH  17  18
ENDBRANCH  14  17
ENDBRANCH   1  13
TORSDOF 6
