REMARK  8 active torsions:
REMARK  status: ('A' for Active; 'I' for Inactive)
REMARK    1  A    between atoms: N2_5  and  C6_8 
REMARK    2  A    between atoms: C6_8  and  C7_9 
REMARK    3  A    between atoms: C6_8  and  C17_24 
REMARK    4  A    between atoms: C7_9  and  N3_10 
REMARK       I    between atoms: N3_10  and  C8_11 
REMARK    5  A    between atoms: C8_11  and  C9_13 
REMARK       I    between atoms: C9_13  and  N4_15 
REMARK    6  A    between atoms: N4_15  and  C10_16 
REMARK    7  A    between atoms: C15_21  and  S1_22 
REMARK    8  A    between atoms: C20_27  and  N5_30 
ROOT
ATOM      1  C6  <0> d          -0.279  -3.219   1.548  0.00  0.00     0.273 C 
ENDROOT
BRANCH   1   2
ATOM      2  N2  <0> d          -0.112  -1.764   1.668  0.00  0.00     0.102 N 
ATOM      3  C3  <0> d           1.211  -1.344   1.188  0.00  0.00     0.301 C 
ATOM      4  C2  <0> d           1.322   0.180   1.274  0.00  0.00     0.264 C 
ATOM      5  N1  <0> d           1.130   0.606   2.667  0.00  0.00    -0.072 N 
ATOM      6  C1  <0> d           1.254   2.067   2.752  0.00  0.00     0.269 C 
ATOM      7  C5  <0> d          -0.206   0.201   3.124  0.00  0.00     0.264 C 
ATOM      8  H34 <0> d           1.830   0.174   3.250  0.00  0.00     0.279 HD
ATOM      9  C4  <0> d          -0.329  -1.323   3.053  0.00  0.00     0.301 C 
ENDBRANCH   1   2
BRANCH   1  10
ATOM     10  C7  <0> d           0.591  -3.739   0.401  0.00  0.00     0.164 C 
BRANCH  10  11
ATOM     11  N3  <0> d           0.167  -3.115  -0.855  0.00  0.00    -0.350 N 
ATOM     12  C8  <0> d           0.855  -3.352  -1.990  0.00  0.00     0.309 C 
ATOM     13  O1  <0> d           1.824  -4.081  -1.972  0.00  0.00    -0.262 OA
ATOM     14  H15 <0> d          -0.608  -2.532  -0.870  0.00  0.00     0.162 HD
BRANCH  12  15
ATOM     15  C9  <0> d           0.423  -2.716  -3.270  0.00  0.00     0.314 C 
ATOM     16  O2  <0> d          -0.547  -1.986  -3.289  0.00  0.00    -0.262 OA
ATOM     17  N4  <0> d           1.110  -2.953  -4.405  0.00  0.00    -0.318 N 
ATOM     18  H16 <0> d           1.845  -3.585  -4.404  0.00  0.00     0.169 HD
BRANCH  17  19
ATOM     19  C10 <0> d           0.762  -2.286  -5.585  0.00  0.00     0.052 A 
ATOM     20  C15 <0> d           1.156  -2.800  -6.822  0.00  0.00     0.026 A 
ATOM     21  C14 <0> d           0.803  -2.136  -7.988  0.00  0.00     0.021 A 
ATOM     22  C13 <0> d           0.072  -0.965  -7.922  0.00  0.00     0.002 A 
ATOM     23  C12 <0> d          -0.313  -0.453  -6.696  0.00  0.00     0.002 A 
ATOM     24  C11 <0> d           0.029  -1.109  -5.529  0.00  0.00     0.031 A 
BRANCH  20  25
ATOM     25  S1  <0> d           2.094  -4.290  -6.902  0.00  0.00    -0.132 SA
ATOM     26  C16 <0> d           2.359  -4.546  -8.678  0.00  0.00     0.095 C 
ENDBRANCH  20  25
ENDBRANCH  17  19
ENDBRANCH  12  15
ENDBRANCH  10  11
ENDBRANCH   1  10
BRANCH   1  27
ATOM     27  C17 <0> d           0.139  -3.881   2.835  0.00  0.00    -0.023 A 
ATOM     28  C22 <0> d          -0.725  -4.751   3.476  0.00  0.00     0.011 A 
ATOM     29  C21 <0> d          -0.343  -5.364   4.653  0.00  0.00     0.030 A 
ATOM     30  C20 <0> d           0.906  -5.097   5.200  0.00  0.00     0.029 A 
ATOM     31  C19 <0> d           1.769  -4.218   4.557  0.00  0.00     0.030 A 
ATOM     32  C18 <0> d           1.383  -3.613   3.377  0.00  0.00     0.011 A 
BRANCH  30  33
ATOM     33  N5  <0> d           1.293  -5.711   6.393  0.00  0.00    -0.390 N 
ATOM     34  C23 <0> d           2.611  -5.428   6.968  0.00  0.00     0.149 C 
ATOM     35  C24 <0> d           0.382  -6.637   7.069  0.00  0.00     0.149 C 
ENDBRANCH  30  33
ENDBRANCH   1  27
TORSDOF 8
