REMARK  6 active torsions:
REMARK  status: ('A' for Active; 'I' for Inactive)
REMARK    1  A    between atoms: C2_2  and  C3_3 
REMARK    2  A    between atoms: C2_2  and  S1_18 
REMARK       I    between atoms: C3_3  and  N1_5 
REMARK    3  A    between atoms: N1_5  and  C4_6 
REMARK    4  A    between atoms: C4_6  and  C5_7 
REMARK    5  A    between atoms: C10_12  and  N2_13 
REMARK    6  A    between atoms: S1_18  and  C14_21 
ROOT
ATOM      1  C3  <0> d           0.731  -0.503   1.223  0.00  0.00     0.236 C 
ATOM      2  O1  <0> d           0.105  -0.891   2.187  0.00  0.00    -0.272 OA
ATOM      3  N1  <0> d           2.079  -0.519   1.244  0.00  0.00    -0.356 N 
ATOM      4  H5  <0> d           2.579  -0.208   0.473  0.00  0.00     0.162 HD
ENDROOT
BRANCH   3   5
ATOM      5  C4  <0> d           2.787  -1.004   2.431  0.00  0.00     0.163 C 
BRANCH   5   6
ATOM      6  C5  <0> d           4.274  -0.917   2.199  0.00  0.00    -0.012 A 
ATOM      7  C10 <0> d           4.930   0.297   2.346  0.00  0.00     0.066 A 
ATOM      8  C9  <0> d           6.301   0.371   2.138  0.00  0.00     0.032 A 
ATOM      9  C8  <0> d           7.005  -0.759   1.772  0.00  0.00     0.002 A 
ATOM     10  C7  <0> d           6.347  -1.966   1.621  0.00  0.00     0.001 A 
ATOM     11  C6  <0> d           4.983  -2.045   1.834  0.00  0.00     0.011 A 
BRANCH   7  12
ATOM     12  N2  <0> d           4.212   1.444   2.711  0.00  0.00    -0.245 N 
ATOM     13  N3  <0> d           2.834   1.511   2.957  0.00  0.00    -0.180 NA
ATOM     14  C13 <0> d           2.534   2.745   3.273  0.00  0.00     0.140 A 
ATOM     15  C12 <0> d           3.708   3.506   3.230  0.00  0.00     0.040 A 
ATOM     16  C11 <0> d           4.725   2.683   2.882  0.00  0.00     0.120 A 
ENDBRANCH   7  12
ENDBRANCH   5   6
ENDBRANCH   3   5
BRANCH   1  17
ATOM     17  C2  <0> d           0.002  -0.004   0.002  0.00  0.00     0.196 C 
ATOM     18  C1  <0> d          -0.019   1.526   0.010  0.00  0.00     0.036 C 
BRANCH  17  19
ATOM     19  S1  <0> d          -1.700  -0.632   0.015  0.00  0.00     0.160 S 
ATOM     20  O2  <0> d          -1.658  -2.046  -0.118  0.00  0.00    -0.227 OA
ATOM     21  O3  <0> d          -2.381  -0.062   1.124  0.00  0.00    -0.227 OA
BRANCH  19  22
ATOM     22  C14 <0> d          -2.397   0.068  -1.507  0.00  0.00     0.101 C 
ATOM     23  C15 <0> d          -1.593  -0.429  -2.711  0.00  0.00     0.026 C 
ATOM     24  C16 <0> d          -3.854  -0.374  -1.650  0.00  0.00     0.026 C 
ENDBRANCH  19  22
ENDBRANCH  17  19
ENDBRANCH   1  17
TORSDOF 6
