REMARK  7 active torsions:
REMARK  status: ('A' for Active; 'I' for Inactive)
REMARK    1  A    between atoms: C2_2  and  N1_3 
REMARK    2  A    between atoms: N2_6  and  C7_9 
REMARK    3  A    between atoms: C7_9  and  C8_10 
REMARK    4  A    between atoms: C7_9  and  C14_23 
REMARK    5  A    between atoms: C8_10  and  N3_11 
REMARK    6  A    between atoms: N3_11  and  S1_12 
REMARK    7  A    between atoms: S1_12  and  C9_15 
ROOT
ATOM      1  C7  <0> d           1.530  -2.584   4.772  0.00  0.00     0.274 C 
ENDROOT
BRANCH   1   2
ATOM      2  N2  <0> d           0.946  -2.343   3.446  0.00  0.00     0.102 N 
ATOM      3  C4  <0> d           0.941  -0.909   3.125  0.00  0.00     0.301 C 
ATOM      4  C3  <0> d           0.272  -0.696   1.766  0.00  0.00     0.265 C 
ATOM      5  N1  <0> d           1.006  -1.443   0.736  0.00  0.00    -0.068 N 
ATOM      6  C6  <0> d           0.981  -2.876   1.057  0.00  0.00     0.265 C 
ATOM      7  H30 <0> d           1.962  -1.122   0.705  0.00  0.00     0.280 HD
ATOM      8  C5  <0> d           1.656  -3.107   2.411  0.00  0.00     0.301 C 
BRANCH   5   9
ATOM      9  C2  <0> d           0.374  -1.223  -0.572  0.00  0.00     0.230 C 
ATOM     10  C1  <0> d           0.510   0.250  -0.963  0.00  0.00     0.034 C 
ENDBRANCH   5   9
ENDBRANCH   1   2
BRANCH   1  11
ATOM     11  C8  <0> d           1.441  -4.075   5.106  0.00  0.00     0.173 C 
BRANCH  11  12
ATOM     12  N3  <0> d           0.049  -4.518   4.992  0.00  0.00    -0.313 N 
ATOM     13  H18 <0> d          -0.666  -3.864   4.953  0.00  0.00     0.172 HD
BRANCH  12  14
ATOM     14  S1  <0> d          -0.302  -6.135   4.928  0.00  0.00     0.262 S 
ATOM     15  O1  <0> d          -1.717  -6.240   4.847  0.00  0.00    -0.200 OA
ATOM     16  O2  <0> d           0.561  -6.700   3.951  0.00  0.00    -0.200 OA
BRANCH  14  17
ATOM     17  C9  <0> d           0.167  -6.831   6.478  0.00  0.00     0.129 A 
ATOM     18  C11 <0> d          -0.648  -6.947   7.608  0.00  0.00     0.076 A 
ATOM     19  N5  <0> d           0.048  -7.517   8.558  0.00  0.00    -0.178 NA
ATOM     20  C12 <0> d          -2.083  -6.497   7.713  0.00  0.00     0.074 C 
ATOM     21  N4  <0> d           1.334  -7.773   8.064  0.00  0.00    -0.281 N 
ATOM     22  C10 <0> d           1.381  -7.343   6.785  0.00  0.00     0.049 A 
ATOM     23  H2  <0> d           2.062  -8.186   8.554  0.00  0.00     0.189 HD
ATOM     24  C13 <0> d           2.572  -7.419   5.866  0.00  0.00     0.071 C 
ENDBRANCH  14  17
ENDBRANCH  12  14
ENDBRANCH  11  12
ENDBRANCH   1  11
BRANCH   1  25
ATOM     25  C14 <0> d           2.975  -2.156   4.769  0.00  0.00    -0.024 A 
ATOM     26  C19 <0> d           3.917  -2.904   4.088  0.00  0.00     0.009 A 
ATOM     27  C18 <0> d           5.242  -2.509   4.082  0.00  0.00     0.001 A 
ATOM     28  C17 <0> d           5.626  -1.371   4.765  0.00  0.00     0.000 A 
ATOM     29  C16 <0> d           4.686  -0.625   5.451  0.00  0.00     0.001 A 
ATOM     30  C15 <0> d           3.360  -1.018   5.453  0.00  0.00     0.009 A 
ENDBRANCH   1  25
TORSDOF 7
