REMARK  6 active torsions:
REMARK  status: ('A' for Active; 'I' for Inactive)
REMARK    1  A    between atoms: C5_5  and  N1_8 
REMARK    2  A    between atoms: N1_8  and  S1_10 
REMARK    3  A    between atoms: S1_10  and  C9_13 
REMARK    4  A    between atoms: C12_16  and  C13_18 
REMARK    5  A    between atoms: C13_18  and  C14_19 
REMARK    6  A    between atoms: C14_19  and  N2_20 
ROOT
ATOM      1  S1  <0> d           2.944  -4.807  -0.052  0.00  0.00     0.267 S 
ATOM      2  O1  <0> d           2.685  -6.090  -0.607  0.00  0.00    -0.200 OA
ATOM      3  O2  <0> d           3.901  -3.916  -0.607  0.00  0.00    -0.200 OA
ENDROOT
BRANCH   1   4
ATOM      4  N1  <0> d           1.499  -3.999  -0.034  0.00  0.00    -0.306 N 
ATOM      5  C8  <0> d           0.240  -4.749  -0.026  0.00  0.00     0.163 C 
BRANCH   4   6
ATOM      6  C5  <0> d           1.479  -2.534  -0.026  0.00  0.00     0.095 C 
ATOM      7  C4  <0> d           0.739  -2.027  -1.265  0.00  0.00     0.026 C 
ATOM      8  C3  <0> d           0.718  -0.497  -1.257  0.00  0.00     0.006 C 
ATOM      9  C2  <0> d           0.002  -0.004   0.002  0.00  0.00    -0.019 C 
ATOM     10  C1  <0> d          -0.019   1.526   0.010  0.00  0.00     0.010 C 
ATOM     11  C7  <0> d           0.742  -0.511   1.242  0.00  0.00     0.006 C 
ATOM     12  C6  <0> d           0.763  -2.041   1.233  0.00  0.00     0.026 C 
ENDBRANCH   4   6
ENDBRANCH   1   4
BRANCH   1  13
ATOM     13  C9  <0> d           3.415  -5.071   1.625  0.00  0.00     0.120 A 
ATOM     14  S2  <0> d           4.393  -4.029   2.696  0.00  0.00    -0.081 SA
ATOM     15  C12 <0> d           4.353  -5.058   4.154  0.00  0.00    -0.015 A 
ATOM     16  C11 <0> d           3.614  -6.113   3.732  0.00  0.00     0.017 A 
ATOM     17  C10 <0> d           3.133  -6.120   2.436  0.00  0.00     0.034 A 
BRANCH  15  18
ATOM     18  C13 <0> d           4.981  -4.818   5.503  0.00  0.00     0.073 C 
BRANCH  18  19
ATOM     19  C14 <0> d           6.396  -5.400   5.517  0.00  0.00     0.234 C 
BRANCH  19  20
ATOM     20  N2  <0> d           7.009  -5.167   6.831  0.00  0.00    -0.079 N 
ATOM     21  H23 <0> d           7.942  -5.551   6.840  0.00  0.00     0.274 HD
ATOM     22  H24 <0> d           7.052  -4.174   7.010  0.00  0.00     0.274 HD
ATOM     23  H25 <0> d           6.454  -5.613   7.545  0.00  0.00     0.274 HD
ENDBRANCH  19  20
ENDBRANCH  18  19
ENDBRANCH  15  18
ENDBRANCH   1  13
TORSDOF 6
