REMARK  5 active torsions:
REMARK  status: ('A' for Active; 'I' for Inactive)
REMARK    1  A    between atoms: C5_5  and  C8_8 
REMARK    2  A    between atoms: N2_13  and  C13_18 
REMARK    3  A    between atoms: C13_18  and  C14_19 
REMARK       I    between atoms: C14_19  and  N5_21 
REMARK    4  A    between atoms: N5_21  and  C15_22 
REMARK    5  A    between atoms: C18_25  and  C21_28 
ROOT
ATOM      1  C8  <0> d           0.051  -4.249  -0.037  0.00  0.00     0.088 A 
ATOM      2  C9  <0> d           0.072  -4.978   1.229  0.00  0.00     0.038 A 
ATOM      3  C10 <0> d           0.096  -6.331   1.221  0.00  0.00     0.057 A 
ATOM      4  C11 <0> d           0.099  -7.018  -0.021  0.00  0.00     0.176 A 
ATOM      5  N1  <0> d           0.119  -8.297  -0.314  0.00  0.00    -0.148 NA
ATOM      6  N2  <0> d           0.111  -8.420  -1.710  0.00  0.00    -0.207 N 
ATOM      7  C12 <0> d           0.085  -7.175  -2.228  0.00  0.00     0.368 A 
ATOM      8  O1  <0> d           0.072  -6.891  -3.414  0.00  0.00    -0.243 OA
ATOM      9  N3  <0> d           0.078  -6.299  -1.202  0.00  0.00    -0.161 N 
ATOM     10  N4  <0> d           0.048  -4.899  -1.175  0.00  0.00    -0.161 NA
ENDROOT
BRANCH   6  11
ATOM     11  C13 <0> d           0.127  -9.673  -2.469  0.00  0.00     0.259 C 
BRANCH  11  12
ATOM     12  C14 <0> d           1.554 -10.078  -2.739  0.00  0.00     0.242 C 
ATOM     13  O2  <0> d           2.466  -9.388  -2.337  0.00  0.00    -0.271 OA
ATOM     14  N5  <0> d           1.815 -11.207  -3.427  0.00  0.00    -0.326 N 
ATOM     15  H12 <0> d           1.089 -11.793  -3.691  0.00  0.00     0.169 HD
BRANCH  14  16
ATOM     16  C15 <0> d           3.128 -11.532  -3.760  0.00  0.00     0.034 A 
ATOM     17  C20 <0> d           4.163 -11.222  -2.882  0.00  0.00     0.030 A 
ATOM     18  C19 <0> d           5.457 -11.544  -3.203  0.00  0.00     0.017 A 
ATOM     19  C18 <0> d           5.737 -12.177  -4.420  0.00  0.00     0.009 A 
ATOM     20  C17 <0> d           4.693 -12.482  -5.302  0.00  0.00     0.017 A 
ATOM     21  C16 <0> d           3.402 -12.161  -4.971  0.00  0.00     0.030 A 
BRANCH  19  22
ATOM     22  C21 <0> d           7.121 -12.519  -4.770  0.00  0.00     0.155 C 
ATOM     23  O3  <0> d           7.362 -13.068  -5.825  0.00  0.00    -0.293 OA
ATOM     24  C22 <0> d           8.243 -12.190  -3.820  0.00  0.00     0.096 C 
ENDBRANCH  19  22
ENDBRANCH  14  16
ENDBRANCH  11  12
ENDBRANCH   6  11
BRANCH   1  25
ATOM     25  C5  <0> d           0.025  -2.767  -0.035  0.00  0.00    -0.006 A 
ATOM     26  C4  <0> d          -0.002  -2.066  -1.240  0.00  0.00     0.014 A 
ATOM     27  C3  <0> d          -0.026  -0.686  -1.231  0.00  0.00     0.007 A 
ATOM     28  C2  <0> d          -0.024   0.002  -0.031  0.00  0.00    -0.062 A 
ATOM     29  C1  <0> d          -0.051   1.508  -0.029  0.00  0.00     0.048 C 
ATOM     30  C7  <0> d           0.008  -0.689   1.167  0.00  0.00     0.007 A 
ATOM     31  C6  <0> d           0.027  -2.069   1.171  0.00  0.00     0.014 A 
ENDBRANCH   1  25
TORSDOF 5
