REMARK  7 active torsions:
REMARK  status: ('A' for Active; 'I' for Inactive)
REMARK    1  A    between atoms: C2_2  and  N1_3 
REMARK    2  A    between atoms: N1_3  and  C3_4 
REMARK    3  A    between atoms: N1_3  and  C5_6 
REMARK    4  A    between atoms: C5_6  and  C6_7 
REMARK    5  A    between atoms: C6_7  and  N2_8 
REMARK       I    between atoms: N2_8  and  C7_9 
REMARK    6  A    between atoms: C7_9  and  C8_11 
REMARK       I    between atoms: N3_13  and  C16_21 
REMARK    7  A    between atoms: C16_21  and  C17_23 
ROOT
ATOM      1  C8  <0> d          -3.308  -6.132   1.091  0.00  0.00     0.106 C 
ATOM      2  C9  <0> d          -2.862  -6.497   2.525  0.00  0.00     0.141 C 
ATOM      3  N3  <0> d          -4.100  -6.958   3.196  0.00  0.00    -0.348 N 
ATOM      4  C10 <0> d          -4.811  -7.743   2.158  0.00  0.00     0.136 C 
ATOM      5  C11 <0> d          -4.586  -6.954   0.853  0.00  0.00    -0.007 C 
ATOM      6  C12 <0> d          -5.768  -6.027   0.587  0.00  0.00     0.039 C 
ATOM      7  C13 <0> d          -7.014  -6.868   0.298  0.00  0.00     0.233 C 
ATOM      8  N4  <0> d          -6.768  -7.726  -0.867  0.00  0.00    -0.075 N 
ATOM      9  C14 <0> d          -5.690  -8.677  -0.569  0.00  0.00     0.233 C 
ATOM     10  C15 <0> d          -4.388  -7.913  -0.316  0.00  0.00     0.039 C 
ATOM     11  C16 <0> d          -4.490  -6.719   4.463  0.00  0.00     0.251 C 
ATOM     12  O2  <0> d          -5.540  -7.170   4.870  0.00  0.00    -0.270 OA
ATOM     13  H26 <0> d          -7.610  -8.234  -1.093  0.00  0.00     0.277 HD
ATOM     14  H37 <0> d          -6.502  -7.154  -1.654  0.00  0.00     0.277 HD
ENDROOT
BRANCH   1  15
ATOM     15  C7  <0> d          -3.606  -4.658   0.994  0.00  0.00     0.224 C 
ATOM     16  N2  <0> d          -3.552  -4.036  -0.200  0.00  0.00    -0.359 N 
ATOM     17  H17 <0> d          -3.321  -4.538  -0.998  0.00  0.00     0.162 HD
ATOM     18  O1  <0> d          -3.895  -4.031   1.992  0.00  0.00    -0.273 OA
BRANCH  16  19
ATOM     19  C6  <0> d          -3.842  -2.603  -0.294  0.00  0.00     0.150 C 
BRANCH  19  20
ATOM     20  C5  <0> d          -3.712  -2.151  -1.750  0.00  0.00     0.254 C 
BRANCH  20  21
ATOM     21  N1  <0> d          -4.098  -0.738  -1.860  0.00  0.00    -0.070 N 
ATOM     22  H38 <0> d          -5.022  -0.611  -1.475  0.00  0.00     0.279 HD
BRANCH  21  23
ATOM     23  C2  <0> d          -3.140   0.091  -1.117  0.00  0.00     0.230 C 
ATOM     24  C1  <0> d          -3.611   1.547  -1.127  0.00  0.00     0.034 C 
ENDBRANCH  21  23
BRANCH  21  25
ATOM     25  C3  <0> d          -4.098  -0.339  -3.274  0.00  0.00     0.230 C 
ATOM     26  C4  <0> d          -5.212  -1.083  -4.014  0.00  0.00     0.034 C 
ENDBRANCH  21  25
ENDBRANCH  20  21
ENDBRANCH  19  20
ENDBRANCH  16  19
ENDBRANCH   1  15
BRANCH  11  27
ATOM     27  C17 <0> d          -3.623  -5.891   5.375  0.00  0.00     0.245 C 
ATOM     28  O4  <0> d          -4.290  -5.690   6.626  0.00  0.00    -0.331 OA
ATOM     29  C24 <0> d          -3.532  -5.223   7.656  0.00  0.00     0.103 A 
ATOM     30  C19 <0> d          -2.145  -5.294   7.608  0.00  0.00     0.102 A 
ATOM     31  C23 <0> d          -4.157  -4.677   8.767  0.00  0.00     0.040 A 
ATOM     32  O3  <0> d          -1.512  -5.822   6.525  0.00  0.00    -0.345 OA
ATOM     33  C20 <0> d          -1.393  -4.821   8.672  0.00  0.00     0.039 A 
ATOM     34  C18 <0> d          -2.304  -6.628   5.646  0.00  0.00     0.218 C 
ATOM     35  C21 <0> d          -2.022  -4.278   9.777  0.00  0.00     0.003 A 
ATOM     36  C22 <0> d          -3.401  -4.206   9.824  0.00  0.00     0.003 A 
ENDBRANCH  11  27
TORSDOF 7
