REMARK  7 active torsions:
REMARK  status: ('A' for Active; 'I' for Inactive)
REMARK    1  A    between atoms: C4_4  and  C7_8 
REMARK    2  A    between atoms: C7_8  and  N1_10 
REMARK    3  A    between atoms: N1_10  and  C9_11 
REMARK    4  A    between atoms: C9_11  and  C11_13 
REMARK    5  A    between atoms: C9_11  and  C16_19 
REMARK    6  A    between atoms: C11_13  and  C12_14 
REMARK    7  A    between atoms: C12_14  and  O1_17 
ROOT
ATOM      1  N1  <0> d          -2.828  -3.713  -0.751  0.00  0.00    -0.048 N 
ATOM      2  H12 <0> d          -2.930  -2.913  -0.144  0.00  0.00     0.279 HD
ATOM      3  H27 <0> d          -2.692  -3.400  -1.700  0.00  0.00     0.279 HD
ENDROOT
BRANCH   1   4
ATOM      4  C7  <0> d          -1.666  -4.505  -0.325  0.00  0.00     0.217 C 
ATOM      5  C8  <0> d          -0.517  -3.566   0.047  0.00  0.00     0.045 C 
BRANCH   4   6
ATOM      6  C4  <0> d          -1.233  -5.407  -1.451  0.00  0.00    -0.014 A 
ATOM      7  C3  <0> d          -1.396  -5.014  -2.767  0.00  0.00     0.024 A 
ATOM      8  C2  <0> d          -0.995  -5.849  -3.756  0.00  0.00    -0.020 A 
ATOM      9  C1  <0> d          -1.065  -5.654  -5.249  0.00  0.00     0.056 C 
ATOM     10  S1  <0> d          -0.371  -7.244  -2.833  0.00  0.00    -0.100 SA
ATOM     11  C5  <0> d          -0.677  -6.615  -1.190  0.00  0.00    -0.013 A 
ATOM     12  C6  <0> d          -0.397  -7.263   0.141  0.00  0.00     0.057 C 
ENDBRANCH   4   6
ENDBRANCH   1   4
BRANCH   1  13
ATOM     13  C9  <0> d          -4.039  -4.541  -0.677  0.00  0.00     0.212 C 
ATOM     14  C10 <0> d          -3.821  -5.833  -1.467  0.00  0.00     0.058 C 
BRANCH  13  15
ATOM     15  C11 <0> d          -5.220  -3.772  -1.273  0.00  0.00     0.087 C 
BRANCH  15  16
ATOM     16  C12 <0> d          -5.331  -2.404  -0.597  0.00  0.00     0.056 C 
ATOM     17  C13 <0> d          -6.586  -1.687  -1.099  0.00  0.00     0.045 C 
ATOM     18  C14 <0> d          -5.423  -2.591   0.919  0.00  0.00     0.045 C 
BRANCH  16  19
ATOM     19  O1  <0> d          -4.178  -1.622  -0.912  0.00  0.00    -0.386 OA
ATOM     20  C15 <0> d          -4.182  -0.318  -0.326  0.00  0.00     0.202 C 
ENDBRANCH  16  19
ENDBRANCH  15  16
ENDBRANCH  13  15
BRANCH  13  21
ATOM     21  C16 <0> d          -4.332  -4.875   0.762  0.00  0.00     0.210 C 
ATOM     22  O2  <0> d          -3.556  -4.534   1.638  0.00  0.00    -0.646 OA
ATOM     23  O3  <0> d          -5.347  -5.487   1.052  0.00  0.00    -0.646 OA
ENDBRANCH  13  21
ENDBRANCH   1  13
TORSDOF 7
