REMARK  3 active torsions:
REMARK  status: ('A' for Active; 'I' for Inactive)
REMARK    1  A    between atoms: C2_2  and  C3_3 
REMARK    2  A    between atoms: C2_2  and  N1_14 
REMARK       I    between atoms: N1_14  and  C12_15 
REMARK    3  A    between atoms: C12_15  and  C13_17 
ROOT
ATOM      1  C1  <0> d          -0.019   1.526   0.010  0.00  0.00     0.037 C 
ATOM      2  C2  <0> d           0.002  -0.004   0.002  0.00  0.00     0.113 C 
ENDROOT
BRANCH   2   3
ATOM      3  C3  <0> d           0.731  -0.503   1.223  0.00  0.00    -0.033 A 
ATOM      4  C8  <0> d           2.049  -0.911   1.120  0.00  0.00     0.049 A 
ATOM      5  C7  <0> d           2.716  -1.365   2.245  0.00  0.00     0.102 A 
ATOM      6  C6  <0> d           2.062  -1.419   3.467  0.00  0.00     0.102 A 
ATOM      7  O1  <0> d           4.018  -1.767   2.159  0.00  0.00    -0.348 OA
ATOM      8  C5  <0> d           0.741  -1.015   3.566  0.00  0.00     0.040 A 
ATOM      9  O2  <0> d           2.727  -1.874   4.569  0.00  0.00    -0.348 OA
ATOM     10  C4  <0> d           0.079  -0.558   2.441  0.00  0.00     0.012 A 
ATOM     11  C11 <0> d           3.780  -1.038   5.052  0.00  0.00     0.178 C 
ATOM     12  C10 <0> d           5.072  -1.310   4.298  0.00  0.00     0.053 C 
ATOM     13  C9  <0> d           4.973  -0.940   2.826  0.00  0.00     0.178 C 
ENDBRANCH   2   3
BRANCH   2  14
ATOM     14  N1  <0> d          -1.372  -0.511   0.012  0.00  0.00    -0.352 N 
ATOM     15  C12 <0> d          -2.051  -0.643  -1.145  0.00  0.00     0.224 C 
ATOM     16  O3  <0> d          -1.524  -0.341  -2.194  0.00  0.00    -0.273 OA
ATOM     17  H15 <0> d          -1.794  -0.752   0.852  0.00  0.00     0.163 HD
BRANCH  15  18
ATOM     18  C13 <0> d          -3.465  -1.164  -1.134  0.00  0.00     0.096 C 
ATOM     19  C17 <0> d          -3.487  -2.573  -0.540  0.00  0.00     0.136 C 
ATOM     20  N2  <0> d          -4.798  -3.184  -0.727  0.00  0.00    -0.360 N 
ATOM     21  C16 <0> d          -5.698  -2.767  -1.618  0.00  0.00     0.217 C 
ATOM     22  H20 <0> d          -5.030  -3.941  -0.166  0.00  0.00     0.162 HD
ATOM     23  C15 <0> d          -5.489  -1.580  -2.514  0.00  0.00     0.103 C 
ATOM     24  O4  <0> d          -6.742  -3.379  -1.709  0.00  0.00    -0.274 OA
ATOM     25  C14 <0> d          -4.002  -1.224  -2.569  0.00  0.00     0.025 C 
ENDBRANCH  15  18
ENDBRANCH   2  14
TORSDOF 3
