REMARK  7 active torsions:
REMARK  status: ('A' for Active; 'I' for Inactive)
REMARK    1  A    between atoms: C2_2  and  C3_3 
REMARK    2  A    between atoms: C6_6  and  N1_9 
REMARK    3  A    between atoms: N1_9  and  S1_10 
REMARK    4  A    between atoms: S1_10  and  C9_13 
REMARK    5  A    between atoms: C16_21  and  C18_25 
REMARK       I    between atoms: C18_25  and  N3_27 
REMARK    6  A    between atoms: N3_27  and  C19_28 
REMARK    7  A    between atoms: C19_28  and  C20_29 
ROOT
ATOM      1  C9  <0> d           0.690   2.181   1.337  0.00  0.00     0.081 A 
ATOM      2  C10 <0> d           1.256   0.917   1.435  0.00  0.00     0.027 A 
ATOM      3  C11 <0> d           2.446   0.729   2.100  0.00  0.00     0.032 A 
ATOM      4  C12 <0> d           3.097   1.814   2.684  0.00  0.00     0.046 A 
ATOM      5  C13 <0> d           2.522   3.092   2.583  0.00  0.00     0.043 A 
ATOM      6  C14 <0> d           1.315   3.268   1.906  0.00  0.00     0.043 A 
ATOM      7  C15 <0> d           3.221   4.232   3.206  0.00  0.00     0.201 A 
ATOM      8  O3  <0> d           2.768   5.362   3.148  0.00  0.00    -0.286 OA
ATOM      9  C16 <0> d           4.487   3.947   3.898  0.00  0.00     0.098 A 
ATOM     10  C17 <0> d           4.952   2.649   3.931  0.00  0.00     0.109 A 
ATOM     11  N2  <0> d           4.288   1.638   3.353  0.00  0.00    -0.364 N 
ATOM     12  H1  <0> d           4.663   0.745   3.408  0.00  0.00     0.165 HD
ENDROOT
BRANCH   1  13
ATOM     13  S1  <0> d          -0.831   2.396   0.474  0.00  0.00     0.263 S 
ATOM     14  O1  <0> d          -0.817   3.717  -0.051  0.00  0.00    -0.200 OA
ATOM     15  O2  <0> d          -0.997   1.250  -0.350  0.00  0.00    -0.200 OA
BRANCH  13  16
ATOM     16  N1  <0> d          -2.044   2.349   1.601  0.00  0.00    -0.281 N 
ATOM     17  H11 <0> d          -2.605   3.127   1.742  0.00  0.00     0.179 HD
BRANCH  16  18
ATOM     18  C6  <0> d          -2.259   1.188   2.347  0.00  0.00     0.042 A 
ATOM     19  C5  <0> d          -1.859   1.130   3.676  0.00  0.00     0.030 A 
ATOM     20  C4  <0> d          -2.073  -0.019   4.411  0.00  0.00     0.009 A 
ATOM     21  C3  <0> d          -2.686  -1.112   3.825  0.00  0.00    -0.058 A 
ATOM     22  C8  <0> d          -3.085  -1.058   2.502  0.00  0.00     0.009 A 
ATOM     23  C7  <0> d          -2.879   0.090   1.763  0.00  0.00     0.030 A 
BRANCH  21  24
ATOM     24  C2  <0> d          -2.918  -2.365   4.630  0.00  0.00     0.034 C 
ATOM     25  C1  <0> d          -4.285  -2.286   5.313  0.00  0.00     0.010 C 
ENDBRANCH  21  24
ENDBRANCH  16  18
ENDBRANCH  13  16
ENDBRANCH   1  13
BRANCH   9  26
ATOM     26  C18 <0> d           5.245   5.029   4.546  0.00  0.00     0.257 C 
ATOM     27  O4  <0> d           4.826   6.170   4.511  0.00  0.00    -0.267 OA
ATOM     28  N3  <0> d           6.404   4.755   5.178  0.00  0.00    -0.352 N 
ATOM     29  H16 <0> d           6.738   3.845   5.206  0.00  0.00     0.163 HD
BRANCH  28  30
ATOM     30  C19 <0> d           7.159   5.833   5.823  0.00  0.00     0.161 C 
BRANCH  30  31
ATOM     31  C20 <0> d           8.405   5.266   6.452  0.00  0.00    -0.040 A 
ATOM     32  C25 <0> d           9.577   5.195   5.721  0.00  0.00     0.012 A 
ATOM     33  C24 <0> d          10.721   4.676   6.298  0.00  0.00     0.043 A 
ATOM     34  C23 <0> d          10.693   4.227   7.607  0.00  0.00     0.116 A 
ATOM     35  C22 <0> d           9.519   4.298   8.337  0.00  0.00     0.043 A 
ATOM     36  F1  <0> d          11.810   3.718   8.171  0.00  0.00    -0.206 F 
ATOM     37  C21 <0> d           8.378   4.822   7.761  0.00  0.00     0.012 A 
ENDBRANCH  30  31
ENDBRANCH  28  30
ENDBRANCH   9  26
TORSDOF 7
