REMARK  4 active torsions:
REMARK  status: ('A' for Active; 'I' for Inactive)
REMARK    1  A    between atoms: C6_6  and  C7_7 
REMARK    2  A    between atoms: C7_7  and  N1_8 
REMARK       I    between atoms: N1_8  and  C8_9 
REMARK    3  A    between atoms: C8_9  and  C9_11 
REMARK    4  A    between atoms: C9_11  and  N2_12 
ROOT
ATOM      1  N2  <0> d          -4.571  -2.692  -3.017  0.00  0.00    -0.208 N 
ATOM      2  C10 <0> d          -5.814  -2.164  -3.008  0.00  0.00     0.352 A 
ATOM      3  O2  <0> d          -6.089  -0.977  -3.004  0.00  0.00    -0.244 OA
ATOM      4  N3  <0> d          -6.696  -3.184  -3.004  0.00  0.00    -0.238 N 
ATOM      5  C11 <0> d          -8.066  -3.211  -2.997  0.00  0.00     0.222 A 
ATOM      6  N4  <0> d          -8.726  -4.332  -2.994  0.00  0.00    -0.235 NA
ATOM      7  C12 <0> d          -8.120  -5.519  -2.998  0.00  0.00     0.114 A 
ATOM      8  C13 <0> d          -6.726  -5.649  -3.006  0.00  0.00     0.055 A 
ATOM      9  C14 <0> d          -5.978  -4.366  -3.010  0.00  0.00     0.173 A 
ATOM     10  N5  <0> d          -4.705  -4.088  -3.024  0.00  0.00    -0.148 NA
ATOM     11  C15 <0> d          -6.207  -6.968  -3.007  0.00  0.00    -0.028 A 
ATOM     12  C16 <0> d          -7.093  -7.991  -3.001  0.00  0.00    -0.008 A 
ATOM     13  S1  <0> d          -8.682  -7.204  -2.994  0.00  0.00    -0.073 SA
ATOM     14  C17 <0> d          -6.793  -9.457  -3.000  0.00  0.00     0.047 C 
ATOM     15  C18 <0> d          -5.317  -9.648  -3.378  0.00  0.00     0.005 C 
ATOM     16  C19 <0> d          -4.468  -8.682  -2.547  0.00  0.00     0.005 C 
ATOM     17  C20 <0> d          -4.706  -7.246  -3.014  0.00  0.00     0.041 C 
ENDROOT
BRANCH   1  18
ATOM     18  C9  <0> d          -3.312  -1.942  -3.025  0.00  0.00     0.259 C 
BRANCH  18  19
ATOM     19  C8  <0> d          -2.867  -1.693  -1.607  0.00  0.00     0.237 C 
ATOM     20  N1  <0> d          -1.726  -1.017  -1.368  0.00  0.00    -0.355 N 
ATOM     21  H7  <0> d          -1.191  -0.691  -2.109  0.00  0.00     0.162 HD
ATOM     22  O1  <0> d          -3.535  -2.101  -0.681  0.00  0.00    -0.272 OA
BRANCH  20  23
ATOM     23  C7  <0> d          -1.293  -0.775   0.010  0.00  0.00     0.161 C 
BRANCH  23  24
ATOM     24  C6  <0> d           0.002  -0.004   0.002  0.00  0.00    -0.040 A 
ATOM     25  C1  <0> d          -0.017   1.378   0.010  0.00  0.00     0.012 A 
ATOM     26  C2  <0> d           1.170   2.086   0.002  0.00  0.00     0.043 A 
ATOM     27  C3  <0> d           2.379   1.410  -0.013  0.00  0.00     0.116 A 
ATOM     28  C4  <0> d           2.396   0.026  -0.021  0.00  0.00     0.043 A 
ATOM     29  F1  <0> d           3.540   2.101  -0.021  0.00  0.00    -0.206 F 
ATOM     30  C5  <0> d           1.208  -0.680  -0.013  0.00  0.00     0.012 A 
ENDBRANCH  23  24
ENDBRANCH  20  23
ENDBRANCH  18  19
ENDBRANCH   1  18
TORSDOF 4
