REMARK  3 active torsions:
REMARK  status: ('A' for Active; 'I' for Inactive)
REMARK    1  A    between atoms: O1_2  and  C2_3 
REMARK    2  A    between atoms: P1_10  and  S2_20 
REMARK    3  A    between atoms: C11_17  and  S1_18 
ROOT
ATOM      1  C2  <0> d          -1.200  -0.637   0.010  0.00  0.00     0.081 C 
ATOM      2  C3  <0> d          -2.330   0.070   0.019  0.00  0.00     0.017 C 
ATOM      3  C4  <0> d          -3.660  -0.647   0.017  0.00  0.00     0.022 C 
ATOM      4  C5  <0> d          -3.979  -1.091   1.446  0.00  0.00     0.047 C 
ATOM      5  C6  <0> d          -5.256  -1.939   1.473  0.00  0.00     0.238 C 
ATOM      6  C7  <0> d          -5.496  -2.344   2.933  0.00  0.00     0.214 C 
ATOM      7  O2  <0> d          -6.716  -3.101   3.028  0.00  0.00    -0.308 OA
ATOM      8  P1  <0> d          -6.912  -4.350   2.005  0.00  0.00     0.371 P 
ATOM      9  O3  <0> d          -8.350  -4.664   1.846  0.00  0.00    -0.253 OA
ATOM     10  N1  <0> d          -6.277  -3.838   0.570  0.00  0.00    -0.167 N 
ATOM     11  N2  <0> d          -5.103  -3.115   0.614  0.00  0.00     0.019 N 
ATOM     12  C8  <0> d          -4.833  -2.703  -0.773  0.00  0.00     0.272 C 
ATOM     13  C9  <0> d          -3.553  -1.883  -0.881  0.00  0.00     0.045 C 
ATOM     14  C10 <0> d          -2.380  -2.720  -0.445  0.00  0.00     0.002 C 
ATOM     15  C11 <0> d          -1.262  -2.116   0.003  0.00  0.00     0.029 C 
ATOM     16  H12 <0> d          -6.713  -4.041  -0.272  0.00  0.00     0.198 HD
ATOM     17  H22 <0> d          -4.354  -3.695   0.961  0.00  0.00     0.309 HD
ENDROOT
BRANCH   8  18
ATOM     18  S2  <0> d          -5.863  -6.051   2.712  0.00  0.00    -0.055 SA
ATOM     19  C13 <0> d          -6.610  -6.385   4.332  0.00  0.00     0.102 C 
ENDBRANCH   8  18
BRANCH  15  20
ATOM     20  S1  <0> d           0.118  -3.068   0.545  0.00  0.00    -0.132 SA
ATOM     21  C12 <0> d          -0.431  -4.786   0.353  0.00  0.00     0.095 C 
ENDBRANCH  15  20
BRANCH   1  22
ATOM     22  O1  <0> d           0.002  -0.004   0.002  0.00  0.00    -0.355 OA
ATOM     23  C1  <0> d          -0.017   1.425   0.010  0.00  0.00     0.210 C 
ENDBRANCH   1  22
TORSDOF 3
