REMARK  5 active torsions:
REMARK  status: ('A' for Active; 'I' for Inactive)
REMARK    1  A    between atoms: C3_3  and  C8_10 
REMARK    2  A    between atoms: C5_5  and  C7_7 
REMARK    3  A    between atoms: C8_10  and  N2_11 
REMARK    4  A    between atoms: N2_11  and  S2_12 
REMARK    5  A    between atoms: S2_12  and  C9_15 
ROOT
ATOM      1  C8  <0> d           3.671   2.204  -0.021  0.00  0.00     0.170 C 
ENDROOT
BRANCH   1   2
ATOM      2  C3  <0> d           2.383   1.421  -0.013  0.00  0.00    -0.039 A 
ATOM      3  C2  <0> d           1.170   2.086   0.002  0.00  0.00     0.009 A 
ATOM      4  C1  <0> d          -0.017   1.375   0.010  0.00  0.00     0.002 A 
ATOM      5  C6  <0> d           0.002  -0.004   0.002  0.00  0.00     0.014 A 
ATOM      6  C5  <0> d           1.223  -0.683  -0.014  0.00  0.00     0.002 A 
ATOM      7  C4  <0> d           2.417   0.042  -0.021  0.00  0.00     0.023 A 
BRANCH   6   8
ATOM      8  C7  <0> d           1.251  -2.159  -0.023  0.00  0.00     0.104 C 
ATOM      9  S1  <0> d           2.490  -2.996   0.810  0.00  0.00    -0.060 SA
ATOM     10  N1  <0> d           0.301  -2.846  -0.687  0.00  0.00    -0.390 N 
ATOM     11  H5  <0> d          -0.401  -2.372  -1.159  0.00  0.00     0.157 HD
ATOM     12  H6  <0> d           0.319  -3.816  -0.693  0.00  0.00     0.157 HD
ENDBRANCH   6   8
ENDBRANCH   1   2
BRANCH   1  13
ATOM     13  N2  <0> d           4.101   2.450   1.357  0.00  0.00    -0.311 N 
ATOM     14  H9  <0> d           3.479   2.319   2.090  0.00  0.00     0.172 HD
BRANCH  13  15
ATOM     15  S2  <0> d           5.648   2.954   1.664  0.00  0.00     0.267 S 
ATOM     16  O1  <0> d           5.747   3.129   3.071  0.00  0.00    -0.200 OA
ATOM     17  O2  <0> d           6.509   2.084   0.942  0.00  0.00    -0.200 OA
BRANCH  15  18
ATOM     18  C9  <0> d           5.829   4.552   0.944  0.00  0.00     0.137 A 
ATOM     19  S3  <0> d           4.631   5.519   0.040  0.00  0.00    -0.087 SA
ATOM     20  C12 <0> d           5.655   6.944  -0.290  0.00  0.00     0.052 A 
ATOM     21  C11 <0> d           6.826   6.590   0.295  0.00  0.00     0.028 A 
ATOM     22  C10 <0> d           6.915   5.364   0.928  0.00  0.00     0.041 A 
ATOM     23 Br1  <0> d           8.526   4.827   1.759  0.00  0.00    -0.049 Br
ENDBRANCH  15  18
ENDBRANCH  13  15
ENDBRANCH   1  13
TORSDOF 5
