REMARK  9 active torsions:
REMARK  status: ('A' for Active; 'I' for Inactive)
REMARK    1  A    between atoms: C2_2  and  N1_3 
REMARK    2  A    between atoms: N1_3  and  C3_4 
REMARK    3  A    between atoms: N1_3  and  S1_6 
REMARK    4  A    between atoms: S1_6  and  C5_9 
REMARK    5  A    between atoms: N2_14  and  C10_16 
REMARK    6  A    between atoms: C10_16  and  C11_17 
REMARK       I    between atoms: C11_17  and  N3_19 
REMARK    7  A    between atoms: N3_19  and  C12_20 
REMARK    8  A    between atoms: C12_20  and  C13_21 
REMARK    9  A    between atoms: C18_26  and  C19_27 
ROOT
ATOM      1  C10 <0> d           5.343   1.883   4.219  0.00  0.00     0.234 C 
ENDROOT
BRANCH   1   2
ATOM      2  N2  <0> d           4.603   1.816   2.957  0.00  0.00    -0.314 N 
ATOM      3  C8  <0> d           4.621   2.869   2.118  0.00  0.00     0.247 A 
ATOM      4  C7  <0> d           3.915   2.814   0.904  0.00  0.00     0.076 A 
ATOM      5  O3  <0> d           5.250   3.873   2.412  0.00  0.00    -0.268 OA
ATOM      6  C6  <0> d           3.216   1.686   0.589  0.00  0.00     0.032 A 
ATOM      7  C5  <0> d           3.218   0.606   1.484  0.00  0.00     0.095 A 
ATOM      8  C9  <0> d           3.904   0.694   2.647  0.00  0.00     0.120 A 
BRANCH   7   9
ATOM      9  S1  <0> d           2.322  -0.861   1.097  0.00  0.00     0.262 S 
ATOM     10  O1  <0> d           2.586  -1.786   2.143  0.00  0.00    -0.200 OA
ATOM     11  O2  <0> d           2.594  -1.155  -0.266  0.00  0.00    -0.200 OA
BRANCH   9  12
ATOM     12  N1  <0> d           0.711  -0.489   1.189  0.00  0.00    -0.307 N 
BRANCH  12  13
ATOM     13  C2  <0> d           0.002  -0.004   0.002  0.00  0.00     0.131 C 
ATOM     14  C1  <0> d          -0.019   1.526   0.010  0.00  0.00     0.027 C 
ENDBRANCH  12  13
BRANCH  12  15
ATOM     15  C3  <0> d          -0.006  -0.646   2.457  0.00  0.00     0.131 C 
ATOM     16  C4  <0> d          -0.694  -2.013   2.489  0.00  0.00     0.027 C 
ENDBRANCH  12  15
ENDBRANCH   9  12
ENDBRANCH   7   9
ENDBRANCH   1   2
BRANCH   1  17
ATOM     17  C11 <0> d           4.447   2.438   5.297  0.00  0.00     0.236 C 
ATOM     18  O4  <0> d           3.304   2.748   5.036  0.00  0.00    -0.272 OA
ATOM     19  N3  <0> d           4.917   2.592   6.551  0.00  0.00    -0.355 N 
ATOM     20  H16 <0> d           5.831   2.344   6.760  0.00  0.00     0.162 HD
BRANCH  19  21
ATOM     21  C12 <0> d           4.047   3.131   7.598  0.00  0.00     0.162 C 
BRANCH  21  22
ATOM     22  C13 <0> d           4.807   3.201   8.897  0.00  0.00    -0.025 A 
ATOM     23  C18 <0> d           5.680   4.246   9.132  0.00  0.00     0.058 A 
ATOM     24  C17 <0> d           6.375   4.313  10.325  0.00  0.00     0.059 A 
ATOM     25  C16 <0> d           6.204   3.327  11.281  0.00  0.00     0.117 A 
ATOM     26  C15 <0> d           5.333   2.277  11.043  0.00  0.00     0.043 A 
ATOM     27  F4  <0> d           6.886   3.389  12.445  0.00  0.00    -0.206 F 
ATOM     28  C14 <0> d           4.636   2.215   9.852  0.00  0.00     0.012 A 
BRANCH  23  29
ATOM     29  C19 <0> d           5.871   5.317   8.088  0.00  0.00     0.418 C 
ATOM     30  F1  <0> d           6.795   6.259   8.550  0.00  0.00    -0.166 F 
ATOM     31  F2  <0> d           6.347   4.737   6.907  0.00  0.00    -0.166 F 
ATOM     32  F3  <0> d           4.647   5.947   7.838  0.00  0.00    -0.166 F 
ENDBRANCH  23  29
ENDBRANCH  21  22
ENDBRANCH  19  21
ENDBRANCH   1  17
TORSDOF 9
