REMARK  6 active torsions:
REMARK  status: ('A' for Active; 'I' for Inactive)
REMARK    1  A    between atoms: C5_5  and  C8_8 
REMARK    2  A    between atoms: C8_8  and  N1_9 
REMARK    3  A    between atoms: C12_15  and  C13_16 
REMARK    4  A    between atoms: C13_16  and  C14_17 
REMARK       I    between atoms: C14_17  and  N3_19 
REMARK    5  A    between atoms: N3_19  and  C15_20 
REMARK    6  A    between atoms: C15_20  and  C16_21 
ROOT
ATOM      1  N1  <0> d           1.103  -4.718  -0.051  0.00  0.00    -0.052 N 
ATOM      2  C9  <0> d           1.649  -4.331  -1.361  0.00  0.00     0.256 C 
ATOM      3  C10 <0> d           3.175  -4.285  -1.265  0.00  0.00     0.150 C 
ATOM      4  N2  <0> d           3.675  -5.528  -0.683  0.00  0.00    -0.358 N 
ATOM      5  C11 <0> d           2.890  -6.372  -0.003  0.00  0.00     0.249 C 
ATOM      6  O1  <0> d           3.385  -7.373   0.470  0.00  0.00    -0.271 OA
ATOM      7  C12 <0> d           1.421  -6.130   0.199  0.00  0.00     0.288 C 
ATOM      8  H15 <0> d           4.612  -5.751  -0.795  0.00  0.00     0.162 HD
ATOM      9  H28 <0> d           1.515  -4.146   0.671  0.00  0.00     0.281 HD
ENDROOT
BRANCH   7  10
ATOM     10  C13 <0> d           1.041  -6.489   1.637  0.00  0.00     0.145 C 
BRANCH  10  11
ATOM     11  C14 <0> d           1.903  -5.708   2.595  0.00  0.00     0.220 C 
ATOM     12  O2  <0> d           2.721  -4.920   2.170  0.00  0.00    -0.274 OA
ATOM     13  N3  <0> d           1.765  -5.885   3.923  0.00  0.00    -0.355 N 
ATOM     14  H18 <0> d           1.111  -6.516   4.263  0.00  0.00     0.162 HD
BRANCH  13  15
ATOM     15  C15 <0> d           2.603  -5.126   4.855  0.00  0.00     0.183 C 
BRANCH  15  16
ATOM     16  C16 <0> d           2.253  -5.506   6.270  0.00  0.00     0.074 A 
ATOM     17  N5  <0> d           1.286  -4.992   6.986  0.00  0.00    -0.176 NA
ATOM     18  N4  <0> d           1.292  -5.615   8.241  0.00  0.00    -0.278 N 
ATOM     19  C18 <0> d           2.299  -6.514   8.254  0.00  0.00     0.028 A 
ATOM     20  C19 <0> d           0.370  -5.337   9.345  0.00  0.00     0.179 C 
ATOM     21  C17 <0> d           2.909  -6.466   7.047  0.00  0.00     0.057 A 
ATOM     22  C20 <0> d           2.675  -7.409   9.406  0.00  0.00     0.070 C 
ENDBRANCH  15  16
ENDBRANCH  13  15
ENDBRANCH  10  11
ENDBRANCH   7  10
BRANCH   1  23
ATOM     23  C8  <0> d          -0.354  -4.535  -0.051  0.00  0.00     0.274 C 
BRANCH  23  24
ATOM     24  C5  <0> d          -0.676  -3.067  -0.160  0.00  0.00    -0.033 A 
ATOM     25  C4  <0> d          -0.835  -2.485  -1.404  0.00  0.00     0.009 A 
ATOM     26  C3  <0> d          -1.131  -1.138  -1.504  0.00  0.00     0.007 A 
ATOM     27  C2  <0> d          -1.269  -0.374  -0.360  0.00  0.00    -0.062 A 
ATOM     28  C1  <0> d          -1.592   1.094  -0.469  0.00  0.00     0.048 C 
ATOM     29  C7  <0> d          -1.106  -0.956   0.883  0.00  0.00     0.007 A 
ATOM     30  C6  <0> d          -0.814  -2.303   0.983  0.00  0.00     0.009 A 
ENDBRANCH  23  24
ENDBRANCH   1  23
TORSDOF 6
