REMARK  6 active torsions:
REMARK  status: ('A' for Active; 'I' for Inactive)
REMARK    1  A    between atoms: C6_9  and  C7_11 
REMARK    2  A    between atoms: C7_11  and  N5_12 
REMARK    3  A    between atoms: C11_16  and  C12_17 
REMARK    4  A    between atoms: C12_17  and  C13_18 
REMARK    5  A    between atoms: C13_18  and  C14_19 
REMARK    6  A    between atoms: C14_19  and  O1_20 
ROOT
ATOM      1  C7  <0> d          -0.001  -1.232  -4.754  0.00  0.00     0.315 C 
ENDROOT
BRANCH   1   2
ATOM      2  C6  <0> d           0.009  -1.547  -3.281  0.00  0.00     0.155 A 
ATOM      3  N3  <0> d           0.028  -2.814  -2.903  0.00  0.00    -0.218 NA
ATOM      4  C5  <0> d           0.038  -3.148  -1.623  0.00  0.00     0.143 A 
ATOM      5  C3  <0> d           0.028  -2.127  -0.668  0.00  0.00     0.071 A 
ATOM      6 Cl1  <0> d           0.063  -4.815  -1.141  0.00  0.00    -0.061 Cl
ATOM      7  C2  <0> d           0.008  -0.787  -1.113  0.00  0.00     0.162 A 
ATOM      8  C4  <0> d           0.034  -2.075   0.788  0.00  0.00     0.157 A 
ATOM      9  N1  <0> d           0.002  -0.004   0.002  0.00  0.00    -0.256 N 
ATOM     10  N4  <0> d          -0.001  -0.551  -2.422  0.00  0.00    -0.211 NA
ATOM     11  C1  <0> d          -0.018   1.461   0.010  0.00  0.00     0.182 C 
ATOM     12  N2  <0> d           0.024  -0.820   1.138  0.00  0.00    -0.182 NA
ENDBRANCH   1   2
BRANCH   1  13
ATOM     13  N5  <0> d          -1.389  -1.148  -5.228  0.00  0.00    -0.060 N 
ATOM     14  C11 <0> d          -1.408  -0.723  -6.639  0.00  0.00     0.188 C 
ATOM     15  C10 <0> d          -2.115  -1.835  -7.443  0.00  0.00     0.035 C 
ATOM     16  C9  <0> d          -2.960  -2.562  -6.364  0.00  0.00     0.030 C 
ATOM     17  C8  <0> d          -2.030  -2.477  -5.128  0.00  0.00     0.236 C 
ATOM     18  H21 <0> d          -1.901  -0.484  -4.666  0.00  0.00     0.280 HD
BRANCH  14  19
ATOM     19  C12 <0> d          -2.180   0.591  -6.777  0.00  0.00     0.035 C 
BRANCH  19  20
ATOM     20  C13 <0> d          -1.434   1.701  -6.035  0.00  0.00     0.028 C 
BRANCH  20  21
ATOM     21  C14 <0> d          -2.206   3.015  -6.172  0.00  0.00     0.164 C 
BRANCH  21  22
ATOM     22  O1  <0> d          -1.509   4.052  -5.479  0.00  0.00    -0.401 OA
ATOM     23  H20 <0> d          -1.942   4.915  -5.524  0.00  0.00     0.209 HD
ENDBRANCH  21  22
ENDBRANCH  20  21
ENDBRANCH  19  20
ENDBRANCH  14  19
ENDBRANCH   1  13
TORSDOF 6
