REMARK  8 active torsions:
REMARK  status: ('A' for Active; 'I' for Inactive)
REMARK    1  A    between atoms: C3_3  and  N3_8 
REMARK       I    between atoms: N3_8  and  C5_9 
REMARK    2  A    between atoms: C5_9  and  C6_11 
REMARK    3  A    between atoms: C11_16  and  S1_17 
REMARK    4  A    between atoms: S1_17  and  C12_18 
REMARK    5  A    between atoms: C12_18  and  C13_19 
REMARK       I    between atoms: C13_19  and  N4_21 
REMARK    6  A    between atoms: N4_21  and  C14_22 
REMARK    7  A    between atoms: C14_22  and  C15_23 
REMARK    8  A    between atoms: C15_23  and  O3_24 
ROOT
ATOM      1  C6  <0> d          -0.011  -0.804  -4.881  0.00  0.00     0.049 A 
ATOM      2  C7  <0> d          -0.026   0.563  -5.167  0.00  0.00     0.018 A 
ATOM      3  C8  <0> d          -0.038   0.992  -6.476  0.00  0.00     0.001 A 
ATOM      4  C9  <0> d          -0.037   0.073  -7.514  0.00  0.00     0.001 A 
ATOM      5  C10 <0> d          -0.022  -1.281  -7.250  0.00  0.00     0.019 A 
ATOM      6  C11 <0> d          -0.003  -1.733  -5.935  0.00  0.00     0.016 A 
ENDROOT
BRANCH   1   7
ATOM      7  C5  <0> d           0.003  -1.270  -3.483  0.00  0.00     0.257 C 
ATOM      8  N3  <0> d          -0.005  -0.375  -2.475  0.00  0.00    -0.320 N 
ATOM      9  H6  <0> d          -0.019   0.575  -2.670  0.00  0.00     0.169 HD
ATOM     10  O1  <0> d           0.021  -2.461  -3.238  0.00  0.00    -0.267 OA
BRANCH   8  11
ATOM     11  C3  <0> d           0.008  -0.819  -1.140  0.00  0.00     0.078 A 
ATOM     12  C2  <0> d           0.002  -0.004   0.002  0.00  0.00     0.079 A 
ATOM     13  C1  <0> d          -0.018   1.503   0.010  0.00  0.00     0.075 C 
ATOM     14  N2  <0> d           0.023  -0.776   1.058  0.00  0.00    -0.178 NA
ATOM     15  N1  <0> d           0.034  -2.109   0.631  0.00  0.00    -0.287 N 
ATOM     16  C4  <0> d           0.028  -2.112  -0.727  0.00  0.00     0.141 A 
ATOM     17  H1  <0> d           0.048  -2.892   1.203  0.00  0.00     0.188 HD
ENDBRANCH   8  11
ENDBRANCH   1   7
BRANCH   6  18
ATOM     18  S1  <0> d           0.024  -3.461  -5.593  0.00  0.00    -0.120 SA
BRANCH  18  19
ATOM     19  C12 <0> d           0.027  -4.233  -7.234  0.00  0.00     0.182 C 
BRANCH  19  20
ATOM     20  C13 <0> d           0.049  -5.733  -7.083  0.00  0.00     0.227 C 
ATOM     21  O2  <0> d           0.062  -6.231  -5.978  0.00  0.00    -0.273 OA
ATOM     22  N4  <0> d           0.055  -6.520  -8.178  0.00  0.00    -0.358 N 
ATOM     23  H13 <0> d           0.045  -6.121  -9.062  0.00  0.00     0.162 HD
BRANCH  22  24
ATOM     24  C14 <0> d           0.077  -7.977  -8.031  0.00  0.00     0.148 C 
BRANCH  24  25
ATOM     25  C15 <0> d           0.079  -8.629  -9.416  0.00  0.00     0.186 C 
BRANCH  25  26
ATOM     26  O3  <0> d           1.292  -8.299 -10.095  0.00  0.00    -0.394 OA
ATOM     27  C16 <0> d           1.395  -8.861 -11.405  0.00  0.00     0.201 C 
ENDBRANCH  25  26
ENDBRANCH  24  25
ENDBRANCH  22  24
ENDBRANCH  19  20
ENDBRANCH  18  19
ENDBRANCH   6  18
TORSDOF 8
