REMARK  3 active torsions:
REMARK  status: ('A' for Active; 'I' for Inactive)
REMARK    1  A    between atoms: C4_4  and  N4_16 
REMARK    2  A    between atoms: N1_7  and  C7_8 
REMARK    3  A    between atoms: N3_11  and  C10_13 
ROOT
ATOM      1  C1  <0> d          -0.019   1.526   0.010  0.00  0.00     0.032 C 
ATOM      2  C2  <0> d           0.002  -0.004   0.002  0.00  0.00     0.082 C 
ATOM      3  C3  <0> d          -1.434  -0.537   0.020  0.00  0.00     0.057 C 
ATOM      4  C4  <0> d          -2.101  -0.151   1.343  0.00  0.00     0.187 C 
ATOM      5  C5  <0> d          -1.335  -0.786   2.506  0.00  0.00     0.052 C 
ATOM      6  C6  <0> d           0.102  -0.256   2.516  0.00  0.00     0.125 C 
ATOM      7  N1  <0> d           0.706  -0.494   1.195  0.00  0.00    -0.374 N 
ENDROOT
BRANCH   7   8
ATOM      8  C7  <0> d           1.931  -1.178   1.075  0.00  0.00     0.067 A 
ATOM      9  C9  <0> d           2.672  -1.675   2.097  0.00  0.00     0.143 A 
ATOM     10  N3  <0> d           3.774  -2.261   1.557  0.00  0.00    -0.275 N 
ATOM     11  N2  <0> d           3.705  -2.108   0.167  0.00  0.00    -0.183 NA
ATOM     12  C8  <0> d           2.604  -1.461  -0.122  0.00  0.00     0.169 A 
BRANCH  10  13
ATOM     13  C10 <0> d           4.846  -2.930   2.299  0.00  0.00     0.101 C 
ATOM     14  C11 <0> d           5.867  -1.891   2.768  0.00  0.00     0.034 C 
ATOM     15  C12 <0> d           4.255  -3.648   3.514  0.00  0.00     0.034 C 
ENDBRANCH  10  13
ENDBRANCH   7   8
BRANCH   4  16
ATOM     16  N4  <0> d          -3.489  -0.633   1.350  0.00  0.00    -0.075 N 
ATOM     17  H21 <0> d          -3.497  -1.637   1.249  0.00  0.00     0.274 HD
ATOM     18  H22 <0> d          -3.928  -0.379   2.221  0.00  0.00     0.274 HD
ATOM     19  H23 <0> d          -3.994  -0.214   0.583  0.00  0.00     0.274 HD
ENDBRANCH   4  16
TORSDOF 3
