REMARK  3 active torsions:
REMARK  status: ('A' for Active; 'I' for Inactive)
REMARK    1  A    between atoms: C6_6  and  C7_7 
REMARK    2  A    between atoms: C8_8  and  C10_13 
REMARK    3  A    between atoms: C9_11  and  N2_12 
ROOT
ATOM      1  C7  <0> d          -1.270  -0.765   0.011  0.00  0.00     0.054 A 
ATOM      2  C8  <0> d          -1.732  -1.608   1.045  0.00  0.00     0.083 A 
ATOM      3  N1  <0> d          -2.885  -2.097   0.686  0.00  0.00    -0.130 NA
ATOM      4  O1  <0> d          -3.215  -1.590  -0.593  0.00  0.00    -0.195 OA
ATOM      5  C9  <0> d          -2.224  -0.775  -0.990  0.00  0.00     0.179 A 
ENDROOT
BRANCH   1   6
ATOM      6  C6  <0> d           0.002  -0.004   0.002  0.00  0.00    -0.019 A 
ATOM      7  C1  <0> d          -0.017   1.390   0.010  0.00  0.00     0.014 A 
ATOM      8  C2  <0> d           1.170   2.094   0.002  0.00  0.00     0.024 A 
ATOM      9  C3  <0> d           2.378   1.418  -0.013  0.00  0.00     0.034 A 
ATOM     10  C4  <0> d           2.403   0.034  -0.022  0.00  0.00     0.024 A 
ATOM     11 Cl1  <0> d           3.868   2.309  -0.024  0.00  0.00    -0.084 Cl
ATOM     12  C5  <0> d           1.221  -0.680  -0.014  0.00  0.00     0.014 A 
ENDBRANCH   1   6
BRANCH   5  13
ATOM     13  N2  <0> d          -2.167  -0.078  -2.178  0.00  0.00    -0.377 N 
ATOM     14  H6  <0> d          -1.402   0.486  -2.373  0.00  0.00     0.158 HD
ATOM     15  H7  <0> d          -2.891  -0.152  -2.819  0.00  0.00     0.158 HD
ENDBRANCH   5  13
BRANCH   2  16
ATOM     16  C10 <0> d          -1.015  -1.893   2.339  0.00  0.00     0.065 C 
ATOM     17  C14 <0> d          -1.890  -1.454   3.516  0.00  0.00     0.178 C 
ATOM     18  O2  <0> d          -1.234  -1.780   4.743  0.00  0.00    -0.390 OA
ATOM     19  C13 <0> d          -0.990  -3.176   4.923  0.00  0.00     0.167 C 
ATOM     20  C12 <0> d          -0.078  -3.683   3.803  0.00  0.00     0.027 C 
ATOM     21  C11 <0> d          -0.737  -3.395   2.450  0.00  0.00     0.015 C 
ENDBRANCH   2  16
TORSDOF 3
