REMARK  5 active torsions:
REMARK  status: ('A' for Active; 'I' for Inactive)
REMARK    1  A    between atoms: C4_7  and  N3_8 
REMARK       I    between atoms: N3_8  and  C5_9 
REMARK    2  A    between atoms: C5_9  and  C6_11 
REMARK    3  A    between atoms: C10_15  and  S1_17 
REMARK    4  A    between atoms: S1_17  and  C12_20 
REMARK    5  A    between atoms: C12_20  and  C13_21 
ROOT
ATOM      1  C6  <0> d           0.059  -0.868   4.830  0.00  0.00     0.033 A 
ATOM      2  C7  <0> d           0.037   0.494   5.139  0.00  0.00     0.017 A 
ATOM      3  C8  <0> d           0.043   0.898   6.458  0.00  0.00     0.002 A 
ATOM      4  C9  <0> d           0.071  -0.042   7.473  0.00  0.00     0.023 A 
ATOM      5  C10 <0> d           0.094  -1.392   7.174  0.00  0.00     0.060 A 
ATOM      6  C11 <0> d           0.082  -1.810   5.859  0.00  0.00     0.040 A 
ENDROOT
BRANCH   1   7
ATOM      7  C5  <0> d           0.052  -1.309   3.420  0.00  0.00     0.257 C 
ATOM      8  N3  <0> d           0.030  -0.396   2.428  0.00  0.00    -0.307 N 
ATOM      9  H5  <0> d           0.019   0.551   2.641  0.00  0.00     0.170 HD
ATOM     10  O1  <0> d           0.066  -2.495   3.153  0.00  0.00    -0.267 OA
BRANCH   8  11
ATOM     11  C4  <0> d           0.024  -0.811   1.098  0.00  0.00     0.132 A 
ATOM     12  C2  <0> d           0.002  -0.004   0.002  0.00  0.00     0.009 A 
ATOM     13  C1  <0> d          -0.018   1.503   0.010  0.00  0.00     0.054 C 
ATOM     14  C3  <0> d           0.009  -0.821  -1.132  0.00  0.00     0.060 A 
ATOM     15  N1  <0> d           0.028  -2.069  -0.743  0.00  0.00    -0.178 NA
ATOM     16  C14 <0> d          -0.004  -0.343  -2.561  0.00  0.00     0.073 C 
ATOM     17  N2  <0> d           0.034  -2.096   0.658  0.00  0.00    -0.262 N 
ATOM     18  H1  <0> d           0.047  -2.891   1.214  0.00  0.00     0.191 HD
ENDBRANCH   8  11
ENDBRANCH   1   7
BRANCH   5  19
ATOM     19  S1  <0> d           0.131  -2.580   8.474  0.00  0.00     0.183 S 
ATOM     20  O2  <0> d           0.749  -3.725   7.902  0.00  0.00    -0.222 OA
ATOM     21  O3  <0> d           0.733  -1.902   9.568  0.00  0.00    -0.222 OA
BRANCH  19  22
ATOM     22  C12 <0> d          -1.612  -2.928   8.838  0.00  0.00     0.263 C 
BRANCH  22  23
ATOM     23  C13 <0> d          -1.702  -3.959   9.965  0.00  0.00     0.400 C 
ATOM     24  F1  <0> d          -1.079  -3.453  11.111  0.00  0.00    -0.170 F 
ATOM     25  F2  <0> d          -3.046  -4.227  10.246  0.00  0.00    -0.170 F 
ATOM     26  F3  <0> d          -1.064  -5.139   9.569  0.00  0.00    -0.170 F 
ENDBRANCH  22  23
ENDBRANCH  19  22
ENDBRANCH   5  19
TORSDOF 5
