REMARK  6 active torsions:
REMARK  status: ('A' for Active; 'I' for Inactive)
REMARK    1  A    between atoms: C2_2  and  C3_3 
REMARK    2  A    between atoms: C4_6  and  C5_8 
REMARK    3  A    between atoms: C5_8  and  S1_9 
REMARK    4  A    between atoms: S1_9  and  C6_10 
REMARK    5  A    between atoms: C8_13  and  C9_15 
REMARK    6  A    between atoms: C9_15  and  C10_16 
REMARK       I    between atoms: C10_16  and  N4_18 
ROOT
ATOM      1  C6  <0> d           0.518  -3.664  -6.506  0.00  0.00     0.135 A 
ATOM      2  N3  <0> d           0.628  -2.813  -7.505  0.00  0.00    -0.238 NA
ATOM      3  C7  <0> d           0.495  -3.212  -8.758  0.00  0.00     0.046 A 
ATOM      4  C8  <0> d           0.242  -4.527  -8.962  0.00  0.00     0.018 A 
ATOM      5  S2  <0> d           0.218  -5.127  -7.281  0.00  0.00    -0.066 SA
ATOM      6  C11 <0> d           0.619  -2.247  -9.908  0.00  0.00     0.071 C 
ENDROOT
BRANCH   1   7
ATOM      7  S1  <0> d           0.659  -3.348  -4.778  0.00  0.00    -0.095 SA
BRANCH   7   8
ATOM      8  C5  <0> d           0.983  -1.566  -4.683  0.00  0.00     0.170 C 
BRANCH   8   9
ATOM      9  C4  <0> d           1.127  -1.158  -3.240  0.00  0.00     0.178 A 
ATOM     10  N2  <0> d           2.232  -1.134  -2.551  0.00  0.00    -0.126 NA
ATOM     11  N1  <0> d           1.982  -0.735  -1.354  0.00  0.00    -0.127 NA
ATOM     12  C3  <0> d           0.707  -0.490  -1.238  0.00  0.00     0.169 A 
ATOM     13  O1  <0> d           0.137  -0.756  -2.425  0.00  0.00    -0.277 OA
BRANCH  12  14
ATOM     14  C2  <0> d           0.002  -0.004   0.002  0.00  0.00     0.084 C 
ATOM     15  C1  <0> d          -0.019   1.526   0.010  0.00  0.00     0.013 C 
ENDBRANCH  12  14
ENDBRANCH   8   9
ENDBRANCH   7   8
ENDBRANCH   1   7
BRANCH   4  16
ATOM     16  C9  <0> d           0.042  -5.277 -10.253  0.00  0.00     0.150 C 
BRANCH  16  17
ATOM     17  C10 <0> d           1.370  -5.786 -10.750  0.00  0.00     0.220 C 
ATOM     18  O2  <0> d           2.381  -5.561 -10.118  0.00  0.00    -0.273 OA
ATOM     19  N4  <0> d           1.436  -6.491 -11.897  0.00  0.00    -0.370 N 
ATOM     20  H10 <0> d           0.628  -6.671 -12.403  0.00  0.00     0.159 HD
ATOM     21  H11 <0> d           2.291  -6.818 -12.217  0.00  0.00     0.159 HD
ENDBRANCH  16  17
ENDBRANCH   4  16
TORSDOF 6
