REMARK  4 active torsions:
REMARK  status: ('A' for Active; 'I' for Inactive)
REMARK    1  A    between atoms: C4_5  and  C6_8 
REMARK    2  A    between atoms: C6_8  and  N3_9 
REMARK    3  A    between atoms: N3_9  and  C7_10 
REMARK    4  A    between atoms: C7_10  and  C8_11 
ROOT
ATOM      1  N3  <0> d          -1.314  -4.692  -0.191  0.00  0.00    -0.067 N 
ATOM      2  H9  <0> d          -1.860  -4.367   0.593  0.00  0.00     0.277 HD
ATOM      3  H20 <0> d          -1.725  -4.356  -1.050  0.00  0.00     0.277 HD
ENDROOT
BRANCH   1   4
ATOM      4  C6  <0> d           0.059  -4.184  -0.075  0.00  0.00     0.292 C 
BRANCH   4   5
ATOM      5  C4  <0> d           0.039  -2.677  -0.067  0.00  0.00     0.077 A 
ATOM      6  N1  <0> d           0.024  -2.010  -1.207  0.00  0.00    -0.260 NA
ATOM      7  C3  <0> d           0.006  -0.689  -1.200  0.00  0.00     0.143 A 
ATOM      8  C2  <0> d           0.002  -0.004   0.002  0.00  0.00     0.048 A 
ATOM      9  C1  <0> d          -0.018   1.503   0.010  0.00  0.00     0.072 C 
ATOM     10  N2  <0> d           0.022  -0.671   1.143  0.00  0.00    -0.262 NA
ATOM     11  C5  <0> d           0.035  -1.992   1.135  0.00  0.00     0.145 A 
ENDBRANCH   4   5
ENDBRANCH   1   4
BRANCH   1  12
ATOM     12  C7  <0> d          -1.294  -6.161  -0.199  0.00  0.00     0.264 C 
BRANCH  12  13
ATOM     13  C8  <0> d          -2.725  -6.690  -0.321  0.00  0.00     0.147 C 
ATOM     14  O1  <0> d          -3.266  -6.312  -1.588  0.00  0.00    -0.384 OA
ATOM     15  C12 <0> d          -4.615  -6.737  -1.796  0.00  0.00     0.168 C 
ATOM     16  C11 <0> d          -4.683  -8.265  -1.739  0.00  0.00     0.026 C 
ATOM     17  C10 <0> d          -4.143  -8.742  -0.387  0.00  0.00     0.004 C 
ATOM     18  C9  <0> d          -2.716  -8.216  -0.204  0.00  0.00     0.034 C 
ENDBRANCH  12  13
ENDBRANCH   1  12
TORSDOF 4
