REMARK  3 active torsions:
REMARK  status: ('A' for Active; 'I' for Inactive)
REMARK    1  A    between atoms: C4_4  and  O1_9 
REMARK    2  A    between atoms: C7_7  and  N1_8 
REMARK    3  A    between atoms: O1_9  and  C8_10 
ROOT
ATOM      1  C1  <0> d           0.056   1.506  -0.076  0.00  0.00     0.050 C 
ATOM      2  C2  <0> d          -0.687   1.762   1.210  0.00  0.00    -0.033 A 
ATOM      3  C3  <0> d          -2.049   1.990   1.187  0.00  0.00     0.045 A 
ATOM      4  C4  <0> d          -2.734   2.221   2.371  0.00  0.00     0.070 A 
ATOM      5  C5  <0> d          -2.050   2.234   3.578  0.00  0.00     0.039 A 
ATOM      6  C6  <0> d          -0.687   2.012   3.601  0.00  0.00     0.032 A 
ATOM      7  C7  <0> d          -0.001   1.776   2.417  0.00  0.00     0.031 A 
ENDROOT
BRANCH   4   8
ATOM      8  O1  <0> d          -4.076   2.440   2.349  0.00  0.00    -0.345 OA
BRANCH   8   9
ATOM      9  C8  <0> d          -4.696   2.794   3.586  0.00  0.00     0.143 C 
ATOM     10  C11 <0> d          -6.007   3.584   3.309  0.00  0.00     0.172 C 
ATOM     11  S1  <0> d          -6.875   3.373   4.921  0.00  0.00     0.147 S 
ATOM     12  C10 <0> d          -6.008   1.873   5.540  0.00  0.00     0.143 C 
ATOM     13  O2  <0> d          -6.557   4.471   5.765  0.00  0.00    -0.228 OA
ATOM     14  O3  <0> d          -8.237   3.050   4.674  0.00  0.00    -0.228 OA
ATOM     15  C9  <0> d          -5.061   1.520   4.367  0.00  0.00     0.048 C 
ENDBRANCH   8   9
ENDBRANCH   4   8
BRANCH   7  16
ATOM     16  N1  <0> d           1.380   1.550   2.440  0.00  0.00    -0.399 N 
ATOM     17  H8  <0> d           1.923   1.560   3.397  0.00  0.00     0.156 HD
ATOM     18  H9  <0> d           1.922   1.363   1.502  0.00  0.00     0.156 HD
ENDBRANCH   7  16
TORSDOF 3
