REMARK  5 active torsions:
REMARK  status: ('A' for Active; 'I' for Inactive)
REMARK    1  A    between atoms: C2_2  and  C3_3 
REMARK    2  A    between atoms: C2_2  and  N1_12 
REMARK    3  A    between atoms: C6_6  and  O1_10 
REMARK    4  A    between atoms: N1_12  and  C10_13 
REMARK    5  A    between atoms: C10_13  and  C12_15 
ROOT
ATOM      1  C1  <0> d          -0.154   1.610   0.315  0.00  0.00     0.045 C 
ATOM      2  C2  <0> d          -0.030   0.103   0.080  0.00  0.00     0.215 C 
ENDROOT
BRANCH   2   3
ATOM      3  C3  <0> d          -1.399  -0.526   0.122  0.00  0.00    -0.027 A 
ATOM      4  C8  <0> d          -2.056  -0.829  -1.056  0.00  0.00     0.031 A 
ATOM      5  C7  <0> d          -3.309  -1.411  -1.019  0.00  0.00     0.044 A 
ATOM      6  C6  <0> d          -3.911  -1.682   0.202  0.00  0.00     0.085 A 
ATOM      7 Br1  <0> d          -4.204  -1.833  -2.630  0.00  0.00    -0.048 Br
ATOM      8  C5  <0> d          -3.252  -1.372   1.382  0.00  0.00     0.039 A 
ATOM      9  C4  <0> d          -1.997  -0.795   1.340  0.00  0.00     0.012 A 
BRANCH   6  10
ATOM     10  O1  <0> d          -5.145  -2.251   0.241  0.00  0.00    -0.355 OA
ATOM     11  C9  <0> d          -5.704  -2.502   1.532  0.00  0.00     0.210 C 
ENDBRANCH   6  10
ENDBRANCH   2   3
BRANCH   2  12
ATOM     12  N1  <0> d           0.814  -0.488   1.127  0.00  0.00    -0.056 N 
ATOM     13  H12 <0> d           0.448  -0.239   2.034  0.00  0.00     0.278 HD
ATOM     14  H16 <0> d           0.816  -1.492   1.029  0.00  0.00     0.278 HD
BRANCH  12  15
ATOM     15  C10 <0> d           2.186   0.020   0.995  0.00  0.00     0.257 C 
ATOM     16  C11 <0> d           3.031  -0.485   2.166  0.00  0.00     0.049 C 
BRANCH  15  17
ATOM     17  C12 <0> d           2.780  -0.468  -0.301  0.00  0.00     0.204 A 
ATOM     18  N2  <0> d           3.471   0.251  -1.173  0.00  0.00    -0.109 NA
ATOM     19  N3  <0> d           3.802  -0.529  -2.145  0.00  0.00    -0.021 NA
ATOM     20  N4  <0> d           3.343  -1.709  -1.911  0.00  0.00    -0.021 NA
ATOM     21  N5  <0> d           2.717  -1.700  -0.785  0.00  0.00    -0.109 NA
ENDBRANCH  15  17
ENDBRANCH  12  15
ENDBRANCH   2  12
TORSDOF 5
