REMARK  4 active torsions:
REMARK  status: ('A' for Active; 'I' for Inactive)
REMARK    1  A    between atoms: O1_2  and  C2_3 
REMARK    2  A    between atoms: C5_6  and  C8_10 
REMARK    3  A    between atoms: C8_10  and  C9_11 
REMARK    4  A    between atoms: C8_10  and  N2_22 
ROOT
ATOM      1  C8  <0> d           2.504  -2.503  -4.383  0.00  0.00     0.249 C 
ENDROOT
BRANCH   1   2
ATOM      2  C5  <0> d           1.835  -1.835  -3.209  0.00  0.00    -0.022 A 
ATOM      3  C4  <0> d           1.786  -0.455  -3.137  0.00  0.00     0.012 A 
ATOM      4  C3  <0> d           1.173   0.160  -2.062  0.00  0.00     0.039 A 
ATOM      5  C2  <0> d           0.606  -0.607  -1.056  0.00  0.00     0.085 A 
ATOM      6  C7  <0> d           0.661  -1.992  -1.128  0.00  0.00     0.044 A 
ATOM      7  C6  <0> d           1.271  -2.603  -2.208  0.00  0.00     0.031 A 
ATOM      8 Br1  <0> d          -0.103  -3.043   0.246  0.00  0.00    -0.048 Br
BRANCH   5   9
ATOM      9  O1  <0> d           0.002  -0.004   0.002  0.00  0.00    -0.355 OA
ATOM     10  C1  <0> d          -0.017   1.425   0.010  0.00  0.00     0.210 C 
ENDBRANCH   5   9
ENDBRANCH   1   2
BRANCH   1  11
ATOM     11  C9  <0> d           1.457  -2.954  -5.369  0.00  0.00    -0.021 A 
ATOM     12  C14 <0> d           1.200  -2.194  -6.494  0.00  0.00     0.049 A 
ATOM     13  C13 <0> d           0.241  -2.610  -7.404  0.00  0.00     0.108 A 
ATOM     14  C12 <0> d          -0.468  -3.789  -7.172  0.00  0.00     0.071 A 
ATOM     15  O2  <0> d          -0.215  -2.089  -8.569  0.00  0.00    -0.259 OA
ATOM     16  C11 <0> d          -0.208  -4.543  -6.038  0.00  0.00     0.033 A 
ATOM     17  N1  <0> d          -1.351  -3.939  -8.241  0.00  0.00    -0.300 N 
ATOM     18  C10 <0> d           0.753  -4.123  -5.139  0.00  0.00     0.012 A 
ATOM     19  C15 <0> d          -1.169  -2.891  -9.067  0.00  0.00     0.370 A 
ATOM     20  H2  <0> d          -1.981  -4.666  -8.366  0.00  0.00     0.171 HD
ATOM     21  O3  <0> d          -1.776  -2.700 -10.104  0.00  0.00    -0.238 OA
ENDBRANCH   1  11
BRANCH   1  22
ATOM     22  N2  <0> d           3.268  -3.667  -3.914  0.00  0.00    -0.067 N 
ATOM     23  H12 <0> d           2.643  -4.320  -3.466  0.00  0.00     0.275 HD
ATOM     24  H13 <0> d           3.716  -4.114  -4.699  0.00  0.00     0.275 HD
ATOM     25  H14 <0> d           3.969  -3.365  -3.254  0.00  0.00     0.275 HD
ENDBRANCH   1  22
TORSDOF 4
