REMARK  6 active torsions:
REMARK  status: ('A' for Active; 'I' for Inactive)
REMARK    1  A    between atoms: N1_2  and  C2_3 
REMARK       I    between atoms: N1_2  and  C5_8 
REMARK    2  A    between atoms: C2_3  and  C3_4 
REMARK    3  A    between atoms: C3_4  and  C4_5 
REMARK    4  A    between atoms: C5_8  and  C6_10 
REMARK    5  A    between atoms: C6_10  and  C7_11 
REMARK    6  A    between atoms: C7_11  and  N3_12 
ROOT
ATOM      1  C6  <0> d          -0.023   0.089  -2.470  0.00  0.00     0.123 C 
ENDROOT
BRANCH   1   2
ATOM      2  C5  <0> d           0.000  -0.672  -1.169  0.00  0.00     0.221 C 
ATOM      3  N1  <0> d           0.002  -0.004   0.002  0.00  0.00    -0.356 N 
ATOM      4  C1  <0> d          -0.018   1.461   0.010  0.00  0.00     0.152 C 
ATOM      5  O1  <0> d           0.017  -1.884  -1.175  0.00  0.00    -0.273 OA
BRANCH   3   6
ATOM      6  C2  <0> d           0.024  -0.743   1.267  0.00  0.00     0.132 C 
BRANCH   6   7
ATOM      7  C3  <0> d          -1.411  -1.020   1.720  0.00  0.00     0.089 C 
BRANCH   7   8
ATOM      8  C4  <0> d          -1.388  -1.781   3.021  0.00  0.00     0.072 C 
ATOM      9  S1  <0> d           0.009  -2.165   3.699  0.00  0.00    -0.066 SA
ATOM     10  N2  <0> d          -2.545  -2.137   3.614  0.00  0.00    -0.393 N 
ATOM     11  H8  <0> d          -3.392  -1.903   3.204  0.00  0.00     0.156 HD
ATOM     12  H9  <0> d          -2.530  -2.626   4.452  0.00  0.00     0.156 HD
ENDBRANCH   7   8
ENDBRANCH   6   7
ENDBRANCH   3   6
ENDBRANCH   1   2
BRANCH   1  13
ATOM     13  C7  <0> d          -0.020  -0.899  -3.638  0.00  0.00     0.141 C 
BRANCH  13  14
ATOM     14  N3  <0> d          -0.042  -0.160  -4.903  0.00  0.00    -0.317 N 
ATOM     15  C15 <0> d           1.062   0.234  -5.559  0.00  0.00     0.228 A 
ATOM     16  C14 <0> d           0.604   0.957  -6.808  0.00  0.00     0.144 A 
ATOM     17  O2  <0> d           2.210   0.044  -5.217  0.00  0.00    -0.273 OA
ATOM     18  C13 <0> d          -0.905   0.907  -6.729  0.00  0.00    -0.022 A 
ATOM     19  C8  <0> d          -1.212   0.222  -5.560  0.00  0.00     0.043 A 
ATOM     20  C12 <0> d          -1.902   1.384  -7.549  0.00  0.00     0.010 A 
ATOM     21  C9  <0> d          -2.551   0.023  -5.227  0.00  0.00     0.030 A 
ATOM     22  C10 <0> d          -3.548   0.502  -6.051  0.00  0.00     0.002 A 
ATOM     23  C11 <0> d          -3.229   1.182  -7.212  0.00  0.00     0.001 A 
ENDBRANCH  13  14
ENDBRANCH   1  13
TORSDOF 6
