REMARK  6 active torsions:
REMARK  status: ('A' for Active; 'I' for Inactive)
REMARK    1  A    between atoms: C3_3  and  C16_18 
REMARK    2  A    between atoms: N1_6  and  C6_7 
REMARK    3  A    between atoms: C6_7  and  C7_8 
REMARK    4  A    between atoms: C16_18  and  C17_19 
REMARK       I    between atoms: C17_19  and  N2_21 
REMARK    5  A    between atoms: N2_21  and  C18_22 
REMARK    6  A    between atoms: C18_22  and  C19_23 
ROOT
ATOM      1  C1  <0> d           3.907   4.783  -0.259  0.00  0.00     0.069 C 
ATOM      2  C2  <0> d           3.040   3.560  -0.112  0.00  0.00     0.015 A 
ATOM      3  C3  <0> d           1.695   3.539  -0.210  0.00  0.00    -0.011 A 
ATOM      4  C4  <0> d           1.301   2.157   0.001  0.00  0.00     0.041 A 
ATOM      5  C5  <0> d           2.470   1.437   0.218  0.00  0.00     0.027 A 
ATOM      6  N1  <0> d           3.494   2.293   0.144  0.00  0.00    -0.352 N 
ATOM      7  C10 <0> d           2.476  -0.047   0.482  0.00  0.00     0.067 C 
ATOM      8  C11 <0> d           1.090  -0.478   0.971  0.00  0.00    -0.036 C 
ATOM      9  C12 <0> d           0.002  -0.004   0.002  0.00  0.00     0.093 C 
ATOM     10  C13 <0> d          -0.019   1.518   0.010  0.00  0.00     0.162 C 
ATOM     11  O1  <0> d          -1.051   2.155   0.019  0.00  0.00    -0.292 OA
ATOM     12  C14 <0> d           0.832   0.126   2.353  0.00  0.00     0.015 C 
ATOM     13  C15 <0> d           1.044  -2.004   1.073  0.00  0.00     0.015 C 
ENDROOT
BRANCH   3  14
ATOM     14  C16 <0> d           0.787   4.710  -0.482  0.00  0.00     0.144 C 
BRANCH  14  15
ATOM     15  C17 <0> d           0.590   4.858  -1.969  0.00  0.00     0.222 C 
ATOM     16  O2  <0> d           1.134   4.088  -2.732  0.00  0.00    -0.273 OA
ATOM     17  N2  <0> d          -0.190   5.846  -2.450  0.00  0.00    -0.353 N 
ATOM     18  H25 <0> d          -0.684   6.544  -1.758  0.00  0.00     0.162 HD
BRANCH  17  19
ATOM     19  C18 <0> d          -0.382   5.990  -3.896  0.00  0.00     0.211 C 
BRANCH  19  20
ATOM     20  C19 <0> d          -1.290   7.161  -4.168  0.00  0.00     0.186 A 
ATOM     21  O3  <0> d          -2.630   7.123  -4.263  0.00  0.00    -0.276 OA
ATOM     22  C20 <0> d          -3.027   8.382  -4.512  0.00  0.00     0.165 A 
ATOM     23  N4  <0> d          -1.959   9.127  -4.560  0.00  0.00    -0.127 NA
ATOM     24  C21 <0> d          -4.448   8.848  -4.701  0.00  0.00     0.102 C 
ATOM     25  N3  <0> d          -0.921   8.398  -4.349  0.00  0.00    -0.125 NA
ENDBRANCH  19  20
ENDBRANCH  17  19
ENDBRANCH  14  15
ENDBRANCH   3  14
BRANCH   6  26
ATOM     26  C6  <0> d           4.902   1.928   0.312  0.00  0.00     0.133 C 
BRANCH  26  27
ATOM     27  C7  <0> d           5.498   1.553  -1.046  0.00  0.00    -0.004 C 
ATOM     28  C8  <0> d           5.505   2.782  -1.958  0.00  0.00     0.011 C 
ATOM     29  C9  <0> d           6.931   1.052  -0.854  0.00  0.00     0.011 C 
ENDBRANCH  26  27
ENDBRANCH   6  26
TORSDOF 6
