REMARK  4 active torsions:
REMARK  status: ('A' for Active; 'I' for Inactive)
REMARK    1  A    between atoms: C4_4  and  N1_9 
REMARK       I    between atoms: N1_9  and  C9_10 
REMARK    2  A    between atoms: C9_10  and  C10_12 
REMARK    3  A    between atoms: C13_15  and  N2_17 
REMARK       I    between atoms: N2_17  and  C14_18 
REMARK    4  A    between atoms: C14_18  and  C15_20 
ROOT
ATOM      1  N1  <0> d           1.203   3.098  -3.478  0.00  0.00    -0.352 N 
ATOM      2  C9  <0> d           0.721   4.182  -4.118  0.00  0.00     0.258 C 
ATOM      3  O1  <0> d          -0.110   4.889  -3.577  0.00  0.00    -0.267 OA
ATOM      4  H15 <0> d           1.864   2.535  -3.910  0.00  0.00     0.163 HD
ENDROOT
BRANCH   1   5
ATOM      5  C4  <0> d           0.727   2.770  -2.128  0.00  0.00     0.089 C 
ATOM      6  C3  <0> d          -0.543   1.927  -2.233  0.00  0.00     0.063 C 
ATOM      7  C2  <0> d          -1.048   1.551  -0.843  0.00  0.00     0.121 C 
ATOM      8  C1  <0> d          -2.143   0.475  -1.020  0.00  0.00     0.046 C 
ATOM      9  C18 <0> d          -1.713   2.771  -0.192  0.00  0.00     0.046 C 
ATOM     10  N3  <0> d          -0.027   0.945   0.053  0.00  0.00    -0.059 N 
ATOM     11  C6  <0> d           1.318   1.579  -0.002  0.00  0.00     0.121 C 
ATOM     12  H27 <0> d           0.076  -0.043  -0.205  0.00  0.00     0.279 HD
ATOM     13  H28 <0> d          -0.371   1.013   1.018  0.00  0.00     0.279 HD
ATOM     14  C5  <0> d           1.795   1.952  -1.403  0.00  0.00     0.063 C 
ATOM     15  C7  <0> d           1.397   2.808   0.911  0.00  0.00     0.046 C 
ATOM     16  C8  <0> d           2.301   0.528   0.560  0.00  0.00     0.046 C 
ENDBRANCH   1   5
BRANCH   2  17
ATOM     17  C10 <0> d           1.194   4.508  -5.462  0.00  0.00     0.074 A 
ATOM     18  S1  <0> d           2.390   3.649  -6.469  0.00  0.00    -0.067 SA
ATOM     19  C13 <0> d           2.351   4.681  -7.861  0.00  0.00     0.077 A 
ATOM     20  C12 <0> d           1.429   5.644  -7.510  0.00  0.00     0.039 A 
ATOM     21  C11 <0> d           0.825   5.563  -6.285  0.00  0.00     0.027 A 
BRANCH  19  22
ATOM     22  N2  <0> d           3.074   4.566  -9.042  0.00  0.00    -0.321 N 
ATOM     23  C14 <0> d           3.939   3.546  -9.206  0.00  0.00     0.226 C 
ATOM     24  O2  <0> d           4.087   2.728  -8.323  0.00  0.00    -0.273 OA
ATOM     25  H18 <0> d           2.956   5.221  -9.748  0.00  0.00     0.169 HD
BRANCH  23  26
ATOM     26  C15 <0> d           4.723   3.422 -10.487  0.00  0.00     0.078 A 
ATOM     27  C17 <0> d           5.689   2.242 -10.612  0.00  0.00     0.015 A 
ATOM     28  C16 <0> d           4.385   2.251 -11.411  0.00  0.00     0.015 A 
ENDBRANCH  23  26
ENDBRANCH  19  22
ENDBRANCH   2  17
TORSDOF 4
