REMARK  2 active torsions:
REMARK  status: ('A' for Active; 'I' for Inactive)
REMARK    1  A    between atoms: C3_4  and  C13_16 
REMARK    2  A    between atoms: C5_6  and  N2_7 
ROOT
ATOM      1  C1  <0> d           0.429   0.678   1.141  0.00  0.00     0.046 A 
ATOM      2  C2  <0> d           1.612   1.392   1.098  0.00  0.00     0.090 A 
ATOM      3  N1  <0> d           2.337   1.437   0.000  0.00  0.00    -0.363 N 
ATOM      4  C3  <0> d           1.970   0.803  -1.109  0.00  0.00     0.072 A 
ATOM      5  C4  <0> d           0.792   0.063  -1.145  0.00  0.00     0.062 A 
ATOM      6  C5  <0> d           0.002  -0.004   0.002  0.00  0.00     0.034 A 
ATOM      7  H18 <0> d           3.163   1.946   0.001  0.00  0.00     0.165 HD
ENDROOT
BRANCH   6   8
ATOM      8  N2  <0> d          -1.183  -0.734   0.010  0.00  0.00    -0.371 N 
ATOM      9  C9  <0> d          -2.492  -0.105   0.133  0.00  0.00     0.113 C 
ATOM     10  C8  <0> d          -3.283  -0.551  -1.136  0.00  0.00     0.144 C 
ATOM     11  C10 <0> d          -2.556   1.414   0.062  0.00  0.00     0.028 C 
ATOM     12  O1  <0> d          -3.476  -1.945  -1.027  0.00  0.00    -0.382 OA
ATOM     13  C12 <0> d          -4.508   0.359  -1.071  0.00  0.00     0.034 C 
ATOM     14  C7  <0> d          -2.229  -2.653  -1.152  0.00  0.00     0.188 C 
ATOM     15  C6  <0> d          -1.214  -2.211  -0.100  0.00  0.00     0.149 C 
ATOM     16  C11 <0> d          -3.896   1.733  -0.649  0.00  0.00     0.005 C 
ENDBRANCH   6   8
BRANCH   4  17
ATOM     17  C13 <0> d           2.820   0.885  -2.316  0.00  0.00     0.121 C 
ATOM     18  S1  <0> d           2.954  -0.463  -3.363  0.00  0.00    -0.059 SA
ATOM     19  N3  <0> d           3.490   2.022  -2.592  0.00  0.00    -0.388 N 
ATOM     20  H16 <0> d           3.414   2.786  -1.999  0.00  0.00     0.157 HD
ATOM     21  H17 <0> d           4.047   2.076  -3.384  0.00  0.00     0.157 HD
ENDBRANCH   4  17
TORSDOF 2
