REMARK  5 active torsions:
REMARK  status: ('A' for Active; 'I' for Inactive)
REMARK    1  A    between atoms: C2_2  and  C3_3 
REMARK    2  A    between atoms: C2_2  and  S2_17 
REMARK       I    between atoms: C3_3  and  N1_5 
REMARK    3  A    between atoms: N1_5  and  C4_6 
REMARK    4  A    between atoms: C8_10  and  S1_12 
REMARK    5  A    between atoms: S1_12  and  N2_15 
ROOT
ATOM      1  C4  <0> d          -3.446  -0.966   1.218  0.00  0.00     0.036 A 
ATOM      2  C5  <0> d          -4.081  -1.419   0.069  0.00  0.00     0.029 A 
ATOM      3  C6  <0> d          -5.406  -1.804   0.120  0.00  0.00     0.004 A 
ATOM      4  C7  <0> d          -6.101  -1.738   1.314  0.00  0.00     0.025 A 
ATOM      5  C8  <0> d          -5.472  -1.287   2.460  0.00  0.00     0.081 A 
ATOM      6  C9  <0> d          -4.144  -0.907   2.416  0.00  0.00     0.054 A 
ENDROOT
BRANCH   1   7
ATOM      7  N1  <0> d          -2.103  -0.575   1.169  0.00  0.00    -0.326 N 
ATOM      8  C3  <0> d          -1.620   0.040   0.071  0.00  0.00     0.235 C 
ATOM      9  O1  <0> d          -2.325   0.179  -0.906  0.00  0.00    -0.272 OA
ATOM     10  H5  <0> d          -1.520  -0.747   1.925  0.00  0.00     0.169 HD
BRANCH   8  11
ATOM     11  C2  <0> d          -0.203   0.554   0.057  0.00  0.00     0.135 C 
ATOM     12  C1  <0> d          -0.141   1.896   0.790  0.00  0.00     0.031 C 
BRANCH  11  13
ATOM     13  S2  <0> d           0.343   0.775  -1.658  0.00  0.00    -0.160 SA
ATOM     14  C11 <0> d           2.089   1.244  -1.505  0.00  0.00     0.090 C 
ENDBRANCH  11  13
ENDBRANCH   8  11
ENDBRANCH   1   7
BRANCH   5  15
ATOM     15  S1  <0> d          -6.361  -1.204   3.978  0.00  0.00     0.258 S 
ATOM     16  O2  <0> d          -5.704  -0.234   4.782  0.00  0.00    -0.201 OA
ATOM     17  O3  <0> d          -7.737  -1.105   3.638  0.00  0.00    -0.201 OA
BRANCH  15  18
ATOM     18  N2  <0> d          -6.166  -2.661   4.740  0.00  0.00    -0.320 N 
ATOM     19  C10 <0> d          -4.838  -3.076   5.198  0.00  0.00     0.159 C 
ATOM     20  H10 <0> d          -6.931  -3.240   4.883  0.00  0.00     0.171 HD
ENDBRANCH  15  18
ENDBRANCH   5  15
TORSDOF 5
