REMARK  5 active torsions:
REMARK  status: ('A' for Active; 'I' for Inactive)
REMARK    1  A    between atoms: N1_6  and  C6_7 
REMARK    2  A    between atoms: C7_8  and  C10_12 
REMARK       I    between atoms: C10_12  and  N2_14 
REMARK    3  A    between atoms: N2_14  and  C11_15 
REMARK    4  A    between atoms: C11_15  and  C12_16 
REMARK    5  A    between atoms: N5_20  and  C14_21 
ROOT
ATOM      1  C10 <0> d           0.180  -2.379   3.607  0.00  0.00     0.254 C 
ATOM      2  O1  <0> d           0.187  -3.020   2.573  0.00  0.00    -0.268 OA
ATOM      3  N2  <0> d           0.369  -3.001   4.787  0.00  0.00    -0.350 N 
ATOM      4  H8  <0> d           0.363  -2.490   5.612  0.00  0.00     0.163 HD
ENDROOT
BRANCH   1   5
ATOM      5  C7  <0> d          -0.036  -0.928   3.569  0.00  0.00     0.066 A 
ATOM      6  C6  <0> d          -0.127  -0.236   2.371  0.00  0.00     0.096 A 
ATOM      7  S1  <0> d          -0.362   1.359   2.835  0.00  0.00    -0.083 SA
ATOM      8  C9  <0> d          -0.360   1.173   4.605  0.00  0.00     0.053 A 
ATOM      9  C8  <0> d          -0.165  -0.148   4.778  0.00  0.00     0.027 A 
BRANCH   6  10
ATOM     10  N1  <0> d          -0.037  -0.747   1.080  0.00  0.00    -0.313 N 
ATOM     11  C2  <0> d          -1.068  -1.285   0.362  0.00  0.00     0.013 A 
ATOM     12  C1  <0> d          -2.493  -1.425   0.832  0.00  0.00     0.068 C 
ATOM     13  C3  <0> d          -0.592  -1.662  -0.841  0.00  0.00     0.027 A 
ATOM     14  C4  <0> d           0.784  -1.353  -0.868  0.00  0.00     0.027 A 
ATOM     15  C5  <0> d           1.097  -0.797   0.320  0.00  0.00     0.013 A 
ATOM     16  C17 <0> d           2.462  -0.310   0.735  0.00  0.00     0.068 C 
ENDBRANCH   6  10
ENDBRANCH   1   5
BRANCH   3  17
ATOM     17  C11 <0> d           0.585  -4.449   4.826  0.00  0.00     0.203 C 
BRANCH  17  18
ATOM     18  C12 <0> d           0.769  -4.893   6.254  0.00  0.00     0.147 A 
ATOM     19  N5  <0> d           0.992  -6.183   6.668  0.00  0.00    -0.304 N 
ATOM     20  C13 <0> d           1.109  -6.183   8.011  0.00  0.00     0.196 A 
ATOM     21  N4  <0> d           0.950  -4.910   8.430  0.00  0.00    -0.251 N 
ATOM     22  S2  <0> d           1.397  -7.548   9.003  0.00  0.00    -0.039 SA
ATOM     23  N3  <0> d           0.737  -4.120   7.292  0.00  0.00    -0.157 NA
ATOM     24  H18 <0> d           0.978  -4.599   9.349  0.00  0.00     0.191 HD
BRANCH  19  25
ATOM     25  C14 <0> d           1.091  -7.357   5.798  0.00  0.00     0.086 C 
ATOM     26  C15 <0> d           2.467  -8.004   5.970  0.00  0.00     0.032 C 
ATOM     27  C16 <0> d           0.004  -8.365   6.176  0.00  0.00     0.032 C 
ENDBRANCH  19  25
ENDBRANCH  17  18
ENDBRANCH   3  17
TORSDOF 5
