REMARK  5 active torsions:
REMARK  status: ('A' for Active; 'I' for Inactive)
REMARK    1  A    between atoms: C2_2  and  C4_4 
REMARK    2  A    between atoms: C2_2  and  C14_16 
REMARK    3  A    between atoms: C4_4  and  N1_5 
REMARK    4  A    between atoms: N1_5  and  C5_6 
REMARK    5  A    between atoms: C14_16  and  N2_17 
ROOT
ATOM      1  N1  <0> d          -2.019   0.864   1.065  0.00  0.00    -0.066 N 
ATOM      2  H10 <0> d          -1.552   0.693   1.943  0.00  0.00     0.278 HD
ATOM      3  H27 <0> d          -1.844   1.813   0.770  0.00  0.00     0.278 HD
ENDROOT
BRANCH   1   4
ATOM      4  C4  <0> d          -1.509  -0.067   0.050  0.00  0.00     0.243 C 
BRANCH   4   5
ATOM      5  C2  <0> d          -0.031   0.226  -0.213  0.00  0.00     0.000 C 
ATOM      6  C1  <0> d           0.123   1.663  -0.716  0.00  0.00     0.018 C 
ATOM      7  C3  <0> d           0.763   0.051   1.083  0.00  0.00     0.018 C 
BRANCH   5   8
ATOM      8  C14 <0> d           0.501  -0.744  -1.271  0.00  0.00     0.244 C 
BRANCH   8   9
ATOM      9  N2  <0> d           1.922  -0.467  -1.519  0.00  0.00    -0.078 N 
ATOM     10  C15 <0> d           2.741  -1.206  -0.549  0.00  0.00     0.269 C 
ATOM     11  C16 <0> d           2.273  -0.892  -2.881  0.00  0.00     0.269 C 
ATOM     12  H26 <0> d           2.094   0.522  -1.421  0.00  0.00     0.279 HD
ENDBRANCH   8   9
ENDBRANCH   5   8
ENDBRANCH   4   5
ENDBRANCH   1   4
BRANCH   1  13
ATOM     13  C5  <0> d          -3.465   0.662   1.233  0.00  0.00     0.219 C 
ATOM     14  C9  <0> d          -4.034   1.700   2.176  0.00  0.00    -0.021 A 
ATOM     15  C8  <0> d          -4.905   1.093   3.065  0.00  0.00    -0.048 A 
ATOM     16  C10 <0> d          -3.808   3.064   2.252  0.00  0.00     0.011 A 
ATOM     17  C7  <0> d          -4.981  -0.391   2.775  0.00  0.00     0.041 C 
ATOM     18  C13 <0> d          -5.547   1.853   4.027  0.00  0.00     0.026 A 
ATOM     19  C6  <0> d          -3.741  -0.697   1.910  0.00  0.00     0.042 C 
ATOM     20  C12 <0> d          -5.321   3.220   4.099  0.00  0.00     0.011 A 
ATOM     21  C11 <0> d          -4.450   3.823   3.211  0.00  0.00     0.019 A 
ATOM     22 Br1  <0> d          -6.202   4.256   5.413  0.00  0.00    -0.051 Br
ENDBRANCH   1  13
TORSDOF 5
