REMARK  2 active torsions:
REMARK  status: ('A' for Active; 'I' for Inactive)
REMARK    1  A    between atoms: N1_5  and  C5_7 
REMARK    2  A    between atoms: C5_7  and  C7_9 
REMARK       I    between atoms: C7_9  and  N3_11 
ROOT
ATOM      1  C1  <0> d          -0.018   1.503   0.010  0.00  0.00     0.074 C 
ATOM      2  C2  <0> d           0.002  -0.004   0.002  0.00  0.00     0.074 A 
ATOM      3  C3  <0> d           0.008  -0.818  -1.136  0.00  0.00     0.083 A 
ATOM      4  C4  <0> d           0.028  -2.108  -0.725  0.00  0.00     0.051 A 
ATOM      5  N1  <0> d           0.034  -2.109   0.625  0.00  0.00    -0.259 N 
ATOM      6  N2  <0> d           0.023  -0.777   1.058  0.00  0.00    -0.175 NA
ATOM      7  C9  <0> d           0.041  -3.324  -1.615  0.00  0.00     0.072 C 
ATOM      8 Cl1  <0> d          -0.008  -0.271  -2.784  0.00  0.00    -0.080 Cl
ENDROOT
BRANCH   5   9
ATOM      9  C5  <0> d           0.055  -3.295   1.486  0.00  0.00     0.198 C 
ATOM     10  C6  <0> d           1.308  -3.266   2.363  0.00  0.00     0.044 C 
BRANCH   9  11
ATOM     11  C7  <0> d          -1.172  -3.301   2.362  0.00  0.00     0.241 C 
ATOM     12  O1  <0> d          -1.983  -2.403   2.276  0.00  0.00    -0.271 OA
ATOM     13  N3  <0> d          -1.367  -4.303   3.241  0.00  0.00    -0.364 N 
ATOM     14  C8  <0> d          -2.559  -4.309   4.092  0.00  0.00     0.149 C 
ATOM     15  H8  <0> d          -0.718  -5.021   3.310  0.00  0.00     0.161 HD
ENDBRANCH   9  11
ENDBRANCH   5   9
TORSDOF 2
