REMARK  4 active torsions:
REMARK  status: ('A' for Active; 'I' for Inactive)
REMARK    1  A    between atoms: C3_4  and  C14_21 
REMARK    2  A    between atoms: N2_9  and  C8_14 
REMARK       I    between atoms: C14_21  and  N4_23 
REMARK    3  A    between atoms: N4_23  and  C15_24 
REMARK    4  A    between atoms: C15_24  and  C16_25 
ROOT
ATOM      1  C1  <0> d          -2.874   0.423  -1.498  0.00  0.00     0.156 C 
ATOM      2  N1  <0> d          -2.473   1.694  -0.889  0.00  0.00    -0.354 N 
ATOM      3  C2  <0> d          -3.291   2.733  -0.647  0.00  0.00     0.110 A 
ATOM      4  C3  <0> d          -2.563   3.748  -0.055  0.00  0.00     0.076 A 
ATOM      5  C4  <0> d          -1.226   3.294   0.051  0.00  0.00     0.086 A 
ATOM      6  C5  <0> d          -1.196   2.011  -0.473  0.00  0.00     0.131 A 
ATOM      7  C6  <0> d           0.034   1.311  -0.485  0.00  0.00     0.285 A 
ATOM      8  O1  <0> d           0.095   0.180  -0.934  0.00  0.00    -0.265 OA
ATOM      9  N2  <0> d           1.140   1.911   0.001  0.00  0.00    -0.228 N 
ATOM     10  C7  <0> d           1.092   3.158   0.501  0.00  0.00     0.334 A 
ATOM     11  O2  <0> d           2.109   3.666   0.931  0.00  0.00    -0.246 OA
ATOM     12  N3  <0> d          -0.059   3.857   0.536  0.00  0.00    -0.305 N 
ATOM     13  H1  <0> d          -0.069   4.755   0.902  0.00  0.00     0.171 HD
ENDROOT
BRANCH   4  14
ATOM     14  C14 <0> d          -3.079   5.059   0.370  0.00  0.00     0.255 C 
ATOM     15  O3  <0> d          -2.327   5.875   0.869  0.00  0.00    -0.268 OA
ATOM     16  N4  <0> d          -4.383   5.356   0.206  0.00  0.00    -0.352 N 
ATOM     17  H10 <0> d          -4.982   4.705  -0.192  0.00  0.00     0.163 HD
BRANCH  16  18
ATOM     18  C15 <0> d          -4.896   6.661   0.629  0.00  0.00     0.167 C 
BRANCH  18  19
ATOM     19  C16 <0> d          -6.373   6.739   0.338  0.00  0.00     0.037 A 
ATOM     20  C21 <0> d          -7.289   6.329   1.291  0.00  0.00     0.127 A 
ATOM     21  C20 <0> d          -8.646   6.402   1.023  0.00  0.00     0.043 A 
ATOM     22  F1  <0> d          -6.860   5.859   2.483  0.00  0.00    -0.205 F 
ATOM     23  C19 <0> d          -9.085   6.884  -0.196  0.00  0.00     0.006 A 
ATOM     24  C18 <0> d          -8.171   7.293  -1.148  0.00  0.00     0.043 A 
ATOM     25  C17 <0> d          -6.814   7.226  -0.880  0.00  0.00     0.127 A 
ATOM     26  F2  <0> d          -5.920   7.632  -1.809  0.00  0.00    -0.205 F 
ENDBRANCH  18  19
ENDBRANCH  16  18
ENDBRANCH   4  14
BRANCH   9  27
ATOM     27  C8  <0> d           2.360   1.221  -0.014  0.00  0.00     0.047 A 
ATOM     28  C13 <0> d           2.726   0.431   1.067  0.00  0.00     0.032 A 
ATOM     29  C12 <0> d           3.929  -0.247   1.050  0.00  0.00     0.026 A 
ATOM     30  C11 <0> d           4.769  -0.140  -0.045  0.00  0.00     0.034 A 
ATOM     31  C10 <0> d           4.407   0.647  -1.124  0.00  0.00     0.026 A 
ATOM     32 Cl1  <0> d           6.280  -0.995  -0.064  0.00  0.00    -0.084 Cl
ATOM     33  C9  <0> d           3.202   1.323  -1.113  0.00  0.00     0.032 A 
ENDBRANCH   9  27
TORSDOF 4
