REMARK  7 active torsions:
REMARK  status: ('A' for Active; 'I' for Inactive)
REMARK    1  A    between atoms: C2_2  and  C3_3 
REMARK    2  A    between atoms: C2_2  and  N2_14 
REMARK    3  A    between atoms: C6_6  and  S1_9 
REMARK    4  A    between atoms: S1_9  and  N1_12 
REMARK       I    between atoms: N2_14  and  C10_15 
REMARK       I    between atoms: C10_15  and  N3_17 
REMARK    5  A    between atoms: N3_17  and  C11_18 
REMARK    6  A    between atoms: C11_18  and  C12_19 
REMARK    7  A    between atoms: C12_19  and  N4_22 
ROOT
ATOM      1  N2  <0> d           0.834  -0.926  -1.117  0.00  0.00    -0.335 N 
ATOM      2  C10 <0> d           0.127  -0.903  -2.264  0.00  0.00     0.316 C 
ATOM      3  O3  <0> d          -1.038  -0.554  -2.252  0.00  0.00    -0.247 OA
ATOM      4  N3  <0> d           0.710  -1.267  -3.423  0.00  0.00    -0.341 N 
ATOM      5  H13 <0> d           1.763  -1.205  -1.126  0.00  0.00     0.165 HD
ATOM      6  H14 <0> d           1.639  -1.546  -3.432  0.00  0.00     0.164 HD
ENDROOT
BRANCH   1   7
ATOM      7  C2  <0> d           0.200  -0.531   0.143  0.00  0.00     0.115 C 
ATOM      8  C1  <0> d           0.278   0.989   0.298  0.00  0.00     0.037 C 
BRANCH   7   9
ATOM      9  C3  <0> d           0.916  -1.190   1.294  0.00  0.00    -0.036 A 
ATOM     10  C8  <0> d           0.194  -1.691   2.361  0.00  0.00     0.011 A 
ATOM     11  C7  <0> d           0.850  -2.300   3.415  0.00  0.00     0.026 A 
ATOM     12  C6  <0> d           2.228  -2.399   3.406  0.00  0.00     0.079 A 
ATOM     13  C5  <0> d           2.951  -1.894   2.341  0.00  0.00     0.026 A 
ATOM     14  C4  <0> d           2.295  -1.289   1.286  0.00  0.00     0.011 A 
BRANCH  12  15
ATOM     15  S1  <0> d           3.065  -3.171   4.751  0.00  0.00     0.258 S 
ATOM     16  O1  <0> d           2.128  -4.046   5.364  0.00  0.00    -0.201 OA
ATOM     17  O2  <0> d           4.314  -3.624   4.246  0.00  0.00    -0.201 OA
BRANCH  15  18
ATOM     18  N1  <0> d           3.404  -1.989   5.860  0.00  0.00    -0.320 N 
ATOM     19  C9  <0> d           2.312  -1.296   6.549  0.00  0.00     0.159 C 
ATOM     20  H9  <0> d           4.325  -1.755   6.053  0.00  0.00     0.171 HD
ENDBRANCH  15  18
ENDBRANCH  12  15
ENDBRANCH   7   9
ENDBRANCH   1   7
BRANCH   4  21
ATOM     21  C11 <0> d          -0.059  -1.242  -4.669  0.00  0.00     0.162 C 
BRANCH  21  22
ATOM     22  C12 <0> d           0.863  -1.571  -5.845  0.00  0.00     0.136 C 
ATOM     23  C13 <0> d           1.360  -3.012  -5.715  0.00  0.00     0.048 C 
ATOM     24  C14 <0> d           0.093  -1.414  -7.157  0.00  0.00     0.048 C 
BRANCH  22  25
ATOM     25  N4  <0> d           2.011  -0.655  -5.838  0.00  0.00    -0.061 N 
ATOM     26  C19 <0> d           2.877  -0.949  -6.986  0.00  0.00     0.236 C 
ATOM     27  C18 <0> d           4.116  -0.052  -6.938  0.00  0.00     0.028 C 
ATOM     28  C17 <0> d           3.679   1.415  -6.989  0.00  0.00     0.003 C 
ATOM     29  C16 <0> d           2.718   1.692  -5.830  0.00  0.00     0.028 C 
ATOM     30  C15 <0> d           1.531   0.730  -5.918  0.00  0.00     0.236 C 
ATOM     31  H33 <0> d           2.533  -0.778  -4.983  0.00  0.00     0.280 HD
ENDBRANCH  22  25
ENDBRANCH  21  22
ENDBRANCH   4  21
TORSDOF 7
