REMARK  5 active torsions:
REMARK  status: ('A' for Active; 'I' for Inactive)
REMARK    1  A    between atoms: C4_5  and  C5_7 
REMARK    2  A    between atoms: C5_7  and  C6_8 
REMARK    3  A    between atoms: C5_7  and  C9_13 
REMARK    4  A    between atoms: C5_7  and  O2_17 
REMARK    5  A    between atoms: C6_8  and  C7_9 
REMARK       I    between atoms: C7_9  and  N2_11 
ROOT
ATOM      1  C5  <0> d           0.055  -2.983   2.291  0.00  0.00     0.214 C 
ENDROOT
BRANCH   1   2
ATOM      2  C4  <0> d           0.068  -1.997   1.151  0.00  0.00     0.119 A 
ATOM      3  S1  <0> d           0.143  -2.310  -0.502  0.00  0.00    -0.081 SA
ATOM      4  C3  <0> d           0.111  -0.619  -1.073  0.00  0.00     0.078 A 
ATOM      5  C2  <0> d           0.043   0.044   0.110  0.00  0.00     0.038 A 
ATOM      6  C1  <0> d          -0.007   1.549   0.168  0.00  0.00     0.071 C 
ATOM      7  N1  <0> d           0.029  -0.689   1.205  0.00  0.00    -0.247 NA
ENDBRANCH   1   2
BRANCH   1   8
ATOM      8  C6  <0> d           0.123  -4.406   1.734  0.00  0.00     0.157 C 
BRANCH   8   9
ATOM      9  C7  <0> d          -1.102  -4.679   0.901  0.00  0.00     0.220 C 
ATOM     10  O1  <0> d          -1.898  -3.790   0.683  0.00  0.00    -0.274 OA
ATOM     11  N2  <0> d          -1.314  -5.912   0.398  0.00  0.00    -0.365 N 
ATOM     12  C8  <0> d          -2.506  -6.177  -0.412  0.00  0.00     0.149 C 
ATOM     13  H7  <0> d          -0.678  -6.623   0.572  0.00  0.00     0.161 HD
ENDBRANCH   8   9
ENDBRANCH   1   8
BRANCH   1  14
ATOM     14  C9  <0> d           1.262  -2.731   3.196  0.00  0.00     0.425 C 
ATOM     15  F1  <0> d           1.168  -1.451   3.753  0.00  0.00    -0.167 F 
ATOM     16  F2  <0> d           1.285  -3.684   4.219  0.00  0.00    -0.167 F 
ATOM     17  F3  <0> d           2.438  -2.826   2.444  0.00  0.00    -0.167 F 
ENDBRANCH   1  14
BRANCH   1  18
ATOM     18  O2  <0> d          -1.148  -2.823   3.045  0.00  0.00    -0.374 OA
ATOM     19  H11 <0> d          -1.955  -2.968   2.533  0.00  0.00     0.211 HD
ENDBRANCH   1  18
TORSDOF 5
