REMARK  4 active torsions:
REMARK  status: ('A' for Active; 'I' for Inactive)
REMARK    1  A    between atoms: C9_16  and  C10_17 
REMARK    2  A    between atoms: C12_19  and  O5_27 
REMARK    3  A    between atoms: C13_20  and  O4_25 
REMARK    4  A    between atoms: C14_21  and  O3_23 
ROOT
ATOM      1  C1  <0> d          -0.018   1.461   0.010  0.00  0.00     0.179 C 
ATOM      2  N1  <0> d           0.002  -0.004   0.002  0.00  0.00    -0.147 N 
ATOM      3  C2  <0> d          -1.157  -0.693   0.004  0.00  0.00     0.272 A 
ATOM      4  O1  <0> d          -2.221  -0.098   0.010  0.00  0.00    -0.267 OA
ATOM      5  C3  <0> d          -1.136  -2.099  -0.002  0.00  0.00     0.066 A 
ATOM      6  C4  <0> d           0.056  -2.755  -0.010  0.00  0.00     0.163 A 
ATOM      7  N2  <0> d           1.228  -2.035  -0.013  0.00  0.00    -0.043 N 
ATOM      8  C5  <0> d           1.205  -0.675  -0.013  0.00  0.00     0.735 A 
ATOM      9  N3  <0> d           2.454  -0.258  -0.024  0.00  0.00    -0.054 NA
ATOM     10  C6  <0> d           3.279  -1.304  -0.038  0.00  0.00     0.275 A 
ATOM     11  N4  <0> d           2.579  -2.409  -0.023  0.00  0.00    -0.143 NA
ATOM     12  N5  <0> d           0.093  -4.133  -0.014  0.00  0.00    -0.310 N 
ATOM     13  C7  <0> d          -0.983  -4.851  -0.385  0.00  0.00     0.224 C 
ATOM     14  O2  <0> d          -0.929  -6.062  -0.379  0.00  0.00    -0.273 OA
ATOM     15  C8  <0> d          -2.252  -4.160  -0.808  0.00  0.00     0.117 C 
ATOM     16  C9  <0> d          -2.428  -2.874   0.000  0.00  0.00     0.070 C 
ATOM     17  H6  <0> d           0.905  -4.591   0.255  0.00  0.00     0.170 HD
ENDROOT
BRANCH  16  18
ATOM     18  C10 <0> d          -2.804  -3.220   1.418  0.00  0.00    -0.043 A 
ATOM     19  C15 <0> d          -4.000  -2.768   1.943  0.00  0.00     0.047 A 
ATOM     20  C14 <0> d          -4.353  -3.089   3.245  0.00  0.00     0.104 A 
ATOM     21  C13 <0> d          -3.496  -3.856   4.026  0.00  0.00     0.135 A 
ATOM     22  C12 <0> d          -2.292  -4.303   3.496  0.00  0.00     0.104 A 
ATOM     23  C11 <0> d          -1.949  -3.983   2.191  0.00  0.00     0.047 A 
BRANCH  20  24
ATOM     24  O3  <0> d          -5.532  -2.649   3.759  0.00  0.00    -0.353 OA
ATOM     25  C16 <0> d          -6.362  -1.865   2.900  0.00  0.00     0.210 C 
ENDBRANCH  20  24
BRANCH  21  26
ATOM     26  O4  <0> d          -3.836  -4.169   5.306  0.00  0.00    -0.351 OA
ATOM     27  C17 <0> d          -3.424  -3.259   6.328  0.00  0.00     0.210 C 
ENDBRANCH  21  26
BRANCH  22  28
ATOM     28  O5  <0> d          -1.451  -5.055   4.256  0.00  0.00    -0.353 OA
ATOM     29  C18 <0> d          -0.231  -5.480   3.646  0.00  0.00     0.210 C 
ENDBRANCH  22  28
ENDBRANCH  16  18
TORSDOF 4
