REMARK  5 active torsions:
REMARK  status: ('A' for Active; 'I' for Inactive)
REMARK    1  A    between atoms: S1_2  and  C2_3 
REMARK    2  A    between atoms: C2_3  and  O1_5 
REMARK    3  A    between atoms: O1_5  and  N1_6 
REMARK    4  A    between atoms: C3_7  and  C4_8 
REMARK    5  A    between atoms: C3_7  and  N3_14 
ROOT
ATOM      1  N1  <0> d           1.741  -1.882  -3.041  0.00  0.00    -0.108 NA
ATOM      2  C3  <0> d           1.997  -3.083  -3.472  0.00  0.00     0.159 C 
ENDROOT
BRANCH   2   3
ATOM      3  C4  <0> d           2.721  -3.272  -4.751  0.00  0.00     0.014 A 
ATOM      4  C8  <0> d           3.138  -2.174  -5.510  0.00  0.00     0.034 A 
ATOM      5  C7  <0> d           3.814  -2.396  -6.692  0.00  0.00     0.117 A 
ATOM      6  N2  <0> d           4.058  -3.622  -7.113  0.00  0.00    -0.273 NA
ATOM      7  C6  <0> d           3.677  -4.684  -6.431  0.00  0.00     0.117 A 
ATOM      8  C5  <0> d           3.001  -4.554  -5.235  0.00  0.00     0.034 A 
ENDBRANCH   2   3
BRANCH   2   9
ATOM      9  N3  <0> d           1.593  -4.183  -2.737  0.00  0.00    -0.382 N 
ATOM     10  H8  <0> d           1.119  -4.059  -1.899  0.00  0.00     0.157 HD
ATOM     11  H9  <0> d           1.783  -5.078  -3.058  0.00  0.00     0.157 HD
ENDBRANCH   2   9
BRANCH   1  12
ATOM     12  O1  <0> d           1.049  -1.701  -1.819  0.00  0.00    -0.193 OA
BRANCH  12  13
ATOM     13  C2  <0> d           0.848  -0.411  -1.489  0.00  0.00     0.204 C 
ATOM     14  S2  <0> d           1.416   0.834  -2.518  0.00  0.00    -0.043 SA
BRANCH  13  15
ATOM     15  S1  <0> d           0.002  -0.004   0.002  0.00  0.00    -0.095 SA
ATOM     16  C1  <0> d          -0.022   1.810   0.012  0.00  0.00     0.099 C 
ENDBRANCH  13  15
ENDBRANCH  12  13
ENDBRANCH   1  12
TORSDOF 5
