REMARK  5 active torsions:
REMARK  status: ('A' for Active; 'I' for Inactive)
REMARK    1  A    between atoms: C5_8  and  C6_10 
REMARK    2  A    between atoms: C9_13  and  N3_16 
REMARK       I    between atoms: N3_16  and  C12_17 
REMARK    3  A    between atoms: C12_17  and  C13_19 
REMARK    4  A    between atoms: C13_19  and  O3_21 
REMARK    5  A    between atoms: O3_21  and  C15_22 
ROOT
ATOM      1  C15 <0> d          10.972  -3.973   0.168  0.00  0.00     0.071 A 
ATOM      2  C16 <0> d          11.135  -5.271   0.636  0.00  0.00     0.037 A 
ATOM      3  C17 <0> d          12.376  -5.707   1.062  0.00  0.00     0.004 A 
ATOM      4  C18 <0> d          13.461  -4.855   1.026  0.00  0.00     0.023 A 
ATOM      5  C19 <0> d          13.307  -3.549   0.558  0.00  0.00     0.047 A 
ATOM      6  C20 <0> d          12.055  -3.112   0.122  0.00  0.00     0.059 A 
ATOM      7  C21 <0> d          14.431  -2.663   0.519  0.00  0.00     0.099 C 
ATOM      8  N4  <0> d          15.323  -1.959   0.488  0.00  0.00    -0.191 NA
ENDROOT
BRANCH   1   9
ATOM      9  O3  <0> d           9.750  -3.550  -0.250  0.00  0.00    -0.337 OA
BRANCH   9  10
ATOM     10  C13 <0> d           8.654  -4.448  -0.062  0.00  0.00     0.217 C 
ATOM     11  C14 <0> d           8.591  -5.428  -1.236  0.00  0.00     0.050 C 
BRANCH  10  12
ATOM     12  C12 <0> d           7.369  -3.664   0.006  0.00  0.00     0.251 C 
ATOM     13  N3  <0> d           6.209  -4.293   0.281  0.00  0.00    -0.325 N 
ATOM     14  H11 <0> d           6.211  -5.236   0.509  0.00  0.00     0.169 HD
ATOM     15  O2  <0> d           7.378  -2.466  -0.186  0.00  0.00    -0.270 OA
BRANCH  13  16
ATOM     16  C9  <0> d           5.005  -3.588   0.237  0.00  0.00     0.034 A 
ATOM     17  C8  <0> d           4.838  -2.556  -0.680  0.00  0.00     0.030 A 
ATOM     18  C7  <0> d           3.651  -1.859  -0.726  0.00  0.00     0.016 A 
ATOM     19  C6  <0> d           2.614  -2.190   0.149  0.00  0.00    -0.007 A 
ATOM     20  C11 <0> d           2.786  -3.223   1.071  0.00  0.00     0.016 A 
ATOM     21  C10 <0> d           3.974  -3.920   1.109  0.00  0.00     0.030 A 
BRANCH  19  22
ATOM     22  C5  <0> d           1.337  -1.443   0.102  0.00  0.00     0.074 A 
ATOM     23  C4  <0> d           1.163  -0.416  -0.812  0.00  0.00     0.106 A 
ATOM     24  C3  <0> d          -0.066   0.267  -0.822  0.00  0.00     0.248 A 
ATOM     25  N1  <0> d          -1.021  -0.103   0.056  0.00  0.00    -0.312 N 
ATOM     26  O1  <0> d          -0.264   1.178  -1.609  0.00  0.00    -0.268 OA
ATOM     27  C2  <0> d          -0.795  -1.110   0.924  0.00  0.00     0.103 A 
ATOM     28  H1  <0> d          -1.875   0.357   0.064  0.00  0.00     0.170 HD
ATOM     29  C1  <0> d          -1.880  -1.501   1.893  0.00  0.00     0.091 C 
ATOM     30  N2  <0> d           0.341  -1.752   0.950  0.00  0.00    -0.235 NA
ENDBRANCH  19  22
ENDBRANCH  13  16
ENDBRANCH  10  12
ENDBRANCH   9  10
ENDBRANCH   1   9
TORSDOF 5
