REMARK  6 active torsions:
REMARK  status: ('A' for Active; 'I' for Inactive)
REMARK    1  A    between atoms: N1_2  and  C2_3 
REMARK    2  A    between atoms: C2_3  and  C3_4 
REMARK    3  A    between atoms: C3_4  and  C4_5 
REMARK    4  A    between atoms: C3_4  and  O4_17 
REMARK    5  A    between atoms: C4_5  and  N2_6 
REMARK    6  A    between atoms: C8_10  and  N3_13 
ROOT
ATOM      1  N2  <0> d           1.553  -3.965  -2.415  0.00  0.00    -0.319 N 
ATOM      2  C5  <0> d           2.533  -4.627  -1.746  0.00  0.00     0.113 A 
ATOM      3  C6  <0> d           2.571  -5.980  -1.740  0.00  0.00     0.029 A 
ATOM      4  C7  <0> d           1.593  -6.712  -2.428  0.00  0.00     0.062 A 
ATOM      5  C8  <0> d           0.611  -6.045  -3.099  0.00  0.00     0.172 A 
ATOM      6  C9  <0> d           0.597  -4.640  -3.081  0.00  0.00     0.280 A 
ATOM      7  O1  <0> d          -0.279  -4.031  -3.674  0.00  0.00    -0.265 OA
ATOM      8 Br1  <0> d           3.944  -6.883  -0.803  0.00  0.00    -0.050 Br
ENDROOT
BRANCH   1   9
ATOM      9  C4  <0> d           1.533  -2.500  -2.407  0.00  0.00     0.165 C 
BRANCH   9  10
ATOM     10  C3  <0> d           0.710  -2.008  -1.215  0.00  0.00     0.162 C 
BRANCH  10  11
ATOM     11  C2  <0> d           0.690  -0.478  -1.207  0.00  0.00     0.264 C 
BRANCH  11  12
ATOM     12  N1  <0> d           0.002  -0.004   0.002  0.00  0.00    -0.077 N 
ATOM     13  C1  <0> d          -0.018   1.465   0.010  0.00  0.00     0.267 C 
ATOM     14  H5  <0> d           0.490  -0.338   0.820  0.00  0.00     0.276 HD
ATOM     15  H13 <0> d          -0.945  -0.353   0.009  0.00  0.00     0.276 HD
ENDBRANCH  11  12
ENDBRANCH  10  11
BRANCH  10  16
ATOM     16  O4  <0> d          -0.626  -2.502  -1.322  0.00  0.00    -0.392 OA
ATOM     17  H12 <0> d          -1.087  -2.218  -2.124  0.00  0.00     0.210 HD
ENDBRANCH  10  16
ENDBRANCH   9  10
ENDBRANCH   1   9
BRANCH   5  18
ATOM     18  N3  <0> d          -0.433  -6.793  -3.834  0.00  0.00    -0.110 N 
ATOM     19  O2  <0> d          -0.418  -8.002  -3.842  0.00  0.00    -0.532 OA
ATOM     20  O3  <0> d          -1.301  -6.196  -4.427  0.00  0.00    -0.532 OA
ENDBRANCH   5  18
TORSDOF 6
