REMARK  5 active torsions:
REMARK  status: ('A' for Active; 'I' for Inactive)
REMARK    1  A    between atoms: C2_2  and  C3_3 
REMARK    2  A    between atoms: C3_3  and  C4_4 
REMARK    3  A    between atoms: C7_9  and  N3_10 
REMARK    4  A    between atoms: N4_13  and  C12_16 
REMARK    5  A    between atoms: C15_22  and  N7_24 
ROOT
ATOM      1  N3  <0> d           2.785  -2.152  -0.200  0.00  0.00    -0.362 N 
ATOM      2  C8  <0> d           3.052  -0.711  -0.089  0.00  0.00     0.144 C 
ATOM      3  C9  <0> d           4.523  -0.513   0.295  0.00  0.00     0.144 C 
ATOM      4  N4  <0> d           5.357  -1.320  -0.607  0.00  0.00    -0.362 N 
ATOM      5  C10 <0> d           5.090  -2.761  -0.718  0.00  0.00     0.144 C 
ATOM      6  C11 <0> d           3.622  -2.960  -1.098  0.00  0.00     0.144 C 
ENDROOT
BRANCH   1   7
ATOM      7  C7  <0> d           1.766  -2.738   0.533  0.00  0.00     0.135 A 
ATOM      8  C4  <0> d           0.470  -2.807   0.018  0.00  0.00     0.003 A 
ATOM      9  C5  <0> d          -0.509  -3.407   0.785  0.00  0.00     0.100 A 
ATOM     10  N1  <0> d          -0.191  -3.889   1.978  0.00  0.00    -0.354 N 
ATOM     11  C6  <0> d           1.040  -3.804   2.438  0.00  0.00     0.102 A 
ATOM     12  H24 <0> d          -0.876  -4.312   2.520  0.00  0.00     0.166 HD
ATOM     13  N2  <0> d           2.006  -3.240   1.741  0.00  0.00    -0.218 NA
ATOM     14  C16 <0> d           1.354  -4.367   3.800  0.00  0.00     0.091 C 
BRANCH   8  15
ATOM     15  C3  <0> d           0.149  -2.245  -1.344  0.00  0.00     0.043 C 
BRANCH  15  16
ATOM     16  C2  <0> d           0.455  -3.296  -2.413  0.00  0.00     0.000 C 
ATOM     17  C1  <0> d           0.130  -2.726  -3.795  0.00  0.00     0.005 C 
ENDBRANCH  15  16
ENDBRANCH   8  15
ENDBRANCH   1   7
BRANCH   4  18
ATOM     18  C12 <0> d           6.372  -0.736  -1.337  0.00  0.00     0.150 A 
ATOM     19  N6  <0> d           6.707  -1.229  -2.535  0.00  0.00    -0.047 NA
ATOM     20  C15 <0> d           7.669  -0.684  -3.251  0.00  0.00     0.702 A 
ATOM     21  N5  <0> d           8.365   0.394  -2.798  0.00  0.00    -0.154 N 
ATOM     22  C14 <0> d           8.075   0.931  -1.595  0.00  0.00     0.263 A 
ATOM     23  H1  <0> d           9.072   0.776  -3.341  0.00  0.00     0.187 HD
ATOM     24  C13 <0> d           7.051   0.362  -0.830  0.00  0.00     0.125 A 
ATOM     25  O1  <0> d           8.695   1.898  -1.180  0.00  0.00    -0.268 OA
BRANCH  20  26
ATOM     26  N7  <0> d           7.977  -1.216  -4.474  0.00  0.00    -0.233 N 
ATOM     27  H19 <0> d           8.686  -0.825  -5.008  0.00  0.00     0.174 HD
ATOM     28  H20 <0> d           7.487  -1.984  -4.807  0.00  0.00     0.174 HD
ENDBRANCH  20  26
ENDBRANCH   4  18
TORSDOF 5
