REMARK  6 active torsions:
REMARK  status: ('A' for Active; 'I' for Inactive)
REMARK    1  A    between atoms: N1_6  and  C7_8 
REMARK    2  A    between atoms: C7_8  and  C8_9 
REMARK    3  A    between atoms: C8_9  and  N2_10 
REMARK       I    between atoms: N2_10  and  C9_11 
REMARK       I    between atoms: C9_11  and  N3_13 
REMARK    4  A    between atoms: N3_13  and  C10_14 
REMARK    5  A    between atoms: C15_19  and  C16_20 
REMARK    6  A    between atoms: C16_20  and  C17_21 
REMARK       I    between atoms: C17_21  and  N4_23 
ROOT
ATOM      1  N2  <0> d           3.769  -2.522   3.380  0.00  0.00    -0.341 N 
ATOM      2  C9  <0> d           5.085  -2.247   3.468  0.00  0.00     0.320 C 
ATOM      3  O1  <0> d           5.632  -1.603   2.594  0.00  0.00    -0.247 OA
ATOM      4  N3  <0> d           5.796  -2.685   4.526  0.00  0.00    -0.308 N 
ATOM      5  H16 <0> d           3.333  -3.036   4.077  0.00  0.00     0.164 HD
ATOM      6  H17 <0> d           5.346  -3.127   5.263  0.00  0.00     0.170 HD
ENDROOT
BRANCH   1   7
ATOM      7  C8  <0> d           2.997  -2.046   2.230  0.00  0.00     0.152 C 
BRANCH   7   8
ATOM      8  C7  <0> d           1.540  -2.492   2.373  0.00  0.00     0.254 C 
BRANCH   8   9
ATOM      9  N1  <0> d           0.766  -2.014   1.220  0.00  0.00    -0.069 N 
ATOM     10  C5  <0> d          -0.602  -2.543   1.298  0.00  0.00     0.239 C 
ATOM     11  C4  <0> d          -1.389  -2.115   0.058  0.00  0.00     0.008 C 
ATOM     12  C3  <0> d          -1.434  -0.586  -0.009  0.00  0.00     0.011 C 
ATOM     13  C20 <0> d          -2.814  -2.664   0.142  0.00  0.00     0.011 C 
ATOM     14  C2  <0> d          -0.002  -0.042  -0.015  0.00  0.00     0.008 C 
ATOM     15  C1  <0> d          -0.036   1.487  -0.003  0.00  0.00     0.011 C 
ATOM     16  C6  <0> d           0.735  -0.547   1.227  0.00  0.00     0.239 C 
ATOM     17  H33 <0> d           1.201  -2.336   0.369  0.00  0.00     0.280 HD
ENDBRANCH   8   9
ENDBRANCH   7   8
ENDBRANCH   1   7
BRANCH   4  18
ATOM     18  C10 <0> d           7.183  -2.501   4.562  0.00  0.00     0.043 A 
ATOM     19  C15 <0> d           7.847  -2.451   5.781  0.00  0.00    -0.023 A 
ATOM     20  C14 <0> d           9.217  -2.276   5.812  0.00  0.00     0.010 A 
ATOM     21  C13 <0> d           9.925  -2.138   4.633  0.00  0.00     0.001 A 
ATOM     22  C12 <0> d           9.266  -2.182   3.418  0.00  0.00     0.002 A 
ATOM     23  C11 <0> d           7.897  -2.363   3.379  0.00  0.00     0.030 A 
BRANCH  19  24
ATOM     24  C16 <0> d           7.075  -2.595   7.067  0.00  0.00     0.144 C 
BRANCH  24  25
ATOM     25  C17 <0> d           6.899  -4.058   7.387  0.00  0.00     0.223 C 
ATOM     26  O2  <0> d           7.356  -4.900   6.643  0.00  0.00    -0.273 OA
ATOM     27  N4  <0> d           6.235  -4.429   8.499  0.00  0.00    -0.361 N 
ATOM     28  C18 <0> d           6.064  -5.851   8.809  0.00  0.00     0.152 C 
ATOM     29  C19 <0> d           5.683  -3.412   9.396  0.00  0.00     0.152 C 
ENDBRANCH  24  25
ENDBRANCH  19  24
ENDBRANCH   4  18
TORSDOF 6
