REMARK  5 active torsions:
REMARK  status: ('A' for Active; 'I' for Inactive)
REMARK    1  A    between atoms: C2_2  and  N1_4 
REMARK    2  A    between atoms: C6_7  and  N2_9 
REMARK    3  A    between atoms: N2_9  and  S1_10 
REMARK    4  A    between atoms: S1_10  and  C8_13 
REMARK    5  A    between atoms: C10_15  and  N3_20 
ROOT
ATOM      1  S1  <0> d          -1.187  -1.813   5.739  0.00  0.00     0.259 S 
ATOM      2  O1  <0> d          -0.741  -1.424   7.032  0.00  0.00    -0.201 OA
ATOM      3  O2  <0> d          -2.521  -1.604   5.298  0.00  0.00    -0.201 OA
ENDROOT
BRANCH   1   4
ATOM      4  N2  <0> d          -0.203  -1.048   4.649  0.00  0.00    -0.309 N 
ATOM      5  H15 <0> d           0.499  -0.455   4.962  0.00  0.00     0.172 HD
BRANCH   4   6
ATOM      6  C6  <0> d          -0.391  -1.266   3.213  0.00  0.00     0.120 C 
ATOM      7  C5  <0> d           0.581  -2.358   2.692  0.00  0.00     0.055 C 
ATOM      8  C4  <0> d           0.717  -1.969   1.199  0.00  0.00     0.237 C 
ATOM      9  N1  <0> d           0.713  -0.491   1.192  0.00  0.00    -0.066 N 
ATOM     10  C7  <0> d           0.026  -0.018   2.408  0.00  0.00     0.261 C 
ATOM     11  H19 <0> d           1.662  -0.150   1.184  0.00  0.00     0.280 HD
BRANCH   9  12
ATOM     12  C2  <0> d           0.002  -0.004   0.002  0.00  0.00     0.180 C 
ATOM     13  C1  <0> d          -0.019   1.526   0.010  0.00  0.00     0.039 C 
ATOM     14  C3  <0> d           0.718  -0.497  -1.257  0.00  0.00     0.039 C 
ENDBRANCH   9  12
ENDBRANCH   4   6
ENDBRANCH   1   4
BRANCH   1  15
ATOM     15  C8  <0> d          -0.875  -3.542   5.599  0.00  0.00     0.083 A 
ATOM     16  C13 <0> d           0.103  -4.133   6.377  0.00  0.00     0.044 A 
ATOM     17  C12 <0> d           0.344  -5.491   6.271  0.00  0.00     0.014 A 
ATOM     18  C11 <0> d          -0.386  -6.255   5.378  0.00  0.00     0.055 A 
ATOM     19 Br1  <0> d           1.675  -6.302   7.341  0.00  0.00    -0.051 Br
ATOM     20  C10 <0> d          -1.360  -5.661   4.596  0.00  0.00     0.105 A 
ATOM     21  C9  <0> d          -1.604  -4.305   4.707  0.00  0.00     0.061 A 
BRANCH  20  22
ATOM     22  N3  <0> d          -2.141  -6.478   3.640  0.00  0.00    -0.116 N 
ATOM     23  O3  <0> d          -2.992  -5.960   2.957  0.00  0.00    -0.532 OA
ATOM     24  O4  <0> d          -1.927  -7.664   3.543  0.00  0.00    -0.532 OA
ENDBRANCH  20  22
ENDBRANCH   1  15
TORSDOF 5
