REMARK  8 active torsions:
REMARK  status: ('A' for Active; 'I' for Inactive)
REMARK    1  A    between atoms: C2_2  and  C3_3 
REMARK    2  A    between atoms: C2_2  and  N4_19 
REMARK    3  A    between atoms: C3_3  and  C4_4 
REMARK    4  A    between atoms: C3_3  and  N3_10 
REMARK    5  A    between atoms: N3_10  and  C8_11 
REMARK    6  A    between atoms: N3_10  and  C10_14 
REMARK    7  A    between atoms: C8_11  and  C9_12 
REMARK    8  A    between atoms: C9_12  and  O1_13 
ROOT
ATOM      1  C3  <0> d           0.500  -0.528   0.994  0.00  0.00     0.256 C 
ENDROOT
BRANCH   1   2
ATOM      2  C2  <0> d          -0.256  -0.397   2.318  0.00  0.00     0.249 C 
ATOM      3  C1  <0> d          -0.425   1.084   2.664  0.00  0.00     0.045 C 
BRANCH   2   4
ATOM      4  N4  <0> d          -1.578  -1.024   2.191  0.00  0.00     0.085 N 
ATOM      5  H25 <0> d          -1.494  -2.020   2.050  0.00  0.00     0.313 HD
ATOM      6  H26 <0> d          -2.153  -0.820   2.995  0.00  0.00     0.313 HD
ENDBRANCH   2   4
ENDBRANCH   1   2
BRANCH   1   7
ATOM      7  C4  <0> d           1.889   0.036   1.151  0.00  0.00     0.011 A 
ATOM      8  C6  <0> d           2.416   1.061   0.442  0.00  0.00     0.122 A 
ATOM      9  N2  <0> d           3.676   1.261   0.883  0.00  0.00    -0.285 N 
ATOM     10  N1  <0> d           3.934   0.321   1.890  0.00  0.00    -0.185 NA
ATOM     11  C7  <0> d           4.610   2.277   0.392  0.00  0.00     0.179 C 
ATOM     12  C5  <0> d           2.863  -0.412   2.049  0.00  0.00     0.149 A 
ENDBRANCH   1   7
BRANCH   1  13
ATOM     13  N3  <0> d           0.586  -1.945   0.618  0.00  0.00    -0.054 N 
ATOM     14  H27 <0> d          -0.324  -2.372   0.704  0.00  0.00     0.281 HD
BRANCH  13  15
ATOM     15  C8  <0> d           1.535  -2.631   1.505  0.00  0.00     0.262 C 
BRANCH  15  16
ATOM     16  C9  <0> d           1.473  -4.138   1.252  0.00  0.00     0.192 C 
BRANCH  16  17
ATOM     17  O1  <0> d           1.972  -4.423  -0.056  0.00  0.00    -0.399 OA
ATOM     18  H15 <0> d           1.891  -5.351  -0.315  0.00  0.00     0.209 HD
ENDBRANCH  16  17
ENDBRANCH  15  16
ENDBRANCH  13  15
BRANCH  13  19
ATOM     19  C10 <0> d           1.049  -2.055  -0.772  0.00  0.00     0.189 C 
ATOM     20  C14 <0> d           0.234  -1.113  -1.675  0.00  0.00     0.033 C 
ATOM     21  C13 <0> d           1.238  -0.121  -2.297  0.00  0.00     0.002 C 
ATOM     22  C12 <0> d           2.595  -0.866  -2.237  0.00  0.00     0.002 C 
ATOM     23  C11 <0> d           2.520  -1.603  -0.877  0.00  0.00     0.033 C 
ENDBRANCH  13  19
ENDBRANCH   1  13
TORSDOF 8
