REMARK  4 active torsions:
REMARK  status: ('A' for Active; 'I' for Inactive)
REMARK    1  A    between atoms: C8_8  and  O1_26 
REMARK    2  A    between atoms: C9_9  and  N1_10 
REMARK    3  A    between atoms: N1_10  and  C10_11 
REMARK    4  A    between atoms: C13_15  and  C14_17 
ROOT
ATOM      1  C10 <0> d           5.551   0.409  -0.606  0.00  0.00     0.135 A 
ATOM      2  C11 <0> d           6.519   0.845  -1.514  0.00  0.00     0.012 A 
ATOM      3  C12 <0> d           7.471   1.748  -1.085  0.00  0.00     0.047 A 
ATOM      4  N2  <0> d           7.438   2.171   0.171  0.00  0.00    -0.232 NA
ATOM      5  C13 <0> d           6.509   1.741   1.012  0.00  0.00     0.162 A 
ATOM      6  N3  <0> d           5.575   0.879   0.636  0.00  0.00    -0.211 NA
ATOM      7  C19 <0> d           8.410   2.080  -2.222  0.00  0.00     0.060 C 
ATOM      8  C20 <0> d           8.195   0.961  -3.264  0.00  0.00     0.011 C 
ATOM      9  C21 <0> d           6.749   0.507  -2.969  0.00  0.00     0.045 C 
ENDROOT
BRANCH   1  10
ATOM     10  N1  <0> d           4.577  -0.496  -0.997  0.00  0.00    -0.363 N 
ATOM     11  H9  <0> d           4.566  -0.835  -1.906  0.00  0.00     0.162 HD
BRANCH  10  12
ATOM     12  C9  <0> d           3.564  -0.942  -0.037  0.00  0.00     0.146 C 
ATOM     13  C4  <0> d           2.396   0.021  -0.021  0.00  0.00    -0.027 A 
ATOM     14  C3  <0> d           2.376   1.406  -0.013  0.00  0.00     0.010 A 
ATOM     15  C5  <0> d           1.208  -0.685  -0.013  0.00  0.00    -0.047 A 
ATOM     16  C2  <0> d           1.172   2.083   0.002  0.00  0.00     0.001 A 
ATOM     17  C1  <0> d          -0.017   1.377   0.010  0.00  0.00     0.001 A 
ATOM     18  C6  <0> d           0.002  -0.004   0.002  0.00  0.00     0.008 A 
ATOM     19  C7  <0> d           1.496  -2.171  -0.025  0.00  0.00     0.073 C 
ATOM     20  C8  <0> d           2.966  -2.294  -0.480  0.00  0.00     0.149 C 
BRANCH  20  21
ATOM     21  O1  <0> d           3.047  -2.451  -1.898  0.00  0.00    -0.393 OA
ATOM     22  H20 <0> d           2.609  -3.246  -2.231  0.00  0.00     0.210 HD
ENDBRANCH  20  21
ENDBRANCH  10  12
ENDBRANCH   1  10
BRANCH   5  23
ATOM     23  C14 <0> d           6.510   2.242   2.409  0.00  0.00     0.015 A 
ATOM     24  C18 <0> d           5.547   1.813   3.326  0.00  0.00     0.034 A 
ATOM     25  C17 <0> d           5.589   2.299   4.617  0.00  0.00     0.117 A 
ATOM     26  N4  <0> d           6.513   3.164   4.985  0.00  0.00    -0.273 NA
ATOM     27  C16 <0> d           7.436   3.599   4.149  0.00  0.00     0.117 A 
ATOM     28  C15 <0> d           7.471   3.159   2.841  0.00  0.00     0.034 A 
ENDBRANCH   5  23
TORSDOF 4
