REMARK  7 active torsions:
REMARK  status: ('A' for Active; 'I' for Inactive)
REMARK    1  A    between atoms: C5_5  and  N1_15 
REMARK    2  A    between atoms: C6_6  and  O1_8 
REMARK    3  A    between atoms: O1_8  and  C8_9 
REMARK    4  A    between atoms: C8_9  and  C9_10 
REMARK       I    between atoms: N1_15  and  C13_16 
REMARK       I    between atoms: C13_16  and  N2_18 
REMARK    5  A    between atoms: N2_18  and  C14_19 
REMARK    6  A    between atoms: C14_19  and  C15_20 
REMARK    7  A    between atoms: C18_24  and  N4_26 
ROOT
ATOM      1  N1  <0> d           0.059  -4.177  -0.027  0.00  0.00    -0.306 N 
ATOM      2  C13 <0> d           0.555  -4.835  -1.093  0.00  0.00     0.321 C 
ATOM      3  O3  <0> d           1.069  -4.215  -2.005  0.00  0.00    -0.247 OA
ATOM      4  N2  <0> d           0.481  -6.179  -1.150  0.00  0.00    -0.339 N 
ATOM      5  H16 <0> d          -0.277  -4.673   0.736  0.00  0.00     0.171 HD
ATOM      6  H17 <0> d           0.071  -6.674  -0.423  0.00  0.00     0.164 HD
ENDROOT
BRANCH   1   7
ATOM      7  C5  <0> d           0.027  -2.776  -0.020  0.00  0.00     0.069 A 
ATOM      8  C4  <0> d           0.003  -2.075  -1.217  0.00  0.00     0.033 A 
ATOM      9  C3  <0> d          -0.028  -0.693  -1.208  0.00  0.00     0.009 A 
ATOM     10  C2  <0> d          -0.035  -0.006  -0.008  0.00  0.00    -0.059 A 
ATOM     11  C1  <0> d          -0.069   1.500  -0.005  0.00  0.00     0.048 C 
ATOM     12  C7  <0> d          -0.006  -0.698   1.189  0.00  0.00     0.046 A 
ATOM     13  C6  <0> d           0.020  -2.083   1.188  0.00  0.00     0.096 A 
BRANCH  13  14
ATOM     14  O1  <0> d           0.043  -2.765   2.365  0.00  0.00    -0.346 OA
BRANCH  14  15
ATOM     15  C8  <0> d           0.034  -1.989   3.564  0.00  0.00     0.207 C 
BRANCH  15  16
ATOM     16  C9  <0> d           0.063  -2.922   4.776  0.00  0.00     0.145 C 
ATOM     17  O2  <0> d          -1.168  -3.658   4.868  0.00  0.00    -0.384 OA
ATOM     18  C12 <0> d          -1.536  -3.822   6.244  0.00  0.00     0.168 C 
ATOM     19  C11 <0> d          -0.474  -3.100   7.101  0.00  0.00     0.029 C 
ATOM     20  C10 <0> d           0.145  -2.100   6.087  0.00  0.00     0.036 C 
ENDBRANCH  15  16
ENDBRANCH  14  15
ENDBRANCH  13  14
ENDBRANCH   1   7
BRANCH   4  21
ATOM     21  C14 <0> d           1.021  -6.895  -2.309  0.00  0.00     0.163 C 
BRANCH  21  22
ATOM     22  C15 <0> d           0.814  -8.376  -2.126  0.00  0.00    -0.035 A 
ATOM     23  C19 <0> d          -0.338  -8.991  -2.581  0.00  0.00     0.057 A 
ATOM     24  C18 <0> d          -0.491 -10.362  -2.398  0.00  0.00     0.102 A 
ATOM     25  N3  <0> d           0.448 -11.069  -1.788  0.00  0.00    -0.352 N 
ATOM     26  C17 <0> d           1.555 -10.508  -1.339  0.00  0.00     0.090 A 
ATOM     27  H29 <0> d           0.318 -12.023  -1.668  0.00  0.00     0.166 HD
ATOM     28  C16 <0> d           1.774  -9.154  -1.492  0.00  0.00     0.026 A 
BRANCH  24  29
ATOM     29  N4  <0> d          -1.641 -10.994  -2.855  0.00  0.00    -0.376 N 
ATOM     30  C20 <0> d          -1.863 -12.412  -2.564  0.00  0.00     0.150 C 
ATOM     31  C21 <0> d          -2.632 -10.241  -3.628  0.00  0.00     0.150 C 
ENDBRANCH  24  29
ENDBRANCH  21  22
ENDBRANCH   4  21
TORSDOF 7
