REMARK  6 active torsions:
REMARK  status: ('A' for Active; 'I' for Inactive)
REMARK    1  A    between atoms: N1_5  and  C5_7 
REMARK    2  A    between atoms: C5_7  and  C6_8 
REMARK    3  A    between atoms: C6_8  and  C7_9 
REMARK    4  A    between atoms: C7_9  and  N3_10 
REMARK    5  A    between atoms: N3_10  and  S1_11 
REMARK    6  A    between atoms: S1_11  and  C8_14 
ROOT
ATOM      1  N3  <0> d          -3.221  -2.382  -2.805  0.00  0.00    -0.315 N 
ATOM      2  H10 <0> d          -2.875  -1.842  -3.533  0.00  0.00     0.172 HD
ENDROOT
BRANCH   1   3
ATOM      3  C7  <0> d          -2.817  -2.097  -1.426  0.00  0.00     0.134 C 
BRANCH   3   4
ATOM      4  C6  <0> d          -1.592  -1.180  -1.432  0.00  0.00     0.042 C 
BRANCH   4   5
ATOM      5  C5  <0> d          -1.171  -0.882   0.008  0.00  0.00     0.152 C 
BRANCH   5   6
ATOM      6  N1  <0> d           0.002  -0.004   0.002  0.00  0.00    -0.273 N 
ATOM      7  C4  <0> d          -0.016   1.346   0.009  0.00  0.00     0.046 A 
ATOM      8  C3  <0> d           1.267   1.776  -0.001  0.00  0.00     0.060 A 
ATOM      9  C14 <0> d          -1.245   2.218   0.020  0.00  0.00     0.071 C 
ATOM     10  C2  <0> d           2.098   0.650  -0.015  0.00  0.00     0.070 A 
ATOM     11 Br2  <0> d           1.837   3.579   0.003  0.00  0.00    -0.047 Br
ATOM     12  C1  <0> d           3.605   0.664  -0.030  0.00  0.00     0.074 C 
ATOM     13  N2  <0> d           1.341  -0.417  -0.013  0.00  0.00    -0.176 NA
ENDBRANCH   5   6
ENDBRANCH   4   5
ENDBRANCH   3   4
ENDBRANCH   1   3
BRANCH   1  14
ATOM     14  S1  <0> d          -4.268  -3.625  -3.121  0.00  0.00     0.258 S 
ATOM     15  O1  <0> d          -4.482  -3.629  -4.526  0.00  0.00    -0.201 OA
ATOM     16  O2  <0> d          -3.773  -4.760  -2.423  0.00  0.00    -0.201 OA
BRANCH  14  17
ATOM     17  C8  <0> d          -5.810  -3.209  -2.378  0.00  0.00     0.079 A 
ATOM     18  C13 <0> d          -6.756  -2.502  -3.098  0.00  0.00     0.026 A 
ATOM     19  C12 <0> d          -7.966  -2.176  -2.515  0.00  0.00     0.020 A 
ATOM     20  C11 <0> d          -8.231  -2.557  -1.212  0.00  0.00     0.011 A 
ATOM     21  C10 <0> d          -7.285  -3.264  -0.492  0.00  0.00     0.020 A 
ATOM     22 Br1  <0> d          -9.887  -2.110  -0.415  0.00  0.00    -0.051 Br
ATOM     23  C9  <0> d          -6.077  -3.594  -1.077  0.00  0.00     0.026 A 
ENDBRANCH  14  17
ENDBRANCH   1  14
TORSDOF 6
