REMARK  4 active torsions:
REMARK  status: ('A' for Active; 'I' for Inactive)
REMARK    1  A    between atoms: C2_2  and  C3_3 
REMARK    2  A    between atoms: C2_2  and  N1_9 
REMARK    3  A    between atoms: C9_10  and  N3_14 
REMARK       I    between atoms: N3_14  and  C12_15 
REMARK    4  A    between atoms: C12_15  and  C13_17 
ROOT
ATOM      1  N3  <0> d          -1.318  -1.773  -2.087  0.00  0.00    -0.309 N 
ATOM      2  C12 <0> d          -2.002  -2.554  -2.946  0.00  0.00     0.268 C 
ATOM      3  O1  <0> d          -3.157  -2.845  -2.713  0.00  0.00    -0.269 OA
ATOM      4  H12 <0> d          -0.395  -1.541  -2.273  0.00  0.00     0.170 HD
ENDROOT
BRANCH   1   5
ATOM      5  C9  <0> d          -1.937  -1.299  -0.931  0.00  0.00     0.128 A 
ATOM      6  N1  <0> d          -1.372  -0.511   0.012  0.00  0.00    -0.245 N 
ATOM      7  N2  <0> d          -2.332  -0.271   1.004  0.00  0.00    -0.182 NA
ATOM      8  C11 <0> d          -3.437  -0.885   0.666  0.00  0.00     0.142 A 
ATOM      9  C10 <0> d          -3.220  -1.544  -0.547  0.00  0.00     0.071 A 
BRANCH   6  10
ATOM     10  C2  <0> d           0.002  -0.004   0.002  0.00  0.00     0.141 C 
ATOM     11  C1  <0> d          -0.019   1.526   0.010  0.00  0.00     0.039 C 
BRANCH  10  12
ATOM     12  C3  <0> d           0.731  -0.503   1.223  0.00  0.00    -0.034 A 
ATOM     13  C8  <0> d           1.864  -1.282   1.081  0.00  0.00     0.009 A 
ATOM     14  C7  <0> d           2.535  -1.736   2.201  0.00  0.00     0.001 A 
ATOM     15  C6  <0> d           2.068  -1.419   3.463  0.00  0.00     0.000 A 
ATOM     16  C5  <0> d           0.931  -0.645   3.605  0.00  0.00     0.001 A 
ATOM     17  C4  <0> d           0.263  -0.187   2.485  0.00  0.00     0.009 A 
ENDBRANCH  10  12
ENDBRANCH   6  10
ENDBRANCH   1   5
BRANCH   2  18
ATOM     18  C13 <0> d          -1.333  -3.067  -4.195  0.00  0.00     0.225 C 
ATOM     19  O3  <0> d          -0.427  -2.078  -4.689  0.00  0.00    -0.319 OA
ATOM     20  C20 <0> d          -0.972  -0.996  -5.308  0.00  0.00     0.098 A 
ATOM     21  C15 <0> d          -2.158  -1.135  -6.025  0.00  0.00     0.068 A 
ATOM     22  C19 <0> d          -0.344   0.236  -5.245  0.00  0.00     0.039 A 
ATOM     23  N4  <0> d          -2.797  -2.382  -6.067  0.00  0.00    -0.322 N 
ATOM     24  C16 <0> d          -2.697  -0.044  -6.688  0.00  0.00     0.032 A 
ATOM     25  C14 <0> d          -2.380  -3.363  -5.240  0.00  0.00     0.267 C 
ATOM     26  H13 <0> d          -3.529  -2.538  -6.683  0.00  0.00     0.169 HD
ATOM     27  O2  <0> d          -2.846  -4.479  -5.335  0.00  0.00    -0.269 OA
ATOM     28  C17 <0> d          -2.062   1.182  -6.626  0.00  0.00     0.002 A 
ATOM     29  C18 <0> d          -0.890   1.322  -5.905  0.00  0.00     0.003 A 
ATOM     30  C21 <0> d          -0.562  -4.348  -3.871  0.00  0.00     0.068 C 
ENDBRANCH   2  18
TORSDOF 4
