REMARK  8 active torsions:
REMARK  status: ('A' for Active; 'I' for Inactive)
REMARK    1  A    between atoms: C4_4  and  S2_8 
REMARK    2  A    between atoms: S2_8  and  N1_11 
REMARK    3  A    between atoms: N1_11  and  C7_12 
REMARK    4  A    between atoms: N1_11  and  C9_15 
REMARK    5  A    between atoms: C7_12  and  C8_13 
REMARK    6  A    between atoms: C8_13  and  O3_14 
REMARK    7  A    between atoms: C9_15  and  C10_16 
REMARK    8  A    between atoms: C10_16  and  O4_17 
ROOT
ATOM      1  S2  <0> d          -1.906  -3.271  -0.527  0.00  0.00     0.262 S 
ATOM      2  O1  <0> d          -1.610  -4.230   0.479  0.00  0.00    -0.200 OA
ATOM      3  O2  <0> d          -3.132  -2.553  -0.558  0.00  0.00    -0.200 OA
ENDROOT
BRANCH   1   4
ATOM      4  C4  <0> d          -0.619  -2.068  -0.469  0.00  0.00     0.093 A 
ATOM      5  C3  <0> d          -0.921  -0.719  -0.453  0.00  0.00     0.040 A 
ATOM      6  C2  <0> d           0.092   0.181  -0.408  0.00  0.00    -0.019 A 
ATOM      7  C1  <0> d           0.025   1.686  -0.384  0.00  0.00     0.056 C 
ATOM      8  S1  <0> d           1.528  -0.881  -0.392  0.00  0.00    -0.099 SA
ATOM      9  C5  <0> d           0.680  -2.451  -0.438  0.00  0.00     0.002 A 
ATOM     10  C6  <0> d           1.260  -3.842  -0.446  0.00  0.00     0.058 C 
ENDBRANCH   1   4
BRANCH   1  11
ATOM     11  N1  <0> d          -1.778  -4.054  -1.980  0.00  0.00    -0.303 N 
BRANCH  11  12
ATOM     12  C7  <0> d          -1.070  -5.334  -2.062  0.00  0.00     0.161 C 
BRANCH  12  13
ATOM     13  C8  <0> d          -2.077  -6.481  -1.949  0.00  0.00     0.184 C 
BRANCH  13  14
ATOM     14  O3  <0> d          -2.952  -6.460  -3.079  0.00  0.00    -0.399 OA
ATOM     15  H12 <0> d          -3.618  -7.161  -3.074  0.00  0.00     0.209 HD
ENDBRANCH  13  14
ENDBRANCH  12  13
ENDBRANCH  11  12
BRANCH  11  16
ATOM     16  C9  <0> d          -2.372  -3.467  -3.183  0.00  0.00     0.161 C 
BRANCH  16  17
ATOM     17  C10 <0> d          -1.310  -2.664  -3.937  0.00  0.00     0.184 C 
BRANCH  17  18
ATOM     18  O4  <0> d          -0.292  -3.549  -4.411  0.00  0.00    -0.399 OA
ATOM     19  H17 <0> d           0.416  -3.107  -4.900  0.00  0.00     0.209 HD
ENDBRANCH  17  18
ENDBRANCH  16  17
ENDBRANCH  11  16
ENDBRANCH   1  11
TORSDOF 8
