REMARK  12 active torsions:
REMARK  status: ('A' for Active; 'I' for Inactive)
REMARK    1  A    between atoms: C2_2  and  C3_3 
REMARK    2  A    between atoms: C3_3  and  C4_4 
REMARK    3  A    between atoms: C4_4  and  C5_5 
REMARK    4  A    between atoms: C5_5  and  C6_6 
REMARK       I    between atoms: C6_6  and  N1_8 
REMARK    5  A    between atoms: N1_8  and  C7_9 
REMARK    6  A    between atoms: C8_10  and  O8_28 
REMARK    7  A    between atoms: C9_11  and  O7_27 
REMARK    8  A    between atoms: C10_12  and  C18_25 
REMARK    9  A    between atoms: C11_14  and  O3_15 
REMARK   10  A    between atoms: O3_15  and  C12_16 
REMARK   11  A    between atoms: C15_19  and  N2_22 
REMARK   12  A    between atoms: C18_25  and  O6_26 
ROOT
ATOM      1  C7  <0> d           0.456   3.517   1.306  0.00  0.00     0.171 C 
ATOM      2  C8  <0> d           1.146   3.087   0.008  0.00  0.00     0.177 C 
ATOM      3  C9  <0> d           1.286   1.562  -0.002  0.00  0.00     0.180 C 
ATOM      4  C10 <0> d           2.062   1.121   1.242  0.00  0.00     0.179 C 
ATOM      5  O2  <0> d           1.383   1.579   2.413  0.00  0.00    -0.349 OA
ATOM      6  C11 <0> d           1.264   3.001   2.499  0.00  0.00     0.292 C 
ENDROOT
BRANCH   6   7
ATOM      7  O3  <0> d           0.597   3.350   3.714  0.00  0.00    -0.318 OA
BRANCH   7   8
ATOM      8  C12 <0> d           1.280   3.152   4.872  0.00  0.00     0.072 A 
ATOM      9  C17 <0> d           0.693   3.470   6.088  0.00  0.00     0.039 A 
ATOM     10  C16 <0> d           1.389   3.267   7.264  0.00  0.00     0.039 A 
ATOM     11  C15 <0> d           2.670   2.748   7.229  0.00  0.00     0.103 A 
ATOM     12  C14 <0> d           3.258   2.431   6.019  0.00  0.00     0.039 A 
ATOM     13  C13 <0> d           2.564   2.627   4.840  0.00  0.00     0.039 A 
BRANCH  11  14
ATOM     14  N2  <0> d           3.414   2.533   8.491  0.00  0.00    -0.116 N 
ATOM     15  O4  <0> d           2.897   2.812   9.558  0.00  0.00    -0.532 OA
ATOM     16  O5  <0> d           4.542   2.076   8.462  0.00  0.00    -0.532 OA
ENDBRANCH  11  14
ENDBRANCH   7   8
ENDBRANCH   6   7
BRANCH   1  17
ATOM     17  N1  <0> d           0.383   4.979   1.360  0.00  0.00    -0.349 N 
ATOM     18  C6  <0> d          -0.574   5.580   2.095  0.00  0.00     0.218 C 
ATOM     19  O1  <0> d          -1.375   4.909   2.711  0.00  0.00    -0.274 OA
ATOM     20  H17 <0> d           1.024   5.516   0.868  0.00  0.00     0.163 HD
BRANCH  18  21
ATOM     21  C5  <0> d          -0.649   7.084   2.151  0.00  0.00     0.103 C 
BRANCH  21  22
ATOM     22  C4  <0> d          -1.817   7.503   3.046  0.00  0.00     0.009 C 
BRANCH  22  23
ATOM     23  C3  <0> d          -1.893   9.030   3.103  0.00  0.00     0.000 C 
BRANCH  23  24
ATOM     24  C2  <0> d          -3.060   9.450   3.999  0.00  0.00    -0.005 C 
ATOM     25  C1  <0> d          -3.136  10.977   4.056  0.00  0.00     0.005 C 
ENDBRANCH  23  24
ENDBRANCH  22  23
ENDBRANCH  21  22
ENDBRANCH  18  21
ENDBRANCH   1  17
BRANCH   2  26
ATOM     26  O8  <0> d           0.360   3.502  -1.111  0.00  0.00    -0.391 OA
ATOM     27  H26 <0> d           0.735   3.256  -1.968  0.00  0.00     0.210 HD
ENDBRANCH   2  26
BRANCH   4  28
ATOM     28  C18 <0> d           2.155  -0.406   1.271  0.00  0.00     0.198 C 
BRANCH  28  29
ATOM     29  O6  <0> d           2.977  -0.813   2.367  0.00  0.00    -0.398 OA
ATOM     30  H24 <0> d           3.080  -1.771   2.446  0.00  0.00     0.209 HD
ENDBRANCH  28  29
ENDBRANCH   4  28
BRANCH   3  31
ATOM     31  O7  <0> d          -0.011   0.963   0.007  0.00  0.00    -0.390 OA
ATOM     32  H25 <0> d           0.002  -0.004   0.002  0.00  0.00     0.210 HD
ENDBRANCH   3  31
TORSDOF 12
