REMARK  2 active torsions:
REMARK  status: ('A' for Active; 'I' for Inactive)
REMARK    1  A    between atoms: C6_6  and  C11_16 
REMARK    2  A    between atoms: C17_22  and  O3_26 
ROOT
ATOM      1  C1  <0> d          -1.154   1.399  -0.469  0.00  0.00     0.015 C 
ATOM      2  C2  <0> d          -0.818  -0.088  -0.341  0.00  0.00    -0.036 C 
ATOM      3  C3  <0> d          -2.108  -0.910  -0.343  0.00  0.00     0.067 C 
ATOM      4  C4  <0> d          -1.778  -2.374  -0.176  0.00  0.00     0.022 C 
ATOM      5  C5  <0> d          -0.707  -2.766   0.541  0.00  0.00     0.020 C 
ATOM      6  C6  <0> d          -0.366  -4.223   0.748  0.00  0.00     0.079 C 
ATOM      7  C7  <0> d          -1.006  -5.079  -0.348  0.00  0.00     0.161 A 
ATOM      8  C8  <0> d          -2.432  -4.612  -0.514  0.00  0.00     0.124 A 
ATOM      9  N1  <0> d          -3.444  -5.413  -0.387  0.00  0.00    -0.180 NA
ATOM     10  C9  <0> d          -3.304  -6.709  -0.075  0.00  0.00     0.350 A 
ATOM     11  O1  <0> d          -4.295  -7.412   0.003  0.00  0.00    -0.244 OA
ATOM     12  N2  <0> d          -2.097  -7.252   0.153  0.00  0.00    -0.277 N 
ATOM     13  C10 <0> d          -0.966  -6.528   0.042  0.00  0.00     0.238 A 
ATOM     14  O2  <0> d           0.104  -7.053   0.263  0.00  0.00    -0.272 OA
ATOM     15  N3  <0> d          -2.607  -3.285  -0.793  0.00  0.00    -0.346 N 
ATOM     16  C22 <0> d           0.151  -1.817   1.134  0.00  0.00     0.159 C 
ATOM     17  O4  <0> d           1.104  -2.201   1.782  0.00  0.00    -0.293 OA
ATOM     18  C23 <0> d          -0.087  -0.341   0.981  0.00  0.00     0.092 C 
ATOM     19  C24 <0> d           0.070  -0.517  -1.511  0.00  0.00     0.015 C 
ATOM     20  H8  <0> d          -2.037  -8.187   0.401  0.00  0.00     0.173 HD
ATOM     21  H9  <0> d          -3.297  -2.992  -1.409  0.00  0.00     0.167 HD
ENDROOT
BRANCH   6  22
ATOM     22  C11 <0> d          -0.883  -4.671   2.091  0.00  0.00    -0.034 A 
ATOM     23  C16 <0> d          -0.103  -5.509   2.903  0.00  0.00     0.015 A 
ATOM     24  C15 <0> d          -0.604  -5.916   4.165  0.00  0.00    -0.023 A 
ATOM     25  C17 <0> d           1.171  -5.950   2.491  0.00  0.00     0.079 A 
ATOM     26  C14 <0> d          -1.875  -5.481   4.575  0.00  0.00     0.012 A 
ATOM     27  C20 <0> d           0.180  -6.751   4.981  0.00  0.00     0.012 A 
ATOM     28  C13 <0> d          -2.606  -4.673   3.758  0.00  0.00     0.001 A 
ATOM     29  C12 <0> d          -2.111  -4.269   2.520  0.00  0.00     0.009 A 
ATOM     30  C19 <0> d           1.401  -7.166   4.547  0.00  0.00     0.004 A 
ATOM     31  C18 <0> d           1.899  -6.765   3.310  0.00  0.00     0.037 A 
BRANCH  25  32
ATOM     32  O3  <0> d           1.670  -5.568   1.287  0.00  0.00    -0.355 OA
ATOM     33  C21 <0> d           2.967  -6.055   0.939  0.00  0.00     0.210 C 
ENDBRANCH  25  32
ENDBRANCH   6  22
TORSDOF 2
