REMARK  3 active torsions:
REMARK  status: ('A' for Active; 'I' for Inactive)
REMARK    1  A    between atoms: N1_6  and  C7_8 
REMARK    2  A    between atoms: C7_8  and  C12_16 
REMARK    3  A    between atoms: C12_16  and  N2_17 
ROOT
ATOM      1  C7  <0> d           1.367  -2.506   2.454  0.00  0.00     0.184 C 
ATOM      2  C8  <0> d           1.211  -4.007   2.226  0.00  0.00     0.058 C 
ATOM      3  C9  <0> d           2.082  -4.779   3.220  0.00  0.00     0.143 C 
ATOM      4  S1  <0> d           1.495  -4.437   4.905  0.00  0.00     0.144 S 
ATOM      5  O1  <0> d           2.462  -4.921   5.828  0.00  0.00    -0.228 OA
ATOM      6  O2  <0> d           0.150  -4.882   5.015  0.00  0.00    -0.228 OA
ATOM      7  C10 <0> d           1.512  -2.620   4.950  0.00  0.00     0.143 C 
ATOM      8  C11 <0> d           0.705  -2.088   3.764  0.00  0.00     0.058 C 
ENDROOT
BRANCH   1   9
ATOM      9  N1  <0> d           0.739  -1.780   1.342  0.00  0.00     0.100 N 
ATOM     10  C5  <0> d          -0.699  -2.069   1.269  0.00  0.00     0.277 C 
ATOM     11  C4  <0> d          -1.344  -1.188   0.196  0.00  0.00     0.010 C 
ATOM     12  C3  <0> d          -0.679  -1.468  -1.154  0.00  0.00     0.012 C 
ATOM     13  C13 <0> d          -1.155   0.285   0.563  0.00  0.00     0.011 C 
ATOM     14  C2  <0> d           0.825  -1.206  -1.038  0.00  0.00     0.010 C 
ATOM     15  C1  <0> d           1.506  -1.541  -2.367  0.00  0.00     0.011 C 
ATOM     16  C6  <0> d           1.408  -2.086   0.070  0.00  0.00     0.277 C 
ENDBRANCH   1   9
BRANCH   1  17
ATOM     17  C12 <0> d           2.855  -2.157   2.508  0.00  0.00     0.271 C 
BRANCH  17  18
ATOM     18  N2  <0> d           3.013  -0.699   2.589  0.00  0.00    -0.077 N 
ATOM     19  H22 <0> d           3.993  -0.463   2.536  0.00  0.00     0.274 HD
ATOM     20  H23 <0> d           2.521  -0.264   1.824  0.00  0.00     0.274 HD
ATOM     21  H27 <0> d           2.635  -0.368   3.464  0.00  0.00     0.274 HD
ENDBRANCH  17  18
ENDBRANCH   1  17
TORSDOF 3
