REMARK  3 active torsions:
REMARK  status: ('A' for Active; 'I' for Inactive)
REMARK    1  A    between atoms: C5_6  and  N5_26 
REMARK    2  A    between atoms: C8_10  and  C9_11 
REMARK    3  A    between atoms: C9_11  and  N3_12 
ROOT
ATOM      1  N3  <0> d          -1.353  -0.205   3.000  0.00  0.00    -0.063 N 
ATOM      2  C10 <0> d          -1.345   0.132   4.426  0.00  0.00     0.241 C 
ATOM      3  C11 <0> d          -2.760   0.285   4.963  0.00  0.00     0.031 C 
ATOM      4  C12 <0> d          -3.535   1.332   4.158  0.00  0.00     0.020 C 
ATOM      5  C13 <0> d          -3.501   0.898   2.688  0.00  0.00     0.062 C 
ATOM      6  C14 <0> d          -2.031   0.855   2.240  0.00  0.00     0.246 C 
ATOM      7  C15 <0> d          -4.065  -0.501   2.573  0.00  0.00     0.020 C 
ATOM      8  C16 <0> d          -4.668  -0.840   1.403  0.00  0.00     0.026 C 
ATOM      9  C17 <0> d          -5.154  -2.137   1.205  0.00  0.00     0.007 C 
ATOM     10  C18 <0> d          -4.991  -3.061   2.195  0.00  0.00     0.074 C 
ATOM     11  C19 <0> d          -4.361  -2.679   3.388  0.00  0.00     0.247 C 
ATOM     12  O1  <0> d          -4.154  -3.511   4.255  0.00  0.00    -0.268 OA
ATOM     13  N4  <0> d          -3.980  -1.393   3.587  0.00  0.00    -0.317 N 
ATOM     14  C20 <0> d          -3.522  -1.029   4.925  0.00  0.00     0.138 C 
ATOM     15  H24 <0> d          -1.841  -1.079   2.866  0.00  0.00     0.280 HD
ENDROOT
BRANCH   1  16
ATOM     16  C9  <0> d           0.030  -0.341   2.523  0.00  0.00     0.313 C 
BRANCH  16  17
ATOM     17  C8  <0> d           0.024  -0.816   1.093  0.00  0.00     0.133 A 
ATOM     18  N1  <0> d           0.002  -0.004   0.002  0.00  0.00    -0.336 N 
ATOM     19  C1  <0> d          -0.018   1.461   0.010  0.00  0.00     0.158 C 
ATOM     20  C2  <0> d           0.009  -0.818  -1.116  0.00  0.00     0.064 A 
ATOM     21  C7  <0> d           0.029  -2.137  -0.634  0.00  0.00     0.087 A 
ATOM     22  C3  <0> d          -0.001  -0.577  -2.483  0.00  0.00     0.034 A 
ATOM     23  C6  <0> d           0.039  -3.201  -1.540  0.00  0.00     0.063 A 
ATOM     24  N2  <0> d           0.034  -2.063   0.722  0.00  0.00    -0.231 NA
ATOM     25  C5  <0> d           0.029  -2.946  -2.898  0.00  0.00     0.028 A 
ATOM     26  C4  <0> d           0.010  -1.633  -3.367  0.00  0.00     0.031 A 
BRANCH  25  27
ATOM     27  N5  <0> d           0.039  -4.010  -3.806  0.00  0.00    -0.399 N 
ATOM     28  H22 <0> d           0.033  -3.833  -4.760  0.00  0.00     0.156 HD
ATOM     29  H23 <0> d           0.053  -4.924  -3.482  0.00  0.00     0.156 HD
ENDBRANCH  25  27
ENDBRANCH  16  17
ENDBRANCH   1  16
TORSDOF 3
