REMARK  5 active torsions:
REMARK  status: ('A' for Active; 'I' for Inactive)
REMARK    1  A    between atoms: C2_3  and  C16_23 
REMARK    2  A    between atoms: C3_4  and  C6_9 
REMARK    3  A    between atoms: C4_5  and  O2_8 
REMARK    4  A    between atoms: C6_9  and  C7_11 
REMARK    5  A    between atoms: C7_11  and  C8_12 
ROOT
ATOM      1  C1  <0> d          -6.218   4.942   0.890  0.00  0.00     0.154 C 
ATOM      2  N1  <0> d          -5.040   4.279   1.455  0.00  0.00    -0.338 N 
ATOM      3  C2  <0> d          -3.946   3.668   0.693  0.00  0.00     0.160 A 
ATOM      4  C3  <0> d          -2.975   3.120   1.712  0.00  0.00     0.054 A 
ATOM      5  C4  <0> d          -3.492   3.400   2.934  0.00  0.00     0.146 A 
ATOM      6  C5  <0> d          -4.771   4.125   2.764  0.00  0.00     0.278 A 
ATOM      7  O1  <0> d          -5.476   4.517   3.672  0.00  0.00    -0.265 OA
ENDROOT
BRANCH   4   8
ATOM      8  C6  <0> d          -1.763   2.440   1.444  0.00  0.00     0.166 C 
ATOM      9  O3  <0> d          -1.071   2.049   2.362  0.00  0.00    -0.292 OA
BRANCH   8  10
ATOM     10  C7  <0> d          -1.332   2.202   0.020  0.00  0.00     0.149 C 
BRANCH  10  11
ATOM     11  C8  <0> d          -0.018   1.464   0.010  0.00  0.00     0.117 A 
ATOM     12  N2  <0> d           1.104   2.127   0.003  0.00  0.00    -0.244 NA
ATOM     13  C15 <0> d           2.286   1.478  -0.012  0.00  0.00     0.091 A 
ATOM     14  C10 <0> d           2.332   0.074  -0.020  0.00  0.00     0.108 A 
ATOM     15  C14 <0> d           3.485   2.208  -0.020  0.00  0.00     0.034 A 
ATOM     16  O5  <0> d           1.187  -0.646  -0.013  0.00  0.00    -0.272 OA
ATOM     17  C11 <0> d           3.562  -0.573  -0.035  0.00  0.00     0.040 A 
ATOM     18  C9  <0> d           0.002  -0.004   0.002  0.00  0.00     0.313 A 
ATOM     19  O4  <0> d          -1.039  -0.634   0.008  0.00  0.00    -0.257 OA
ATOM     20  C12 <0> d           4.726   0.164  -0.043  0.00  0.00     0.003 A 
ATOM     21  C13 <0> d           4.682   1.552  -0.035  0.00  0.00     0.002 A 
ENDBRANCH  10  11
ENDBRANCH   8  10
ENDBRANCH   4   8
BRANCH   3  22
ATOM     22  C16 <0> d          -3.267   4.706  -0.163  0.00  0.00    -0.031 A 
ATOM     23  C21 <0> d          -2.807   4.371  -1.422  0.00  0.00     0.009 A 
ATOM     24  C20 <0> d          -2.184   5.323  -2.207  0.00  0.00     0.001 A 
ATOM     25  C19 <0> d          -2.022   6.611  -1.733  0.00  0.00     0.000 A 
ATOM     26  C18 <0> d          -2.483   6.947  -0.473  0.00  0.00     0.001 A 
ATOM     27  C17 <0> d          -3.110   5.996   0.310  0.00  0.00     0.009 A 
ENDBRANCH   3  22
BRANCH   5  28
ATOM     28  O2  <0> d          -2.929   3.072   4.118  0.00  0.00    -0.355 OA
ATOM     29  H5  <0> d          -3.511   3.393   4.865  0.00  0.00     0.218 HD
ENDBRANCH   5  28
TORSDOF 5
