REMARK  7 active torsions:
REMARK  status: ('A' for Active; 'I' for Inactive)
REMARK    1  A    between atoms: C6_7  and  N4_14 
REMARK    2  A    between atoms: C7_9  and  C8_11 
REMARK    3  A    between atoms: C8_11  and  C9_12 
REMARK    4  A    between atoms: C9_12  and  N3_13 
REMARK    5  A    between atoms: N4_14  and  C10_15 
REMARK    6  A    between atoms: C10_15  and  C12_17 
REMARK    7  A    between atoms: C15_20  and  S2_23 
ROOT
ATOM      1  C1  <0> d          -0.556   1.486   0.114  0.00  0.00     0.050 C 
ATOM      2  C2  <0> d          -0.484  -0.020   0.096  0.00  0.00    -0.032 A 
ATOM      3  C3  <0> d          -0.771  -0.699  -1.024  0.00  0.00    -0.012 A 
ATOM      4  S1  <0> d          -0.546  -2.402  -0.548  0.00  0.00    -0.074 SA
ATOM      5  C4  <0> d          -0.073  -2.156   1.143  0.00  0.00     0.114 A 
ATOM      6  C5  <0> d          -0.097  -0.751   1.289  0.00  0.00     0.052 A 
ATOM      7  C6  <0> d           0.255  -0.267   2.579  0.00  0.00     0.140 A 
ATOM      8  N1  <0> d           0.577  -1.132   3.527  0.00  0.00    -0.215 NA
ATOM      9  C7  <0> d           0.583  -2.436   3.318  0.00  0.00     0.131 A 
ATOM     10  N2  <0> d           0.256  -2.946   2.146  0.00  0.00    -0.225 NA
ATOM     11  C19 <0> d          -1.186  -0.153  -2.366  0.00  0.00     0.057 C 
ENDROOT
BRANCH   7  12
ATOM     12  N4  <0> d           0.262   1.092   2.839  0.00  0.00    -0.366 N 
ATOM     13  H11 <0> d           0.110   1.724   2.119  0.00  0.00     0.161 HD
BRANCH  12  14
ATOM     14  C10 <0> d           0.498   1.576   4.201  0.00  0.00     0.112 C 
ATOM     15  C11 <0> d          -0.822   1.583   4.976  0.00  0.00     0.037 C 
BRANCH  14  16
ATOM     16  C12 <0> d           1.056   2.975   4.148  0.00  0.00    -0.036 A 
ATOM     17  C17 <0> d           2.063   3.351   5.017  0.00  0.00     0.011 A 
ATOM     18  C16 <0> d           2.579   4.632   4.965  0.00  0.00     0.024 A 
ATOM     19  C15 <0> d           2.081   5.541   4.050  0.00  0.00     0.058 A 
ATOM     20  C14 <0> d           1.070   5.166   3.184  0.00  0.00     0.024 A 
ATOM     21  C13 <0> d           0.558   3.883   3.233  0.00  0.00     0.011 A 
BRANCH  19  22
ATOM     22  S2  <0> d           2.734   7.176   3.986  0.00  0.00     0.171 S 
ATOM     23  O1  <0> d           4.058   7.057   4.490  0.00  0.00    -0.223 OA
ATOM     24  O2  <0> d           2.503   7.607   2.652  0.00  0.00    -0.223 OA
ATOM     25  C18 <0> d           1.711   8.132   5.139  0.00  0.00     0.167 C 
ENDBRANCH  19  22
ENDBRANCH  14  16
ENDBRANCH  12  14
ENDBRANCH   7  12
BRANCH   9  26
ATOM     26  C8  <0> d           0.960  -3.362   4.445  0.00  0.00     0.107 C 
BRANCH  26  27
ATOM     27  C9  <0> d          -0.295  -3.747   5.231  0.00  0.00     0.237 C 
BRANCH  27  28
ATOM     28  N3  <0> d           0.073  -4.649   6.330  0.00  0.00    -0.079 N 
ATOM     29  H9  <0> d           0.501  -5.481   5.953  0.00  0.00     0.274 HD
ATOM     30  H10 <0> d           0.725  -4.184   6.944  0.00  0.00     0.274 HD
ATOM     31  H25 <0> d          -0.755  -4.903   6.848  0.00  0.00     0.274 HD
ENDBRANCH  27  28
ENDBRANCH  26  27
ENDBRANCH   9  26
TORSDOF 7
