REMARK  5 active torsions:
REMARK  status: ('A' for Active; 'I' for Inactive)
REMARK    1  A    between atoms: C5_5  and  N1_9 
REMARK    2  A    between atoms: N1_9  and  C8_10 
REMARK    3  A    between atoms: C11_13  and  S1_17 
REMARK    4  A    between atoms: C13_15  and  N2_16 
REMARK    5  A    between atoms: S1_17  and  N3_20 
ROOT
ATOM      1  C8  <0> d           0.180  -4.875   1.180  0.00  0.00     0.059 A 
ATOM      2  C9  <0> d           0.172  -4.196   2.389  0.00  0.00     0.033 A 
ATOM      3  C10 <0> d           0.291  -4.896   3.575  0.00  0.00     0.027 A 
ATOM      4  C11 <0> d           0.419  -6.272   3.561  0.00  0.00     0.081 A 
ATOM      5  C12 <0> d           0.428  -6.958   2.360  0.00  0.00     0.056 A 
ATOM      6  C13 <0> d           0.303  -6.265   1.166  0.00  0.00     0.054 A 
ENDROOT
BRANCH   1   7
ATOM      7  N1  <0> d           0.059  -4.169  -0.023  0.00  0.00    -0.354 N 
ATOM      8  H7  <0> d          -0.047  -4.649  -0.859  0.00  0.00     0.166 HD
BRANCH   7   9
ATOM      9  C5  <0> d           0.089  -2.773  -0.019  0.00  0.00     0.035 A 
ATOM     10  C4  <0> d           1.006  -2.099   0.779  0.00  0.00     0.030 A 
ATOM     11  C3  <0> d           1.035  -0.718   0.781  0.00  0.00     0.012 A 
ATOM     12  C2  <0> d           0.153  -0.005  -0.010  0.00  0.00    -0.023 A 
ATOM     13  C1  <0> d           0.188   1.502  -0.005  0.00  0.00     0.051 C 
ATOM     14  C7  <0> d          -0.765  -0.672  -0.803  0.00  0.00     0.124 A 
ATOM     15  C6  <0> d          -0.796  -2.055  -0.813  0.00  0.00     0.072 A 
ATOM     16  F1  <0> d          -1.629   0.028  -1.571  0.00  0.00    -0.205 F 
ENDBRANCH   7   9
ENDBRANCH   1   7
BRANCH   6  17
ATOM     17  N2  <0> d           0.307  -6.957  -0.051  0.00  0.00    -0.397 N 
ATOM     18  H11 <0> d           0.224  -6.470  -0.886  0.00  0.00     0.156 HD
ATOM     19  H12 <0> d           0.393  -7.923  -0.059  0.00  0.00     0.156 HD
ENDBRANCH   6  17
BRANCH   4  20
ATOM     20  S1  <0> d           0.572  -7.156   5.078  0.00  0.00     0.258 S 
ATOM     21  O1  <0> d           1.225  -8.380   4.771  0.00  0.00    -0.201 OA
ATOM     22  O2  <0> d           1.084  -6.237   6.034  0.00  0.00    -0.201 OA
BRANCH  20  23
ATOM     23  N3  <0> d          -0.960  -7.548   5.572  0.00  0.00    -0.320 N 
ATOM     24  C14 <0> d          -1.774  -8.469   4.774  0.00  0.00     0.159 C 
ATOM     25  H13 <0> d          -1.318  -7.169   6.390  0.00  0.00     0.171 HD
ENDBRANCH  20  23
ENDBRANCH   4  20
TORSDOF 5
