REMARK  5 active torsions:
REMARK  status: ('A' for Active; 'I' for Inactive)
REMARK    1  A    between atoms: C8_10  and  C11_13 
REMARK    2  A    between atoms: C11_13  and  N5_32 
REMARK    3  A    between atoms: C14_16  and  N2_19 
REMARK    4  A    between atoms: C17_20  and  N4_24 
REMARK       I    between atoms: N4_24  and  C20_25 
REMARK    5  A    between atoms: C20_25  and  C21_27 
ROOT
ATOM      1  C12 <0> d           2.219   2.899   2.333  0.00  0.00     0.237 C 
ATOM      2  C13 <0> d           1.997   3.418   3.756  0.00  0.00     0.055 C 
ATOM      3  C14 <0> d           2.653   4.794   3.900  0.00  0.00     0.115 C 
ATOM      4  C15 <0> d           2.063   5.744   2.854  0.00  0.00     0.055 C 
ATOM      5  C16 <0> d           2.283   5.157   1.458  0.00  0.00     0.237 C 
ATOM      6  N5  <0> d           1.607   3.845   1.377  0.00  0.00    -0.066 N 
ATOM      7  H34 <0> d           0.615   3.965   1.615  0.00  0.00     0.280 HD
ENDROOT
BRANCH   6   8
ATOM      8  C11 <0> d           1.707   3.310   0.003  0.00  0.00     0.292 C 
BRANCH   8   9
ATOM      9  C8  <0> d           1.260   1.871   0.000  0.00  0.00     0.042 A 
ATOM     10  N1  <0> d           2.097   0.788  -0.014  0.00  0.00    -0.357 N 
ATOM     11  C7  <0> d           1.359  -0.374  -0.013  0.00  0.00     0.049 A 
ATOM     12  H1  <0> d           3.066   0.833  -0.023  0.00  0.00     0.166 HD
ATOM     13  C2  <0> d           1.698  -1.723  -0.024  0.00  0.00    -0.034 A 
ATOM     14  C6  <0> d           0.002  -0.004   0.002  0.00  0.00    -0.001 A 
ATOM     15  C1  <0> d           3.146  -2.140  -0.039  0.00  0.00     0.050 C 
ATOM     16  C3  <0> d           0.704  -2.678  -0.020  0.00  0.00     0.009 A 
ATOM     17  C4  <0> d          -0.633  -2.308  -0.005  0.00  0.00     0.002 A 
ATOM     18  C5  <0> d          -0.988  -0.988   0.006  0.00  0.00     0.014 A 
ATOM     19  C9  <0> d          -0.018   1.461   0.010  0.00  0.00    -0.025 A 
ATOM     20  C10 <0> d          -1.241   2.341   0.021  0.00  0.00     0.051 C 
ENDBRANCH   8   9
ENDBRANCH   6   8
BRANCH   3  21
ATOM     21  N2  <0> d           2.395   5.322   5.242  0.00  0.00    -0.249 N 
ATOM     22  N3  <0> d           1.136   5.578   5.799  0.00  0.00    -0.183 NA
ATOM     23  C19 <0> d           1.308   6.040   7.012  0.00  0.00     0.142 A 
ATOM     24  C18 <0> d           2.680   6.103   7.267  0.00  0.00     0.071 A 
ATOM     25  C17 <0> d           3.332   5.655   6.160  0.00  0.00     0.128 A 
BRANCH  25  26
ATOM     26  N4  <0> d           4.714   5.556   6.000  0.00  0.00    -0.311 N 
ATOM     27  C20 <0> d           5.536   5.924   7.002  0.00  0.00     0.231 C 
ATOM     28  O1  <0> d           5.074   6.342   8.043  0.00  0.00    -0.272 OA
ATOM     29  H24 <0> d           5.083   5.222   5.168  0.00  0.00     0.170 HD
BRANCH  27  30
ATOM     30  C21 <0> d           7.029   5.817   6.830  0.00  0.00     0.030 C 
ATOM     31  C22 <0> d           7.726   6.296   8.105  0.00  0.00     0.025 C 
ATOM     32  C23 <0> d           7.408   4.360   6.558  0.00  0.00     0.025 C 
ATOM     33  C24 <0> d           7.470   6.688   5.651  0.00  0.00     0.025 C 
ENDBRANCH  27  30
ENDBRANCH  25  26
ENDBRANCH   3  21
TORSDOF 5
