REMARK  5 active torsions:
REMARK  status: ('A' for Active; 'I' for Inactive)
REMARK    1  A    between atoms: C4_4  and  C7_7 
REMARK    2  A    between atoms: C11_14  and  C12_15 
REMARK       I    between atoms: C12_15  and  N3_17 
REMARK    3  A    between atoms: N3_17  and  C13_18 
REMARK    4  A    between atoms: C13_18  and  C14_19 
REMARK    5  A    between atoms: C14_19  and  C15_20 
ROOT
ATOM      1  C12 <0> d           5.873  -4.569   1.280  0.00  0.00     0.268 C 
ATOM      2  O1  <0> d           4.873  -5.059   0.787  0.00  0.00    -0.266 OA
ATOM      3  N3  <0> d           6.729  -5.343   1.978  0.00  0.00    -0.356 N 
ATOM      4  H10 <0> d           7.525  -4.953   2.370  0.00  0.00     0.162 HD
ENDROOT
BRANCH   1   5
ATOM      5  C11 <0> d           6.138  -3.186   1.120  0.00  0.00     0.107 C 
ATOM      6  N1  <0> d           5.253  -2.392   0.400  0.00  0.00    -0.339 N 
ATOM      7  C8  <0> d           3.860  -2.189  -0.047  0.00  0.00     0.186 C 
ATOM      8  C9  <0> d           5.896  -1.151  -0.139  0.00  0.00     0.277 C 
ATOM      9  C7  <0> d           3.694  -0.683  -0.037  0.00  0.00     0.060 C 
ATOM     10  N2  <0> d           4.863  -0.124  -0.051  0.00  0.00    -0.255 NA
ATOM     11  S1  <0> d           7.179  -0.931   1.157  0.00  0.00    -0.091 SA
ATOM     12  C10 <0> d           7.256  -2.645   1.672  0.00  0.00     0.084 C 
BRANCH   9  13
ATOM     13  C4  <0> d           2.404   0.034  -0.021  0.00  0.00    -0.010 A 
ATOM     14  C3  <0> d           2.377   1.430  -0.013  0.00  0.00     0.013 A 
ATOM     15  C2  <0> d           1.168   2.094   0.002  0.00  0.00     0.001 A 
ATOM     16  C1  <0> d          -0.017   1.379   0.010  0.00  0.00     0.000 A 
ATOM     17  C6  <0> d           0.002  -0.004   0.002  0.00  0.00     0.001 A 
ATOM     18  C5  <0> d           1.204  -0.681  -0.013  0.00  0.00     0.013 A 
ENDBRANCH   9  13
ENDBRANCH   1   5
BRANCH   3  19
ATOM     19  C13 <0> d           6.454  -6.773   2.143  0.00  0.00     0.127 C 
BRANCH  19  20
ATOM     20  C14 <0> d           7.572  -7.414   2.969  0.00  0.00     0.066 C 
BRANCH  20  21
ATOM     21  C15 <0> d           7.285  -8.907   3.141  0.00  0.00     0.183 A 
ATOM     22  N5  <0> d           8.285  -9.512   4.030  0.00  0.00    -0.367 N 
ATOM     23  C21 <0> d           8.907 -10.431   3.350  0.00  0.00     0.056 A 
ATOM     24  H21 <0> d           8.451  -9.271   4.955  0.00  0.00     0.161 HD
ATOM     25  C16 <0> d           8.352 -10.484   1.970  0.00  0.00     0.056 A 
ATOM     26  C20 <0> d           9.992 -11.363   3.689  0.00  0.00     0.031 A 
ATOM     27  N4  <0> d           7.408  -9.596   1.851  0.00  0.00    -0.367 N 
ATOM     28  C17 <0> d           8.925 -11.465   1.038  0.00  0.00     0.031 A 
ATOM     29  H20 <0> d           6.881  -9.422   1.055  0.00  0.00     0.161 HD
ATOM     30  C18 <0> d           9.920 -12.274   1.453  0.00  0.00     0.002 A 
ATOM     31  C19 <0> d          10.444 -12.225   2.757  0.00  0.00     0.002 A 
ENDBRANCH  20  21
ENDBRANCH  19  20
ENDBRANCH   3  19
TORSDOF 5
