REMARK  2 active torsions:
REMARK  status: ('A' for Active; 'I' for Inactive)
REMARK    1  A    between atoms: C4_5  and  C5_6 
REMARK       I    between atoms: C5_6  and  N1_8 
REMARK    2  A    between atoms: N1_8  and  C6_9 
ROOT
ATOM      1  C5  <0> d          -1.123  -0.943   0.008  0.00  0.00     0.263 C 
ATOM      2  O1  <0> d          -2.265  -0.523   0.022  0.00  0.00    -0.267 OA
ATOM      3  N1  <0> d          -0.892  -2.271  -0.001  0.00  0.00    -0.320 N 
ATOM      4  H4  <0> d           0.018  -2.605  -0.012  0.00  0.00     0.169 HD
ENDROOT
BRANCH   1   5
ATOM      5  C4  <0> d           0.002  -0.004   0.002  0.00  0.00     0.074 A 
ATOM      6  C1  <0> d          -0.017   1.383   0.010  0.00  0.00     0.026 A 
ATOM      7  C2  <0> d           1.212   1.996   0.001  0.00  0.00     0.028 A 
ATOM      8  C3  <0> d           2.332   1.230  -0.014  0.00  0.00     0.052 A 
ATOM      9  S1  <0> d           1.751  -0.347  -0.017  0.00  0.00    -0.077 SA
ATOM     10 Br1  <0> d           4.134   1.804  -0.028  0.00  0.00    -0.043 Br
ENDBRANCH   1   5
BRANCH   3  11
ATOM     11  C6  <0> d          -1.973  -3.172   0.005  0.00  0.00     0.071 A 
ATOM     12  C8  <0> d          -3.333  -2.831   0.020  0.00  0.00     0.169 A 
ATOM     13  N3  <0> d          -4.034  -3.936   0.019  0.00  0.00    -0.185 NA
ATOM     14  N2  <0> d          -3.149  -5.021   0.011  0.00  0.00    -0.287 N 
ATOM     15  C7  <0> d          -1.883  -4.527   0.002  0.00  0.00     0.140 A 
ATOM     16  H1  <0> d          -3.396  -5.959   0.011  0.00  0.00     0.188 HD
ENDBRANCH   3  11
TORSDOF 2
