REMARK  5 active torsions:
REMARK  status: ('A' for Active; 'I' for Inactive)
REMARK    1  A    between atoms: C2_2  and  O1_3 
REMARK    2  A    between atoms: O1_3  and  C3_4 
REMARK    3  A    between atoms: C3_4  and  C4_6 
REMARK    4  A    between atoms: C9_12  and  N3_15 
REMARK    5  A    between atoms: N3_15  and  C10_16 
ROOT
ATOM      1  C4  <0> d           1.441  -2.345  -2.525  0.00  0.00     0.072 A 
ATOM      2  C5  <0> d           1.618  -3.696  -2.840  0.00  0.00    -0.013 A 
ATOM      3  C6  <0> d           2.325  -3.723  -4.049  0.00  0.00     0.089 A 
ATOM      4  C7  <0> d           2.724  -4.875  -4.743  0.00  0.00     0.067 C 
ATOM      5  C8  <0> d           3.366  -4.720  -6.097  0.00  0.00     0.143 C 
ATOM      6  S1  <0> d           4.590  -6.049  -6.306  0.00  0.00    -0.085 SA
ATOM      7  C9  <0> d           3.736  -7.457  -5.665  0.00  0.00     0.182 C 
ATOM      8  N1  <0> d           2.846  -7.286  -4.727  0.00  0.00    -0.149 NA
ATOM      9  N2  <0> d           2.527  -6.053  -4.181  0.00  0.00    -0.277 N 
ATOM     10  N4  <0> d           2.558  -2.445  -4.433  0.00  0.00    -0.250 NA
ATOM     11  C13 <0> d           2.047  -1.610  -3.565  0.00  0.00     0.048 A 
ATOM     12  C14 <0> d           2.101  -0.107  -3.659  0.00  0.00     0.071 C 
ATOM     13  C15 <0> d           1.144  -4.882  -2.041  0.00  0.00     0.052 C 
ATOM     14  H8  <0> d           2.114  -6.056  -3.303  0.00  0.00     0.189 HD
ENDROOT
BRANCH   1  15
ATOM     15  C3  <0> d           0.755  -1.799  -1.347  0.00  0.00     0.295 C 
ATOM     16  O2  <0> d           0.274  -2.551  -0.521  0.00  0.00    -0.259 OA
BRANCH  15  17
ATOM     17  O1  <0> d           0.659  -0.465  -1.181  0.00  0.00    -0.318 OA
BRANCH  17  18
ATOM     18  C2  <0> d          -0.022  -0.004  -0.012  0.00  0.00     0.174 C 
ATOM     19  C1  <0> d          -0.031   1.526   0.003  0.00  0.00     0.034 C 
ENDBRANCH  17  18
ENDBRANCH  15  17
ENDBRANCH   1  15
BRANCH   7  20
ATOM     20  N3  <0> d           4.007  -8.720  -6.150  0.00  0.00    -0.363 N 
ATOM     21  H9  <0> d           4.670  -8.839  -6.848  0.00  0.00     0.162 HD
BRANCH  20  22
ATOM     22  C10 <0> d           3.294  -9.880  -5.611  0.00  0.00     0.083 A 
ATOM     23  C12 <0> d           3.167 -11.112  -6.510  0.00  0.00     0.027 A 
ATOM     24  C11 <0> d           4.114 -11.136  -5.308  0.00  0.00     0.027 A 
ENDBRANCH  20  22
ENDBRANCH   7  20
TORSDOF 5
