REMARK  6 active torsions:
REMARK  status: ('A' for Active; 'I' for Inactive)
REMARK    1  A    between atoms: C2_2  and  C3_3 
REMARK    2  A    between atoms: N1_10  and  C12_21 
REMARK    3  A    between atoms: C8_11  and  S2_13 
REMARK    4  A    between atoms: S2_13  and  C9_14 
REMARK    5  A    between atoms: C9_14  and  C10_15 
REMARK       I    between atoms: C10_15  and  N3_17 
REMARK       I    between atoms: N3_17  and  C11_18 
REMARK       I    between atoms: C11_18  and  N4_20 
REMARK    6  A    between atoms: C12_21  and  C13_22 
ROOT
ATOM      1  C3  <0> d          -8.277  -1.999   0.029  0.00  0.00    -0.027 A 
ATOM      2  C4  <0> d          -7.830  -3.263   0.020  0.00  0.00    -0.012 A 
ATOM      3  S1  <0> d          -6.057  -3.076   0.013  0.00  0.00    -0.074 SA
ATOM      4  C5  <0> d          -5.967  -1.304   0.022  0.00  0.00     0.117 A 
ATOM      5  C6  <0> d          -7.318  -0.907   0.030  0.00  0.00     0.075 A 
ATOM      6  C7  <0> d          -7.552   0.504   0.040  0.00  0.00     0.263 A 
ATOM      7  O1  <0> d          -8.690   0.941   0.048  0.00  0.00    -0.267 OA
ATOM      8  N1  <0> d          -6.499   1.343   0.040  0.00  0.00    -0.290 N 
ATOM      9  C8  <0> d          -5.218   0.872   0.032  0.00  0.00     0.173 A 
ATOM     10  N2  <0> d          -4.974  -0.423   0.018  0.00  0.00    -0.216 NA
ATOM     11  C17 <0> d          -8.635  -4.537   0.015  0.00  0.00     0.057 C 
ENDROOT
BRANCH   9  12
ATOM     12  S2  <0> d          -3.874   2.010   0.031  0.00  0.00    -0.082 SA
BRANCH  12  13
ATOM     13  C9  <0> d          -2.482   0.853   0.018  0.00  0.00     0.185 C 
BRANCH  13  14
ATOM     14  C10 <0> d          -1.187   1.624   0.017  0.00  0.00     0.235 C 
ATOM     15  O2  <0> d          -1.204   2.836   0.023  0.00  0.00    -0.272 OA
ATOM     16  N3  <0> d          -0.011   0.966   0.007  0.00  0.00    -0.279 N 
ATOM     17  C11 <0> d           1.147   1.655  -0.000  0.00  0.00     0.320 C 
ATOM     18  H9  <0> d           0.002  -0.004   0.002  0.00  0.00     0.173 HD
ATOM     19  O3  <0> d           1.130   2.871   0.007  0.00  0.00    -0.247 OA
ATOM     20  N4  <0> d           2.323   0.998  -0.015  0.00  0.00    -0.352 N 
ATOM     21  H10 <0> d           2.336   0.028  -0.020  0.00  0.00     0.160 HD
ATOM     22  H11 <0> d           3.156   1.494  -0.020  0.00  0.00     0.160 HD
ENDBRANCH  13  14
ENDBRANCH  12  13
ENDBRANCH   9  12
BRANCH   8  23
ATOM     23  C12 <0> d          -6.733   2.789   0.050  0.00  0.00     0.166 C 
BRANCH  23  24
ATOM     24  C13 <0> d          -6.821   3.301  -1.389  0.00  0.00     0.140 C 
ATOM     25  O4  <0> d          -7.988   2.766  -2.025  0.00  0.00    -0.384 OA
ATOM     26  C16 <0> d          -8.876   3.832  -2.398  0.00  0.00     0.168 C 
ATOM     27  C15 <0> d          -7.970   5.082  -2.539  0.00  0.00     0.029 C 
ATOM     28  C14 <0> d          -6.952   4.839  -1.391  0.00  0.00     0.035 C 
ENDBRANCH  23  24
ENDBRANCH   8  23
BRANCH   1  29
ATOM     29  C2  <0> d          -9.756  -1.713   0.037  0.00  0.00     0.036 C 
ATOM     30  C1  <0> d         -10.264  -1.608  -1.403  0.00  0.00     0.010 C 
ENDBRANCH   1  29
TORSDOF 6
