REMARK  3 active torsions:
REMARK  status: ('A' for Active; 'I' for Inactive)
REMARK    1  A    between atoms: C3_5  and  S1_8 
REMARK    2  A    between atoms: S1_8  and  N3_11 
REMARK    3  A    between atoms: C5_12  and  C6_14 
ROOT
ATOM      1  S1  <0> d           0.058  -3.549   1.628  0.00  0.00     0.304 S 
ATOM      2  O1  <0> d          -0.966  -3.397   2.601  0.00  0.00    -0.197 OA
ATOM      3  O2  <0> d           0.096  -4.647   0.728  0.00  0.00    -0.197 OA
ENDROOT
BRANCH   1   4
ATOM      4  C3  <0> d           0.034  -2.090   0.640  0.00  0.00     0.191 A 
ATOM      5  N2  <0> d           0.027  -2.045  -0.701  0.00  0.00    -0.339 N 
ATOM      6  C2  <0> d           0.009  -0.800  -1.090  0.00  0.00     0.184 A 
ATOM      7  H8  <0> d           0.036  -2.817  -1.288  0.00  0.00     0.167 HD
ATOM      8  N1  <0> d           0.002  -0.004   0.002  0.00  0.00    -0.336 N 
ATOM      9  C1  <0> d          -0.018   1.461   0.010  0.00  0.00     0.158 C 
ATOM     10  C4  <0> d           0.024  -0.822   1.099  0.00  0.00     0.146 A 
ATOM     11 Cl1  <0> d           0.032  -0.324   2.762  0.00  0.00    -0.061 Cl
ENDBRANCH   1   4
BRANCH   1  12
ATOM     12  N3  <0> d           1.495  -3.559   2.450  0.00  0.00    -0.130 NA
ATOM     13  C5  <0> d           1.773  -4.539   3.262  0.00  0.00     0.222 C 
ATOM     14  O3  <0> d           0.888  -5.548   3.434  0.00  0.00    -0.169 OA
BRANCH  13  15
ATOM     15  C6  <0> d           3.054  -4.549   3.995  0.00  0.00     0.027 A 
ATOM     16  C9  <0> d           3.967  -3.546   3.843  0.00  0.00     0.065 A 
ATOM     17  S2  <0> d           5.232  -3.982   4.856  0.00  0.00    -0.113 SA
ATOM     18  C8  <0> d           4.595  -5.512   5.506  0.00  0.00     0.050 A 
ATOM     19  C7  <0> d           3.395  -5.621   4.897  0.00  0.00     0.023 A 
ENDBRANCH  13  15
ENDBRANCH   1  12
TORSDOF 3
