REMARK  3 active torsions:
REMARK  status: ('A' for Active; 'I' for Inactive)
REMARK    1  A    between atoms: N2_6  and  C5_7 
REMARK    2  A    between atoms: C5_7  and  C7_9 
REMARK       I    between atoms: C7_9  and  N3_11 
REMARK    3  A    between atoms: N3_11  and  N4_12 
ROOT
ATOM      1  N4  <0> d           4.410   1.845  -0.028  0.00  0.00    -0.203 N 
ATOM      2  C8  <0> d           3.796   3.056  -0.015  0.00  0.00     0.126 A 
ATOM      3  N5  <0> d           2.493   3.154  -0.003  0.00  0.00    -0.226 NA
ATOM      4  C9  <0> d           1.727   2.066  -0.003  0.00  0.00     0.116 A 
ATOM      5  C10 <0> d           2.271   0.775  -0.015  0.00  0.00     0.077 A 
ATOM      6  C11 <0> d           3.702   0.700  -0.028  0.00  0.00     0.281 A 
ATOM      7  O2  <0> d           4.266  -0.380  -0.040  0.00  0.00    -0.265 OA
ATOM      8  C12 <0> d           1.305  -0.334  -0.013  0.00  0.00    -0.026 A 
ATOM      9  C13 <0> d           0.002  -0.004   0.002  0.00  0.00    -0.008 A 
ATOM     10  S1  <0> d          -0.022   1.774   0.012  0.00  0.00    -0.073 SA
ATOM     11  C14 <0> d          -0.890  -1.216   0.007  0.00  0.00     0.047 C 
ATOM     12  C15 <0> d           0.036  -2.377   0.430  0.00  0.00     0.010 C 
ATOM     13  C16 <0> d           1.415  -1.861  -0.026  0.00  0.00     0.041 C 
ATOM     14  C17 <0> d           4.632   4.309  -0.015  0.00  0.00     0.093 C 
ENDROOT
BRANCH   1  15
ATOM     15  N3  <0> d           5.810   1.786  -0.041  0.00  0.00    -0.257 N 
ATOM     16  C7  <0> d           6.461   1.462  -1.176  0.00  0.00     0.261 C 
ATOM     17  O1  <0> d           5.834   1.222  -2.187  0.00  0.00    -0.269 OA
ATOM     18  H9  <0> d           6.311   1.978   0.767  0.00  0.00     0.190 HD
BRANCH  16  19
ATOM     19  C5  <0> d           7.966   1.399  -1.190  0.00  0.00     0.199 C 
ATOM     20  C6  <0> d           8.538   2.767  -0.814  0.00  0.00     0.044 C 
BRANCH  19  21
ATOM     21  N2  <0> d           8.427   1.028  -2.530  0.00  0.00    -0.259 N 
ATOM     22  C2  <0> d           9.159  -0.062  -2.846  0.00  0.00     0.051 A 
ATOM     23  C1  <0> d           9.646  -1.115  -1.884  0.00  0.00     0.072 C 
ATOM     24  C3  <0> d           9.375  -0.040  -4.182  0.00  0.00     0.077 A 
ATOM     25  C4  <0> d           8.755   1.102  -4.700  0.00  0.00     0.164 A 
ATOM     26 Cl1  <0> d          10.265  -1.221  -5.092  0.00  0.00    -0.081 Cl
ATOM     27  N1  <0> d           8.182   1.740  -3.712  0.00  0.00    -0.182 NA
ENDBRANCH  19  21
ENDBRANCH  16  19
ENDBRANCH   1  15
TORSDOF 3
