REMARK  6 active torsions:
REMARK  status: ('A' for Active; 'I' for Inactive)
REMARK    1  A    between atoms: N1_2  and  C2_3 
REMARK    2  A    between atoms: N1_2  and  C10_18 
REMARK    3  A    between atoms: C2_3  and  C3_4 
REMARK    4  A    between atoms: C3_4  and  N2_5 
REMARK    5  A    between atoms: N2_5  and  S1_6 
REMARK    6  A    between atoms: S1_6  and  C4_9 
ROOT
ATOM      1  S1  <0> d           4.328   0.090  -2.766  0.00  0.00     0.262 S 
ATOM      2  O1  <0> d           4.735  -0.578  -3.952  0.00  0.00    -0.200 OA
ATOM      3  O2  <0> d           4.216   1.504  -2.688  0.00  0.00    -0.200 OA
ENDROOT
BRANCH   1   4
ATOM      4  N2  <0> d           2.845  -0.526  -2.362  0.00  0.00    -0.314 N 
ATOM      5  H8  <0> d           2.430  -1.199  -2.924  0.00  0.00     0.172 HD
BRANCH   4   6
ATOM      6  C3  <0> d           2.159  -0.053  -1.157  0.00  0.00     0.160 C 
BRANCH   6   7
ATOM      7  C2  <0> d           0.690  -0.478  -1.207  0.00  0.00     0.255 C 
BRANCH   7   8
ATOM      8  N1  <0> d           0.002  -0.004   0.002  0.00  0.00    -0.069 N 
ATOM      9  C1  <0> d          -0.018   1.465   0.010  0.00  0.00     0.270 C 
ATOM     10  H16 <0> d           0.490  -0.338   0.820  0.00  0.00     0.280 HD
BRANCH   8  11
ATOM     11  C10 <0> d          -1.376  -0.512   0.012  0.00  0.00     0.188 A 
ATOM     12  C12 <0> d          -1.569  -2.030   0.006  0.00  0.00     0.035 A 
ATOM     13  C11 <0> d          -1.856  -1.228   1.277  0.00  0.00     0.035 A 
ENDBRANCH   8  11
ENDBRANCH   7   8
ENDBRANCH   6   7
ENDBRANCH   4   6
ENDBRANCH   1   4
BRANCH   1  14
ATOM     14  C4  <0> d           5.455  -0.396  -1.502  0.00  0.00     0.122 A 
ATOM     15  C9  <0> d           6.148  -1.589  -1.614  0.00  0.00     0.060 A 
ATOM     16  C8  <0> d           7.036  -1.968  -0.624  0.00  0.00     0.044 A 
ATOM     17 Cl1  <0> d           5.906  -2.606  -3.000  0.00  0.00    -0.083 Cl
ATOM     18  C7  <0> d           7.224  -1.160   0.483  0.00  0.00     0.014 A 
ATOM     19  C6  <0> d           6.528   0.030   0.598  0.00  0.00     0.044 A 
ATOM     20 Br1  <0> d           8.434  -1.681   1.840  0.00  0.00    -0.051 Br
ATOM     21  C5  <0> d           5.643   0.412  -0.395  0.00  0.00     0.060 A 
ATOM     22 Cl2  <0> d           4.770   1.905  -0.252  0.00  0.00    -0.083 Cl
ENDBRANCH   1  14
TORSDOF 6
