REMARK  4 active torsions:
REMARK  status: ('A' for Active; 'I' for Inactive)
REMARK    1  A    between atoms: C7_7  and  C8_8 
REMARK    2  A    between atoms: N1_12  and  C13_15 
REMARK    3  A    between atoms: C13_15  and  C14_16 
REMARK    4  A    between atoms: C17_19  and  O2_22 
ROOT
ATOM      1  C8  <0> d          -3.218   1.631  -4.376  0.00  0.00     0.161 A 
ATOM      2  C9  <0> d          -2.052   2.099  -3.529  0.00  0.00     0.061 A 
ATOM      3  C10 <0> d          -1.413   3.224  -3.909  0.00  0.00     0.045 A 
ATOM      4  C11 <0> d          -0.312   3.450  -2.897  0.00  0.00     0.184 A 
ATOM      5  N1  <0> d          -0.434   2.333  -1.949  0.00  0.00    -0.338 N 
ATOM      6  C12 <0> d          -1.462   1.569  -2.364  0.00  0.00     0.254 A 
ATOM      7  O1  <0> d          -1.834   0.554  -1.804  0.00  0.00    -0.268 OA
ATOM      8  N2  <0> d          -1.802   3.919  -5.018  0.00  0.00    -0.310 N 
ATOM      9  C21 <0> d          -2.825   3.551  -5.802  0.00  0.00     0.321 A 
ATOM     10  O3  <0> d          -3.098   4.234  -6.770  0.00  0.00    -0.247 OA
ATOM     11  N3  <0> d          -3.559   2.450  -5.552  0.00  0.00    -0.330 N 
ATOM     12  H20 <0> d          -1.312   4.723  -5.251  0.00  0.00     0.170 HD
ATOM     13  H21 <0> d          -4.295   2.201  -6.133  0.00  0.00     0.165 HD
ENDROOT
BRANCH   5  14
ATOM     14  C13 <0> d           0.409   2.092  -0.775  0.00  0.00     0.165 C 
BRANCH  14  15
ATOM     15  C14 <0> d          -0.190   2.783   0.423  0.00  0.00    -0.040 A 
ATOM     16  C19 <0> d          -1.096   2.114   1.224  0.00  0.00     0.011 A 
ATOM     17  C18 <0> d          -1.646   2.745   2.323  0.00  0.00     0.037 A 
ATOM     18  C17 <0> d          -1.289   4.051   2.622  0.00  0.00     0.068 A 
ATOM     19  C16 <0> d          -0.379   4.721   1.817  0.00  0.00     0.037 A 
ATOM     20  C15 <0> d           0.173   4.083   0.722  0.00  0.00     0.011 A 
BRANCH  18  21
ATOM     21  O2  <0> d          -1.829   4.674   3.703  0.00  0.00    -0.356 OA
ATOM     22  C20 <0> d          -1.414   6.019   3.950  0.00  0.00     0.210 C 
ENDBRANCH  18  21
ENDBRANCH  14  15
ENDBRANCH   5  14
BRANCH   1  23
ATOM     23  C7  <0> d          -2.914   0.235  -4.855  0.00  0.00    -0.025 A 
ATOM     24  C2  <0> d          -3.946  -0.619  -5.196  0.00  0.00    -0.053 A 
ATOM     25  C1  <0> d          -5.375  -0.153  -5.090  0.00  0.00     0.049 C 
ATOM     26  C3  <0> d          -3.667  -1.899  -5.639  0.00  0.00     0.007 A 
ATOM     27  C4  <0> d          -2.356  -2.327  -5.732  0.00  0.00     0.001 A 
ATOM     28  C5  <0> d          -1.324  -1.475  -5.385  0.00  0.00     0.001 A 
ATOM     29  C6  <0> d          -1.603  -0.195  -4.947  0.00  0.00     0.010 A 
ENDBRANCH   1  23
TORSDOF 4
