REMARK  6 active torsions:
REMARK  status: ('A' for Active; 'I' for Inactive)
REMARK    1  A    between atoms: C5_6  and  S2_12 
REMARK    2  A    between atoms: S2_12  and  N2_15 
REMARK    3  A    between atoms: C11_18  and  C14_21 
REMARK       I    between atoms: C14_21  and  N3_23 
REMARK    4  A    between atoms: N3_23  and  C15_24 
REMARK    5  A    between atoms: C15_24  and  C16_25 
REMARK    6  A    between atoms: C16_25  and  N4_26 
ROOT
ATOM      1  N2  <0> d          -5.267  -3.721  -1.568  0.00  0.00    -0.307 N 
ATOM      2  C9  <0> d          -6.196  -2.828  -2.274  0.00  0.00     0.136 C 
ATOM      3  C10 <0> d          -5.531  -2.349  -3.569  0.00  0.00     0.034 C 
ATOM      4  C11 <0> d          -5.082  -3.563  -4.386  0.00  0.00     0.081 C 
ATOM      5  C12 <0> d          -4.056  -4.368  -3.585  0.00  0.00     0.034 C 
ATOM      6  C13 <0> d          -4.699  -4.866  -2.292  0.00  0.00     0.136 C 
ENDROOT
BRANCH   1   7
ATOM      7  S2  <0> d          -4.863  -3.438   0.013  0.00  0.00     0.260 S 
ATOM      8  O2  <0> d          -4.447  -4.684   0.555  0.00  0.00    -0.200 OA
ATOM      9  O3  <0> d          -5.926  -2.680   0.575  0.00  0.00    -0.200 OA
BRANCH   7  10
ATOM     10  C5  <0> d          -3.445  -2.392   0.009  0.00  0.00     0.081 A 
ATOM     11  C4  <0> d          -3.590  -1.014   0.017  0.00  0.00     0.027 A 
ATOM     12  C3  <0> d          -2.496  -0.182   0.015  0.00  0.00     0.032 A 
ATOM     13  C2  <0> d          -1.192  -0.706   0.004  0.00  0.00     0.054 A 
ATOM     14  N1  <0> d           0.002  -0.004   0.002  0.00  0.00    -0.311 N 
ATOM     15  C7  <0> d          -1.079  -2.103  -0.004  0.00  0.00     0.038 A 
ATOM     16  C1  <0> d          -0.018   1.461   0.010  0.00  0.00     0.160 C 
ATOM     17  C8  <0> d           1.182  -0.655  -0.013  0.00  0.00     0.291 A 
ATOM     18  S1  <0> d           0.677  -2.368  -0.014  0.00  0.00    -0.027 SA
ATOM     19  O1  <0> d           2.308  -0.192  -0.023  0.00  0.00    -0.259 OA
ATOM     20  C6  <0> d          -2.172  -2.935  -0.002  0.00  0.00     0.046 A 
ENDBRANCH   7  10
ENDBRANCH   1   7
BRANCH   4  21
ATOM     21  C14 <0> d          -4.458  -3.097  -5.676  0.00  0.00     0.222 C 
ATOM     22  O4  <0> d          -4.380  -1.911  -5.918  0.00  0.00    -0.273 OA
ATOM     23  N3  <0> d          -3.986  -3.998  -6.561  0.00  0.00    -0.359 N 
ATOM     24  H16 <0> d          -4.049  -4.946  -6.367  0.00  0.00     0.162 HD
BRANCH  23  25
ATOM     25  C15 <0> d          -3.380  -3.544  -7.815  0.00  0.00     0.150 C 
BRANCH  25  26
ATOM     26  C16 <0> d          -2.931  -4.757  -8.632  0.00  0.00     0.253 C 
BRANCH  26  27
ATOM     27  N4  <0> d          -2.323  -4.303  -9.889  0.00  0.00    -0.077 N 
ATOM     28  C17 <0> d          -1.784  -5.459 -10.619  0.00  0.00     0.269 C 
ATOM     29  C18 <0> d          -3.340  -3.635 -10.712  0.00  0.00     0.269 C 
ATOM     30  H27 <0> d          -1.576  -3.655  -9.687  0.00  0.00     0.279 HD
ENDBRANCH  26  27
ENDBRANCH  25  26
ENDBRANCH  23  25
ENDBRANCH   4  21
TORSDOF 6
