REMARK  5 active torsions:
REMARK  status: ('A' for Active; 'I' for Inactive)
REMARK    1  A    between atoms: C2_2  and  N1_4 
REMARK    2  A    between atoms: C6_7  and  C8_9 
REMARK    3  A    between atoms: C8_9  and  N2_10 
REMARK    4  A    between atoms: N2_10  and  C9_11 
REMARK    5  A    between atoms: C12_14  and  N3_18 
ROOT
ATOM      1  N2  <0> d           1.714  -3.645   4.478  0.00  0.00    -0.388 N 
ATOM      2  H17 <0> d           0.901  -3.443   4.966  0.00  0.00     0.159 HD
ENDROOT
BRANCH   1   3
ATOM      3  C8  <0> d           1.873  -3.184   3.097  0.00  0.00     0.126 C 
BRANCH   3   4
ATOM      4  C6  <0> d           0.621  -2.416   2.668  0.00  0.00     0.031 C 
ATOM      5  C5  <0> d           0.491  -1.107   3.479  0.00  0.00     0.035 C 
ATOM      6  C4  <0> d          -0.018  -0.094   2.423  0.00  0.00     0.236 C 
ATOM      7  N1  <0> d           0.713  -0.491   1.192  0.00  0.00    -0.067 N 
ATOM      8  C7  <0> d           0.742  -1.969   1.200  0.00  0.00     0.241 C 
ATOM      9  H23 <0> d           1.652  -0.124   1.211  0.00  0.00     0.280 HD
BRANCH   7  10
ATOM     10  C2  <0> d           0.002  -0.004   0.002  0.00  0.00     0.180 C 
ATOM     11  C1  <0> d          -0.019   1.526   0.010  0.00  0.00     0.039 C 
ATOM     12  C3  <0> d           0.718  -0.497  -1.257  0.00  0.00     0.039 C 
ENDBRANCH   7  10
ENDBRANCH   3   4
ENDBRANCH   1   3
BRANCH   1  13
ATOM     13  C9  <0> d           2.738  -4.375   5.095  0.00  0.00     0.045 A 
ATOM     14  C14 <0> d           2.588  -4.812   6.405  0.00  0.00     0.039 A 
ATOM     15  C13 <0> d           3.595  -5.539   7.010  0.00  0.00     0.050 A 
ATOM     16 Br1  <0> d           1.002  -4.420   7.357  0.00  0.00    -0.049 Br
ATOM     17  C12 <0> d           4.762  -5.821   6.313  0.00  0.00     0.027 A 
ATOM     18  C11 <0> d           4.914  -5.380   5.006  0.00  0.00     0.031 A 
ATOM     19  C10 <0> d           3.905  -4.659   4.398  0.00  0.00     0.033 A 
BRANCH  17  20
ATOM     20  N3  <0> d           5.785  -6.552   6.929  0.00  0.00    -0.399 N 
ATOM     21  H21 <0> d           6.601  -6.750   6.442  0.00  0.00     0.156 HD
ATOM     22  H22 <0> d           5.679  -6.861   7.842  0.00  0.00     0.156 HD
ENDBRANCH  17  20
ENDBRANCH   1  13
TORSDOF 5
