REMARK  4 active torsions:
REMARK  status: ('A' for Active; 'I' for Inactive)
REMARK    1  A    between atoms: C2_2  and  C3_3 
REMARK    2  A    between atoms: C2_2  and  S1_11 
REMARK       I    between atoms: C3_3  and  N1_5 
REMARK    3  A    between atoms: N1_5  and  C4_6 
REMARK    4  A    between atoms: S1_11  and  C9_12 
ROOT
ATOM      1  C1  <0> d           0.089   7.905   1.353  0.00  0.00     0.031 C 
ATOM      2  C2  <0> d           0.861   8.046   0.039  0.00  0.00     0.143 C 
ENDROOT
BRANCH   2   3
ATOM      3  C3  <0> d           1.394   9.451  -0.081  0.00  0.00     0.231 C 
ATOM      4  O1  <0> d           2.553   9.685   0.189  0.00  0.00    -0.272 OA
ATOM      5  N1  <0> d           0.583  10.447  -0.489  0.00  0.00    -0.355 N 
ATOM      6  H5  <0> d          -0.344  10.260  -0.705  0.00  0.00     0.162 HD
BRANCH   5   7
ATOM      7  C4  <0> d           1.101  11.812  -0.606  0.00  0.00     0.084 C 
ATOM      8  C8  <0> d           0.266  12.607  -1.626  0.00  0.00     0.025 C 
ATOM      9  C7  <0> d          -0.348  13.797  -0.861  0.00  0.00     0.002 C 
ATOM     10  C6  <0> d           0.597  13.999   0.350  0.00  0.00     0.002 C 
ATOM     11  C5  <0> d           0.964  12.547   0.743  0.00  0.00     0.025 C 
ENDBRANCH   5   7
ENDBRANCH   2   3
BRANCH   2  12
ATOM     12  S1  <0> d           2.242   6.872   0.020  0.00  0.00    -0.074 SA
BRANCH  12  13
ATOM     13  C9  <0> d           1.460   5.293   0.017  0.00  0.00     0.227 A 
ATOM     14  N5  <0> d           2.085   4.133   0.005  0.00  0.00    -0.125 NA
ATOM     15  N4  <0> d           1.100   3.136   0.009  0.00  0.00    -0.069 N 
ATOM     16  C10 <0> d          -0.105   3.781   0.024  0.00  0.00     0.751 A 
ATOM     17  C13 <0> d           1.150   1.779   0.001  0.00  0.00     0.139 A 
ATOM     18  N2  <0> d           0.144   5.087   0.029  0.00  0.00    -0.033 NA
ATOM     19  N3  <0> d          -1.245   3.081   0.031  0.00  0.00    -0.073 NA
ATOM     20  C11 <0> d          -1.229   1.767   0.017  0.00  0.00     0.138 A 
ATOM     21  C12 <0> d          -0.013   1.076   0.008  0.00  0.00     0.040 A 
ENDBRANCH  12  13
ENDBRANCH   2  12
TORSDOF 4
