REMARK  4 active torsions:
REMARK  status: ('A' for Active; 'I' for Inactive)
REMARK    1  A    between atoms: C4_4  and  N2_10 
REMARK    2  A    between atoms: N2_10  and  C9_11 
REMARK    3  A    between atoms: C9_11  and  C10_12 
REMARK    4  A    between atoms: C11_13  and  O3_27 
ROOT
ATOM      1  C10 <0> d          -5.714  -1.224   2.058  0.00  0.00     0.035 A 
ATOM      2  C11 <0> d          -6.719  -0.440   1.515  0.00  0.00     0.076 A 
ATOM      3  C12 <0> d          -8.004  -0.951   1.360  0.00  0.00     0.038 A 
ATOM      4  C13 <0> d          -8.288  -2.241   1.751  0.00  0.00     0.018 A 
ATOM      5  C14 <0> d          -7.284  -3.035   2.300  0.00  0.00     0.010 A 
ATOM      6  C15 <0> d          -5.983  -2.526   2.446  0.00  0.00     0.101 A 
ATOM      7  O1  <0> d          -4.995  -3.304   2.957  0.00  0.00    -0.273 OA
ATOM      8  C16 <0> d          -5.339  -4.298   3.809  0.00  0.00     0.299 C 
ATOM      9  O2  <0> d          -4.665  -4.551   4.789  0.00  0.00    -0.259 OA
ATOM     10  C17 <0> d          -6.561  -5.064   3.505  0.00  0.00     0.051 A 
ATOM     11  C18 <0> d          -7.557  -4.417   2.740  0.00  0.00    -0.007 A 
ATOM     12  C19 <0> d          -8.726  -5.092   2.421  0.00  0.00     0.013 A 
ATOM     13  C20 <0> d          -8.909  -6.384   2.873  0.00  0.00     0.001 A 
ATOM     14  C21 <0> d          -7.939  -7.011   3.641  0.00  0.00     0.001 A 
ATOM     15  C22 <0> d          -6.762  -6.366   3.946  0.00  0.00     0.018 A 
ENDROOT
BRANCH   1  16
ATOM     16  C9  <0> d          -4.326  -0.660   2.222  0.00  0.00     0.276 C 
BRANCH  16  17
ATOM     17  N2  <0> d          -3.544  -0.923   1.006  0.00  0.00    -0.067 N 
ATOM     18  H16 <0> d          -3.994  -0.486   0.216  0.00  0.00     0.277 HD
ATOM     19  H29 <0> d          -3.487  -1.919   0.852  0.00  0.00     0.277 HD
BRANCH  17  20
ATOM     20  C4  <0> d          -2.188  -0.373   1.166  0.00  0.00     0.191 C 
ATOM     21  C3  <0> d          -1.419  -0.538  -0.145  0.00  0.00     0.071 C 
ATOM     22  C2  <0> d           0.002  -0.004   0.002  0.00  0.00     0.121 C 
ATOM     23  C1  <0> d          -0.019   1.528   0.010  0.00  0.00     0.046 C 
ATOM     24  N1  <0> d           0.697  -0.529   1.164  0.00  0.00    -0.059 N 
ATOM     25  C23 <0> d           0.791  -0.440  -1.254  0.00  0.00     0.046 C 
ATOM     26  C6  <0> d          -0.030  -0.627   2.418  0.00  0.00     0.121 C 
ATOM     27  H9  <0> d           1.056  -1.460   0.929  0.00  0.00     0.279 HD
ATOM     28  H30 <0> d           1.534   0.040   1.322  0.00  0.00     0.279 HD
ATOM     29  C5  <0> d          -1.451  -1.156   2.253  0.00  0.00     0.071 C 
ATOM     30  C7  <0> d           0.730  -1.621   3.326  0.00  0.00     0.046 C 
ATOM     31  C8  <0> d          -0.059   0.718   3.151  0.00  0.00     0.046 C 
ENDBRANCH  17  20
ENDBRANCH  16  17
ENDBRANCH   1  16
BRANCH   2  32
ATOM     32  O3  <0> d          -6.449   0.834   1.130  0.00  0.00    -0.360 OA
ATOM     33  H25 <0> d          -6.159   0.914   0.211  0.00  0.00     0.217 HD
ENDBRANCH   2  32
TORSDOF 4
