REMARK  5 active torsions:
REMARK  status: ('A' for Active; 'I' for Inactive)
REMARK    1  A    between atoms: N1_2  and  C2_3 
REMARK       I    between atoms: N1_2  and  C14_20 
REMARK    2  A    between atoms: C2_3  and  C3_4 
REMARK    3  A    between atoms: C3_4  and  C4_5 
REMARK    4  A    between atoms: C5_8  and  C6_10 
REMARK    5  A    between atoms: C14_20  and  C15_22 
ROOT
ATOM      1  C4  <0> d          -1.071  -1.794   3.140  0.00  0.00     0.131 A 
ATOM      2  N2  <0> d           0.059  -2.126   3.651  0.00  0.00    -0.118 NA
ATOM      3  O1  <0> d          -0.120  -2.828   4.867  0.00  0.00    -0.226 OA
ATOM      4  C5  <0> d          -1.538  -2.910   5.080  0.00  0.00     0.281 A 
ATOM      5  N3  <0> d          -2.121  -2.212   3.923  0.00  0.00    -0.346 N 
ATOM      6  H10 <0> d          -3.065  -2.075   3.745  0.00  0.00     0.163 HD
ENDROOT
BRANCH   1   7
ATOM      7  C3  <0> d          -1.226  -1.035   1.847  0.00  0.00     0.100 C 
BRANCH   7   8
ATOM      8  C2  <0> d           0.155  -0.742   1.259  0.00  0.00     0.133 C 
BRANCH   8   9
ATOM      9  N1  <0> d           0.004  -0.004   0.002  0.00  0.00    -0.352 N 
ATOM     10  C1  <0> d          -0.032   1.460   0.012  0.00  0.00     0.152 C 
ATOM     11  C14 <0> d          -0.102  -0.673  -1.163  0.00  0.00     0.253 C 
ATOM     12  O2  <0> d          -0.178  -1.886  -1.163  0.00  0.00    -0.267 OA
BRANCH  11  13
ATOM     13  C15 <0> d          -0.124   0.068  -2.441  0.00  0.00     0.035 A 
ATOM     14  C20 <0> d          -0.904  -0.391  -3.504  0.00  0.00     0.062 A 
ATOM     15  C19 <0> d          -0.926   0.309  -4.694  0.00  0.00     0.155 A 
ATOM     16  C18 <0> d          -0.164   1.461  -4.837  0.00  0.00     0.154 A 
ATOM     17  F1  <0> d          -1.685  -0.130  -5.721  0.00  0.00    -0.203 F 
ATOM     18  C17 <0> d           0.616   1.916  -3.786  0.00  0.00     0.046 A 
ATOM     19  F2  <0> d          -0.184   2.140  -6.005  0.00  0.00    -0.203 F 
ATOM     20  C16 <0> d           0.640   1.228  -2.592  0.00  0.00     0.020 A 
ENDBRANCH  11  13
ENDBRANCH   8   9
ENDBRANCH   7   8
ENDBRANCH   1   7
BRANCH   4  21
ATOM     21  C6  <0> d          -1.991  -4.371   5.116  0.00  0.00     0.157 A 
ATOM     22  N4  <0> d          -1.319  -5.081   6.211  0.00  0.00    -0.377 N 
ATOM     23  C13 <0> d          -0.609  -6.059   5.699  0.00  0.00     0.038 A 
ATOM     24  H18 <0> d          -1.389  -4.864   7.153  0.00  0.00     0.160 HD
ATOM     25  C8  <0> d          -0.751  -6.079   4.225  0.00  0.00    -0.010 A 
ATOM     26  C12 <0> d           0.224  -7.041   6.303  0.00  0.00     0.031 A 
ATOM     27  C7  <0> d          -1.575  -5.077   3.845  0.00  0.00     0.016 A 
ATOM     28  C9  <0> d          -0.026  -7.110   3.472  0.00  0.00     0.037 A 
ATOM     29  C10 <0> d           0.741  -7.998   4.147  0.00  0.00     0.035 A 
ATOM     30  C11 <0> d           0.859  -7.958   5.544  0.00  0.00     0.026 A 
ATOM     31 Cl1  <0> d           1.599  -9.219   3.260  0.00  0.00    -0.084 Cl
ENDBRANCH   4  21
TORSDOF 5
