REMARK  5 active torsions:
REMARK  status: ('A' for Active; 'I' for Inactive)
REMARK    1  A    between atoms: C6_6  and  C16_21 
REMARK    2  A    between atoms: C8_8  and  N1_9 
REMARK    3  A    between atoms: N2_10  and  C11_15 
REMARK    4  A    between atoms: C11_15  and  C12_16 
REMARK    5  A    between atoms: C19_24  and  O3_27 
ROOT
ATOM      1  C1  <0> d          -0.019   1.526   0.010  0.00  0.00     0.015 C 
ATOM      2  C2  <0> d           0.002  -0.004   0.002  0.00  0.00    -0.035 C 
ATOM      3  C3  <0> d          -1.431  -0.538   0.040  0.00  0.00     0.075 C 
ATOM      4  C4  <0> d          -1.408  -2.049   0.067  0.00  0.00     0.067 C 
ATOM      5  C5  <0> d          -0.399  -2.709   0.663  0.00  0.00     0.031 C 
ATOM      6  C6  <0> d          -0.375  -4.218   0.702  0.00  0.00     0.099 C 
ATOM      7  C7  <0> d          -1.738  -4.772   0.406  0.00  0.00     0.052 A 
ATOM      8  C8  <0> d          -2.058  -6.087   0.728  0.00  0.00     0.114 A 
ATOM      9  N2  <0> d          -3.280  -6.536   0.447  0.00  0.00    -0.321 N 
ATOM     10  C9  <0> d          -4.171  -5.751  -0.125  0.00  0.00     0.214 A 
ATOM     11  N3  <0> d          -3.901  -4.502  -0.443  0.00  0.00    -0.219 NA
ATOM     12  C10 <0> d          -2.702  -3.980  -0.195  0.00  0.00     0.181 A 
ATOM     13  O1  <0> d          -2.427  -2.703  -0.524  0.00  0.00    -0.295 OA
ATOM     14  C23 <0> d           0.670  -2.018   1.266  0.00  0.00     0.159 C 
ATOM     15  O4  <0> d           1.552  -2.648   1.815  0.00  0.00    -0.293 OA
ATOM     16  C24 <0> d           0.743  -0.516   1.242  0.00  0.00     0.092 C 
ATOM     17  C25 <0> d           0.708  -0.502  -1.261  0.00  0.00     0.015 C 
ENDROOT
BRANCH   6  18
ATOM     18  C16 <0> d           0.600  -4.728  -0.328  0.00  0.00    -0.045 A 
ATOM     19  C21 <0> d           1.681  -5.494   0.065  0.00  0.00     0.011 A 
ATOM     20  C20 <0> d           2.573  -5.968  -0.878  0.00  0.00     0.037 A 
ATOM     21  C19 <0> d           2.389  -5.664  -2.219  0.00  0.00     0.068 A 
ATOM     22  C18 <0> d           1.306  -4.890  -2.610  0.00  0.00     0.037 A 
ATOM     23  C17 <0> d           0.414  -4.423  -1.664  0.00  0.00     0.011 A 
BRANCH  21  24
ATOM     24  O3  <0> d           3.268  -6.124  -3.148  0.00  0.00    -0.356 OA
ATOM     25  C22 <0> d           4.359  -6.915  -2.673  0.00  0.00     0.210 C 
ENDBRANCH  21  24
ENDBRANCH   6  18
BRANCH   8  26
ATOM     26  N1  <0> d          -1.123  -6.914   1.331  0.00  0.00    -0.385 N 
ATOM     27  H7  <0> d          -0.236  -6.578   1.532  0.00  0.00     0.157 HD
ATOM     28  H26 <0> d          -1.356  -7.830   1.551  0.00  0.00     0.157 HD
ENDBRANCH   8  26
BRANCH   9  29
ATOM     29  C11 <0> d          -3.638  -7.918   0.777  0.00  0.00     0.196 C 
BRANCH  29  30
ATOM     30  C12 <0> d          -4.095  -7.990   2.211  0.00  0.00     0.070 A 
ATOM     31  O2  <0> d          -3.308  -8.217   3.275  0.00  0.00    -0.325 OA
ATOM     32  C15 <0> d          -4.054  -8.209   4.393  0.00  0.00     0.142 A 
ATOM     33  C14 <0> d          -5.334  -7.984   4.048  0.00  0.00     0.027 A 
ATOM     34  C13 <0> d          -5.361  -7.843   2.641  0.00  0.00     0.036 A 
ENDBRANCH  29  30
ENDBRANCH   9  29
TORSDOF 5
