REMARK  9 active torsions:
REMARK  status: ('A' for Active; 'I' for Inactive)
REMARK    1  A    between atoms: C2_2  and  C4_4 
REMARK    2  A    between atoms: C4_4  and  N1_5 
REMARK    3  A    between atoms: N1_5  and  C5_6 
REMARK    4  A    between atoms: N1_5  and  C9_11 
REMARK    5  A    between atoms: C5_6  and  C6_7 
REMARK    6  A    between atoms: C6_7  and  N2_8 
REMARK    7  A    between atoms: C9_11  and  C10_12 
REMARK    8  A    between atoms: C9_11  and  C11_14 
REMARK    9  A    between atoms: C10_12  and  N3_13 
ROOT
ATOM      1  C9  <0> d          -1.480  -0.491  -2.345  0.00  0.00     0.281 C 
ENDROOT
BRANCH   1   2
ATOM      2  N1  <0> d          -1.656   0.415  -1.203  0.00  0.00     0.101 N 
BRANCH   2   3
ATOM      3  C4  <0> d          -0.443   0.462  -0.376  0.00  0.00     0.277 C 
BRANCH   3   4
ATOM      4  C2  <0> d           0.661   1.204  -1.131  0.00  0.00     0.006 C 
ATOM      5  C1  <0> d           0.232   2.653  -1.368  0.00  0.00     0.011 C 
ATOM      6  C3  <0> d           1.948   1.182  -0.304  0.00  0.00     0.011 C 
ENDBRANCH   3   4
ENDBRANCH   2   3
BRANCH   2   7
ATOM      7  C5  <0> d          -2.826   0.032  -0.402  0.00  0.00     0.301 C 
BRANCH   7   8
ATOM      8  C6  <0> d          -3.255   1.212   0.471  0.00  0.00     0.264 C 
BRANCH   8   9
ATOM      9  N2  <0> d          -4.425   0.829   1.273  0.00  0.00    -0.077 N 
ATOM     10  C7  <0> d          -4.764   1.919   2.197  0.00  0.00     0.269 C 
ATOM     11  C8  <0> d          -5.565   0.569   0.383  0.00  0.00     0.269 C 
ATOM     12  H30 <0> d          -4.213  -0.005   1.800  0.00  0.00     0.279 HD
ENDBRANCH   8   9
ENDBRANCH   7   8
ENDBRANCH   2   7
ENDBRANCH   1   2
BRANCH   1  13
ATOM     13  C10 <0> d          -2.838  -0.763  -2.995  0.00  0.00     0.270 C 
BRANCH  13  14
ATOM     14  N3  <0> d          -3.505   0.513  -3.286  0.00  0.00    -0.077 N 
ATOM     15  H23 <0> d          -2.977   1.018  -3.982  0.00  0.00     0.274 HD
ATOM     16  H24 <0> d          -4.436   0.335  -3.634  0.00  0.00     0.274 HD
ATOM     17  H29 <0> d          -3.562   1.063  -2.442  0.00  0.00     0.274 HD
ENDBRANCH  13  14
ENDBRANCH   1  13
BRANCH   1  18
ATOM     18  C11 <0> d          -0.883  -1.790  -1.868  0.00  0.00    -0.022 A 
ATOM     19  C16 <0> d           0.336  -2.213  -2.362  0.00  0.00     0.028 A 
ATOM     20  C15 <0> d           0.886  -3.403  -1.919  0.00  0.00     0.011 A 
ATOM     21  C14 <0> d           0.210  -4.174  -0.991  0.00  0.00     0.019 A 
ATOM     22 Br1  <0> d           2.559  -3.978  -2.588  0.00  0.00    -0.051 Br
ATOM     23  C13 <0> d          -1.012  -3.753  -0.502  0.00  0.00     0.002 A 
ATOM     24  C12 <0> d          -1.559  -2.562  -0.941  0.00  0.00     0.009 A 
ENDBRANCH   1  18
TORSDOF 9
