REMARK  5 active torsions:
REMARK  status: ('A' for Active; 'I' for Inactive)
REMARK    1  A    between atoms: C2_2  and  C3_3 
REMARK    2  A    between atoms: C2_2  and  O4_13 
REMARK       I    between atoms: C3_3  and  N1_5 
REMARK    3  A    between atoms: N1_5  and  C4_6 
REMARK    4  A    between atoms: O4_13  and  N2_14 
REMARK    5  A    between atoms: C8_15  and  C9_16 
ROOT
ATOM      1  C1  <0> d           0.861   3.917   1.452  0.00  0.00     0.052 C 
ATOM      2  C2  <0> d           1.032   3.433   0.011  0.00  0.00     0.242 C 
ENDROOT
BRANCH   2   3
ATOM      3  C3  <0> d           2.246   4.087  -0.598  0.00  0.00     0.249 C 
ATOM      4  O1  <0> d           3.165   3.405  -1.000  0.00  0.00    -0.271 OA
ATOM      5  N1  <0> d           2.310   5.430  -0.695  0.00  0.00    -0.353 N 
ATOM      6  H6  <0> d           1.575   5.975  -0.374  0.00  0.00     0.163 HD
BRANCH   5   7
ATOM      7  C4  <0> d           3.490   6.065  -1.287  0.00  0.00     0.099 C 
ATOM      8  C7  <0> d           3.639   7.499  -0.722  0.00  0.00     0.165 C 
ATOM      9  S1  <0> d           4.395   8.411  -2.129  0.00  0.00     0.146 S 
ATOM     10  C6  <0> d           4.425   7.063  -3.385  0.00  0.00     0.142 C 
ATOM     11  O2  <0> d           3.497   9.424  -2.560  0.00  0.00    -0.228 OA
ATOM     12  O3  <0> d           5.731   8.758  -1.790  0.00  0.00    -0.228 OA
ATOM     13  C5  <0> d           3.329   6.119  -2.815  0.00  0.00     0.041 C 
ENDBRANCH   5   7
ENDBRANCH   2   3
BRANCH   2  14
ATOM     14  O4  <0> d           1.201   2.014   0.001  0.00  0.00    -0.242 OA
BRANCH  14  15
ATOM     15  N2  <0> d          -0.015   1.289   0.009  0.00  0.00    -0.145 NA
ATOM     16  C8  <0> d           0.002  -0.004   0.002  0.00  0.00     0.157 C 
BRANCH  16  17
ATOM     17  C9  <0> d          -1.266  -0.759   0.010  0.00  0.00    -0.017 A 
ATOM     18  C14 <0> d          -1.250  -2.156   0.002  0.00  0.00     0.014 A 
ATOM     19  C13 <0> d          -2.439  -2.856   0.010  0.00  0.00     0.024 A 
ATOM     20  C12 <0> d          -3.646  -2.177   0.025  0.00  0.00     0.034 A 
ATOM     21  C11 <0> d          -3.668  -0.792   0.033  0.00  0.00     0.024 A 
ATOM     22 Cl1  <0> d          -5.137  -3.065   0.034  0.00  0.00    -0.084 Cl
ATOM     23  C10 <0> d          -2.486  -0.081   0.031  0.00  0.00     0.014 A 
ENDBRANCH  16  17
ENDBRANCH  14  15
ENDBRANCH   2  14
TORSDOF 5
