REMARK  6 active torsions:
REMARK  status: ('A' for Active; 'I' for Inactive)
REMARK    1  A    between atoms: C7_7  and  C16_21 
REMARK    2  A    between atoms: C7_7  and  O4_28 
REMARK    3  A    between atoms: N1_10  and  C9_11 
REMARK    4  A    between atoms: C9_11  and  C10_12 
REMARK       I    between atoms: C10_12  and  N2_14 
REMARK    5  A    between atoms: N2_14  and  C11_15 
REMARK    6  A    between atoms: C11_15  and  C12_16 
ROOT
ATOM      1  C1  <0> d          -0.017   1.380   0.010  0.00  0.00     0.001 A 
ATOM      2  C2  <0> d           1.174   2.084   0.002  0.00  0.00     0.002 A 
ATOM      3  C3  <0> d           2.380   1.415  -0.013  0.00  0.00     0.030 A 
ATOM      4  C4  <0> d           2.407   0.021  -0.021  0.00  0.00     0.048 A 
ATOM      5  C5  <0> d           1.205  -0.674  -0.013  0.00  0.00     0.017 A 
ATOM      6  C6  <0> d           0.002  -0.004   0.002  0.00  0.00     0.013 A 
ATOM      7  C7  <0> d           1.563  -2.143  -0.025  0.00  0.00     0.196 A 
ATOM      8  C8  <0> d           3.077  -2.152  -0.040  0.00  0.00     0.269 A 
ATOM      9  O1  <0> d           3.791  -3.132  -0.052  0.00  0.00    -0.269 OA
ATOM     10  N1  <0> d           3.480  -0.870  -0.037  0.00  0.00    -0.305 N 
ENDROOT
BRANCH  10  11
ATOM     11  C9  <0> d           4.885  -0.456  -0.048  0.00  0.00     0.235 C 
BRANCH  11  12
ATOM     12  C10 <0> d           5.381  -0.322   1.368  0.00  0.00     0.236 C 
ATOM     13  O2  <0> d           4.634  -0.550   2.296  0.00  0.00    -0.272 OA
ATOM     14  N2  <0> d           6.655   0.051   1.604  0.00  0.00    -0.354 N 
ATOM     15  H7  <0> d           7.252   0.233   0.862  0.00  0.00     0.162 HD
BRANCH  14  16
ATOM     16  C11 <0> d           7.137   0.181   2.981  0.00  0.00     0.187 C 
BRANCH  16  17
ATOM     17  C12 <0> d           8.582   0.607   2.969  0.00  0.00     0.070 A 
ATOM     18  O3  <0> d           9.644  -0.216   2.955  0.00  0.00    -0.325 OA
ATOM     19  C15 <0> d          10.773   0.510   2.943  0.00  0.00     0.142 A 
ATOM     20  C14 <0> d          10.441   1.813   2.960  0.00  0.00     0.027 A 
ATOM     21  C13 <0> d           9.029   1.876   2.977  0.00  0.00     0.036 A 
ENDBRANCH  16  17
ENDBRANCH  14  16
ENDBRANCH  11  12
ENDBRANCH  10  11
BRANCH   7  22
ATOM     22  C16 <0> d           1.043  -2.823   1.216  0.00  0.00    -0.007 A 
ATOM     23  C21 <0> d           0.688  -4.157   1.174  0.00  0.00     0.053 A 
ATOM     24  C20 <0> d           0.216  -4.784   2.316  0.00  0.00     0.117 A 
ATOM     25  C19 <0> d           0.089  -4.068   3.494  0.00  0.00     0.042 A 
ATOM     26  F1  <0> d          -0.126  -6.090   2.278  0.00  0.00    -0.206 F 
ATOM     27  C18 <0> d           0.440  -2.732   3.532  0.00  0.00     0.004 A 
ATOM     28  C17 <0> d           0.916  -2.109   2.393  0.00  0.00     0.011 A 
ENDBRANCH   7  22
BRANCH   7  29
ATOM     29  O4  <0> d           1.046  -2.775  -1.197  0.00  0.00    -0.371 OA
ATOM     30  H17 <0> d           1.247  -3.719  -1.256  0.00  0.00     0.212 HD
ENDBRANCH   7  29
TORSDOF 6
