REMARK  4 active torsions:
REMARK  status: ('A' for Active; 'I' for Inactive)
REMARK    1  A    between atoms: C6_6  and  N1_9 
REMARK       I    between atoms: N1_9  and  C9_10 
REMARK    2  A    between atoms: C9_10  and  C10_12 
REMARK    3  A    between atoms: C13_17  and  C23_30 
REMARK    4  A    between atoms: C15_19  and  C16_21 
ROOT
ATOM      1  C10 <0> d          -0.129  -4.883   3.659  0.00  0.00     0.148 A 
ATOM      2  C11 <0> d          -0.217  -6.287   3.797  0.00  0.00     0.089 A 
ATOM      3  C12 <0> d          -0.287  -6.562   5.115  0.00  0.00     0.123 A 
ATOM      4  N2  <0> d          -0.244  -5.381   5.799  0.00  0.00    -0.240 N 
ATOM      5  N3  <0> d          -0.141  -4.349   4.867  0.00  0.00    -0.165 NA
ATOM      6  C13 <0> d          -0.293  -5.286   7.261  0.00  0.00     0.221 C 
ATOM      7  C14 <0> d           0.086  -6.646   7.859  0.00  0.00     0.066 C 
ATOM      8  C15 <0> d          -0.734  -7.756   7.194  0.00  0.00     0.118 C 
ATOM      9  N4  <0> d          -0.389  -7.799   5.759  0.00  0.00    -0.366 N 
ATOM     10  H16 <0> d          -0.242  -8.635   5.291  0.00  0.00     0.161 HD
ENDROOT
BRANCH   1  11
ATOM     11  C9  <0> d          -0.033  -4.142   2.385  0.00  0.00     0.276 C 
ATOM     12  N1  <0> d           0.051  -2.797   2.392  0.00  0.00    -0.321 N 
ATOM     13  H12 <0> d           0.130  -2.321   3.233  0.00  0.00     0.169 HD
ATOM     14  O1  <0> d          -0.030  -4.746   1.329  0.00  0.00    -0.266 OA
BRANCH  12  15
ATOM     15  C6  <0> d           0.025  -2.088   1.187  0.00  0.00     0.041 A 
ATOM     16  C5  <0> d          -0.581  -2.642   0.067  0.00  0.00     0.030 A 
ATOM     17  C4  <0> d          -0.605  -1.939  -1.122  0.00  0.00     0.003 A 
ATOM     18  C3  <0> d          -0.027  -0.686  -1.198  0.00  0.00     0.007 A 
ATOM     19  C2  <0> d           0.578  -0.131  -0.084  0.00  0.00    -0.054 A 
ATOM     20  C1  <0> d           1.207   1.235  -0.171  0.00  0.00     0.049 C 
ATOM     21  C7  <0> d           0.610  -0.831   1.106  0.00  0.00    -0.029 A 
ATOM     22  C8  <0> d           1.275  -0.229   2.317  0.00  0.00     0.051 C 
ENDBRANCH  12  15
ENDBRANCH   1  11
BRANCH   6  23
ATOM     23  C23 <0> d           0.695  -4.220   7.739  0.00  0.00     0.409 C 
ATOM     24  F1  <0> d           0.353  -2.983   7.181  0.00  0.00    -0.169 F 
ATOM     25  F2  <0> d           0.647  -4.131   9.134  0.00  0.00    -0.169 F 
ATOM     26  F3  <0> d           1.989  -4.570   7.338  0.00  0.00    -0.169 F 
ENDBRANCH   6  23
BRANCH   8  27
ATOM     27  C16 <0> d          -2.204  -7.466   7.356  0.00  0.00    -0.033 A 
ATOM     28  C21 <0> d          -2.930  -8.110   8.340  0.00  0.00     0.049 A 
ATOM     29  C20 <0> d          -4.280  -7.841   8.495  0.00  0.00     0.105 A 
ATOM     30  C19 <0> d          -4.906  -6.929   7.649  0.00  0.00     0.105 A 
ATOM     31  O2  <0> d          -5.205  -8.328   9.373  0.00  0.00    -0.323 OA
ATOM     32  C18 <0> d          -4.173  -6.291   6.661  0.00  0.00     0.040 A 
ATOM     33  O3  <0> d          -6.223  -6.844   7.997  0.00  0.00    -0.323 OA
ATOM     34  C17 <0> d          -2.825  -6.560   6.516  0.00  0.00     0.012 A 
ATOM     35  C22 <0> d          -6.308  -7.403   9.321  0.00  0.00     0.352 C 
ENDBRANCH   8  27
TORSDOF 4
