REMARK  7 active torsions:
REMARK  status: ('A' for Active; 'I' for Inactive)
REMARK    1  A    between atoms: C4_4  and  C15_22 
REMARK    2  A    between atoms: C6_6  and  N1_7 
REMARK    3  A    between atoms: N1_7  and  C7_8 
REMARK    4  A    between atoms: C8_9  and  N7_21 
REMARK    5  A    between atoms: C9_10  and  N4_14 
REMARK    6  A    between atoms: N4_14  and  C11_15 
REMARK    7  A    between atoms: N4_14  and  C13_18 
ROOT
ATOM      1  C11 <0> d          -6.476  -1.133   1.806  0.00  0.00     0.249 C 
ATOM      2  C12 <0> d          -7.271  -0.064   2.433  0.00  0.00     0.079 C 
ATOM      3  N5  <0> d          -7.884   0.761   2.917  0.00  0.00    -0.196 NA
ENDROOT
BRANCH   1   4
ATOM      4  N4  <0> d          -6.012  -0.689   0.490  0.00  0.00    -0.339 N 
BRANCH   4   5
ATOM      5  C9  <0> d          -4.793  -0.031   0.369  0.00  0.00     0.159 A 
ATOM      6  C8  <0> d          -3.605  -0.756   0.254  0.00  0.00     0.118 A 
ATOM      7  C7  <0> d          -2.409  -0.046   0.134  0.00  0.00     0.159 A 
ATOM      8  N3  <0> d          -2.446   1.285   0.140  0.00  0.00    -0.222 NA
ATOM      9  C10 <0> d          -3.590   1.930   0.246  0.00  0.00     0.237 A 
ATOM     10  N2  <0> d          -4.741   1.299   0.361  0.00  0.00    -0.222 NA
BRANCH   6  11
ATOM     11  N7  <0> d          -3.614  -2.160   0.257  0.00  0.00    -0.393 N 
ATOM     12  H10 <0> d          -2.776  -2.650   0.249  0.00  0.00     0.156 HD
ATOM     13  H11 <0> d          -4.456  -2.640   0.268  0.00  0.00     0.156 HD
ENDBRANCH   6  11
BRANCH   7  14
ATOM     14  N1  <0> d          -1.198  -0.718   0.017  0.00  0.00    -0.339 N 
ATOM     15  H4  <0> d          -1.186  -1.683  -0.075  0.00  0.00     0.167 HD
BRANCH  14  16
ATOM     16  C6  <0> d           0.003  -0.002   0.031  0.00  0.00     0.034 A 
ATOM     17  C1  <0> d           0.075   1.224   0.679  0.00  0.00     0.031 A 
ATOM     18  C2  <0> d           1.263   1.929   0.692  0.00  0.00     0.027 A 
ATOM     19  C3  <0> d           2.380   1.415   0.059  0.00  0.00     0.049 A 
ATOM     20  C4  <0> d           2.312   0.193  -0.589  0.00  0.00     0.071 A 
ATOM     21 Cl1  <0> d           3.872   2.303   0.076  0.00  0.00    -0.083 Cl
ATOM     22  C5  <0> d           1.127  -0.516  -0.604  0.00  0.00     0.047 A 
BRANCH  20  23
ATOM     23  C15 <0> d           3.531  -0.363  -1.278  0.00  0.00     0.419 C 
ATOM     24  F1  <0> d           3.217  -1.598  -1.855  0.00  0.00    -0.166 F 
ATOM     25  F2  <0> d           3.949   0.525  -2.275  0.00  0.00    -0.166 F 
ATOM     26  F3  <0> d           4.558  -0.533  -0.343  0.00  0.00    -0.166 F 
ENDBRANCH  20  23
ENDBRANCH  14  16
ENDBRANCH   7  14
ENDBRANCH   4   5
BRANCH   4  27
ATOM     27  C13 <0> d          -6.831  -0.937  -0.699  0.00  0.00     0.249 C 
ATOM     28  C14 <0> d          -6.554  -2.288  -1.213  0.00  0.00     0.079 C 
ATOM     29  N6  <0> d          -6.340  -3.331  -1.609  0.00  0.00    -0.196 NA
ENDBRANCH   4  27
ENDBRANCH   1   4
TORSDOF 7
