REMARK  6 active torsions:
REMARK  status: ('A' for Active; 'I' for Inactive)
REMARK    1  A    between atoms: N1_6  and  C7_8 
REMARK    2  A    between atoms: C7_8  and  C8_9 
REMARK    3  A    between atoms: C11_12  and  C14_15 
REMARK    4  A    between atoms: C14_15  and  N2_16 
REMARK    5  A    between atoms: N2_16  and  C15_17 
REMARK    6  A    between atoms: C15_17  and  C16_18 
ROOT
ATOM      1  C8  <0> d           1.666  -3.960   2.315  0.00  0.00    -0.033 A 
ATOM      2  C9  <0> d           0.713  -4.769   2.905  0.00  0.00     0.009 A 
ATOM      3  C10 <0> d           0.834  -6.144   2.837  0.00  0.00     0.009 A 
ATOM      4  C11 <0> d           1.909  -6.711   2.177  0.00  0.00    -0.033 A 
ATOM      5  C12 <0> d           2.861  -5.902   1.585  0.00  0.00     0.009 A 
ATOM      6  C13 <0> d           2.737  -4.527   1.651  0.00  0.00     0.009 A 
ENDROOT
BRANCH   4   7
ATOM      7  C14 <0> d           2.042  -8.210   2.102  0.00  0.00     0.270 C 
BRANCH   7   8
ATOM      8  N2  <0> d           1.357  -8.703   0.899  0.00  0.00    -0.071 N 
ATOM      9  H22 <0> d           0.381  -8.454   0.942  0.00  0.00     0.277 HD
ATOM     10  H33 <0> d           1.775  -8.288   0.081  0.00  0.00     0.277 HD
BRANCH   8  11
ATOM     11  C15 <0> d           1.487 -10.165   0.827  0.00  0.00     0.240 C 
BRANCH  11  12
ATOM     12  C16 <0> d           0.774 -10.679  -0.426  0.00  0.00     0.049 C 
ATOM     13  C21 <0> d           1.019 -12.185  -0.569  0.00  0.00     0.161 C 
ATOM     14  N5  <0> d           0.148 -12.709  -1.624  0.00  0.00    -0.254 N 
ATOM     15  C18 <0> d          -0.966 -12.072  -2.069  0.00  0.00     0.121 A 
ATOM     16  N4  <0> d           0.275 -13.897  -2.344  0.00  0.00    -0.183 NA
ATOM     17  N3  <0> d          -1.387 -10.845  -1.551  0.00  0.00    -0.375 N 
ATOM     18  C19 <0> d          -1.521 -12.832  -3.038  0.00  0.00     0.070 A 
ATOM     19  C17 <0> d          -0.729 -10.406  -0.304  0.00  0.00     0.129 C 
ATOM     20  H27 <0> d          -2.072 -10.312  -1.985  0.00  0.00     0.161 HD
ATOM     21  C20 <0> d          -0.723 -13.973  -3.192  0.00  0.00     0.142 A 
ENDBRANCH  11  12
ENDBRANCH   8  11
ENDBRANCH   7   8
ENDBRANCH   4   7
BRANCH   1  22
ATOM     22  C7  <0> d           1.534  -2.461   2.390  0.00  0.00     0.273 C 
BRANCH  22  23
ATOM     23  N1  <0> d           0.758  -1.980   1.239  0.00  0.00    -0.067 N 
ATOM     24  C5  <0> d          -0.613  -2.496   1.324  0.00  0.00     0.235 C 
ATOM     25  C4  <0> d          -1.402  -2.064   0.086  0.00  0.00     0.028 C 
ATOM     26  C3  <0> d          -1.434  -0.535   0.015  0.00  0.00     0.007 C 
ATOM     27  C2  <0> d           0.002  -0.004   0.002  0.00  0.00     0.007 C 
ATOM     28  C1  <0> d          -0.019   1.526   0.010  0.00  0.00     0.011 C 
ATOM     29  C6  <0> d           0.740  -0.512   1.242  0.00  0.00     0.239 C 
ATOM     30  H32 <0> d           1.188  -2.307   0.386  0.00  0.00     0.280 HD
ENDBRANCH  22  23
ENDBRANCH   1  22
TORSDOF 6
