REMARK  4 active torsions:
REMARK  status: ('A' for Active; 'I' for Inactive)
REMARK    1  A    between atoms: C2_2  and  C3_3 
REMARK    2  A    between atoms: C2_2  and  N2_13 
REMARK    3  A    between atoms: C5_6  and  C6_8 
REMARK    4  A    between atoms: C6_8  and  S2_9 
ROOT
ATOM      1  C3  <0> d          -1.412  -0.526   0.013  0.00  0.00     0.032 A 
ATOM      2  C4  <0> d          -2.170  -0.996  -1.010  0.00  0.00     0.134 A 
ATOM      3  N1  <0> d          -3.392  -1.393  -0.715  0.00  0.00    -0.256 NA
ATOM      4  C5  <0> d          -3.849  -1.336   0.511  0.00  0.00     0.089 A 
ATOM      5  S1  <0> d          -2.551  -0.704   1.376  0.00  0.00    -0.075 SA
ENDROOT
BRANCH   1   6
ATOM      6  C2  <0> d           0.002  -0.004   0.002  0.00  0.00     0.222 C 
ATOM      7  C1  <0> d          -0.019   1.526   0.010  0.00  0.00     0.046 C 
BRANCH   6   8
ATOM      8  N2  <0> d           0.713  -0.491   1.192  0.00  0.00    -0.071 N 
ATOM      9  C8  <0> d           2.122  -0.083   1.122  0.00  0.00     0.267 C 
ATOM     10  H11 <0> d           0.290  -0.099   2.020  0.00  0.00     0.277 HD
ATOM     11  H15 <0> d           0.655  -1.497   1.230  0.00  0.00     0.277 HD
ENDBRANCH   6   8
ENDBRANCH   1   6
BRANCH   4  12
ATOM     12  C6  <0> d          -5.206  -1.744   1.024  0.00  0.00     0.206 C 
BRANCH  12  13
ATOM     13  S2  <0> d          -5.166  -3.488   1.522  0.00  0.00     0.146 S 
ATOM     14  O1  <0> d          -4.943  -4.281   0.364  0.00  0.00    -0.228 OA
ATOM     15  O2  <0> d          -4.286  -3.618   2.629  0.00  0.00    -0.228 OA
ATOM     16  C7  <0> d          -6.861  -3.779   2.099  0.00  0.00     0.161 C 
ENDBRANCH  12  13
ENDBRANCH   4  12
TORSDOF 4
