REMARK  5 active torsions:
REMARK  status: ('A' for Active; 'I' for Inactive)
REMARK    1  A    between atoms: N1_9  and  C11_16 
REMARK    2  A    between atoms: C7_10  and  C8_12 
REMARK    3  A    between atoms: C8_12  and  N3_13 
REMARK    4  A    between atoms: C11_16  and  C12_17 
REMARK    5  A    between atoms: C12_17  and  C13_19 
ROOT
ATOM      1  C1  <0> d          -0.018   1.503   0.010  0.00  0.00     0.050 C 
ATOM      2  C2  <0> d           0.002  -0.004   0.002  0.00  0.00    -0.031 A 
ATOM      3  C3  <0> d           0.006  -0.677  -1.160  0.00  0.00    -0.012 A 
ATOM      4  S1  <0> d           0.032  -2.385  -0.648  0.00  0.00    -0.074 SA
ATOM      5  C4  <0> d           0.037  -2.144   1.110  0.00  0.00     0.116 A 
ATOM      6  C5  <0> d           0.024  -0.745   1.250  0.00  0.00     0.075 A 
ATOM      7  C6  <0> d           0.029  -0.257   2.597  0.00  0.00     0.263 A 
ATOM      8  O1  <0> d           0.014   0.942   2.821  0.00  0.00    -0.267 OA
ATOM      9  N1  <0> d           0.051  -1.142   3.611  0.00  0.00    -0.293 N 
ATOM     10  C7  <0> d           0.068  -2.480   3.380  0.00  0.00     0.136 A 
ATOM     11  N2  <0> d           0.053  -2.956   2.163  0.00  0.00    -0.225 NA
ATOM     12  C21 <0> d          -0.009  -0.122  -2.561  0.00  0.00     0.057 C 
ENDROOT
BRANCH   9  13
ATOM     13  C11 <0> d           0.056  -0.652   4.991  0.00  0.00     0.217 C 
BRANCH  13  14
ATOM     14  C12 <0> d          -1.363  -0.503   5.477  0.00  0.00     0.179 C 
ATOM     15  O2  <0> d          -2.288  -0.780   4.742  0.00  0.00    -0.290 OA
BRANCH  14  16
ATOM     16  C13 <0> d          -1.616  -0.041   6.793  0.00  0.00     0.039 A 
ATOM     17  C16 <0> d          -2.936   0.160   7.423  0.00  0.00     0.006 A 
ATOM     18  C15 <0> d          -2.674   0.623   8.722  0.00  0.00     0.043 A 
ATOM     19  C17 <0> d          -4.248  -0.015   6.994  0.00  0.00     0.014 A 
ATOM     20  N4  <0> d          -1.304   0.705   8.868  0.00  0.00    -0.364 N 
ATOM     21  C20 <0> d          -3.738   0.902   9.573  0.00  0.00     0.030 A 
ATOM     22  C14 <0> d          -0.680   0.317   7.739  0.00  0.00     0.104 A 
ATOM     23  H1  <0> d          -0.852   1.003   9.673  0.00  0.00     0.165 HD
ATOM     24  C19 <0> d          -5.033   0.732   9.133  0.00  0.00     0.002 A 
ATOM     25  C18 <0> d          -5.290   0.271   7.851  0.00  0.00     0.001 A 
ENDBRANCH  14  16
ENDBRANCH  13  14
ENDBRANCH   9  13
BRANCH  10  26
ATOM     26  C8  <0> d           0.092  -3.432   4.547  0.00  0.00     0.312 C 
BRANCH  26  27
ATOM     27  N3  <0> d           0.107  -4.815   4.051  0.00  0.00    -0.072 N 
ATOM     28  C9  <0> d           1.359  -5.060   3.324  0.00  0.00     0.269 C 
ATOM     29  C10 <0> d           0.010  -5.743   5.186  0.00  0.00     0.269 C 
ATOM     30  H23 <0> d          -0.676  -4.958   3.431  0.00  0.00     0.279 HD
ENDBRANCH  26  27
ENDBRANCH  10  26
TORSDOF 5
