REMARK  4 active torsions:
REMARK  status: ('A' for Active; 'I' for Inactive)
REMARK    1  A    between atoms: C4_4  and  O6_32 
REMARK    2  A    between atoms: C10_10  and  C14_16 
REMARK    3  A    between atoms: C14_16  and  C15_18 
REMARK    4  A    between atoms: C15_18  and  O4_19 
ROOT
ATOM      1  C1  <0> d          -0.535   1.160   0.258  0.00  0.00     0.019 C 
ATOM      2  C2  <0> d          -0.194  -0.311   0.015  0.00  0.00     0.004 C 
ATOM      3  C3  <0> d          -1.518  -0.974  -0.138  0.00  0.00     0.048 C 
ATOM      4  C4  <0> d          -1.570  -2.383   0.444  0.00  0.00     0.160 C 
ATOM      5  C5  <0> d          -1.110  -2.291   1.904  0.00  0.00     0.147 C 
ATOM      6  C6  <0> d           0.368  -1.951   1.916  0.00  0.00     0.037 C 
ATOM      7  C7  <0> d           0.705  -0.669   1.194  0.00  0.00     0.007 C 
ATOM      8  C8  <0> d           2.138  -0.857   0.571  0.00  0.00     0.041 C 
ATOM      9  C9  <0> d           1.796  -1.312  -0.832  0.00  0.00     0.168 C 
ATOM     10  C10 <0> d           0.673  -0.267  -1.199  0.00  0.00     0.160 C 
ATOM     11  O1  <0> d           0.370  -0.718  -2.493  0.00  0.00    -0.334 OA
ATOM     12  C11 <0> d           1.700  -0.933  -3.058  0.00  0.00     0.159 C 
ATOM     13  O2  <0> d           2.612  -1.168  -1.962  0.00  0.00    -0.347 OA
ATOM     14  C12 <0> d           1.675  -2.139  -3.998  0.00  0.00     0.078 C 
ATOM     15  C13 <0> d           2.143   0.314  -3.827  0.00  0.00     0.078 C 
ATOM     16  C16 <0> d           0.843  -1.893   3.374  0.00  0.00     0.050 C 
ATOM     17  C17 <0> d           0.901  -3.329   3.899  0.00  0.00     0.201 C 
ATOM     18  C18 <0> d          -0.377  -4.053   3.592  0.00  0.00    -0.027 C 
ATOM     19  C19 <0> d          -0.605  -5.239   4.202  0.00  0.00     0.061 C 
ATOM     20  C20 <0> d          -1.868  -5.915   3.799  0.00  0.00     0.172 C 
ATOM     21  O5  <0> d          -2.598  -6.472   4.597  0.00  0.00    -0.289 OA
ATOM     22  C21 <0> d          -2.170  -5.856   2.341  0.00  0.00     0.052 C 
ATOM     23  C22 <0> d          -1.926  -4.662   1.757  0.00  0.00    -0.006 C 
ATOM     24  C23 <0> d          -1.419  -3.562   2.645  0.00  0.00     0.039 C 
ATOM     25  C24 <0> d          -2.617  -3.216   3.531  0.00  0.00     0.028 C 
ATOM     26  F1  <0> d           1.968  -4.000   3.292  0.00  0.00    -0.245 F 
ATOM     27  F2  <0> d          -1.800  -1.241   2.519  0.00  0.00    -0.238 F 
ENDROOT
BRANCH  10  28
ATOM     28  C14 <0> d           1.307   1.097  -1.302  0.00  0.00     0.188 C 
ATOM     29  O3  <0> d           2.360   1.316  -0.753  0.00  0.00    -0.292 OA
BRANCH  28  30
ATOM     30  C15 <0> d           0.628   2.186  -2.091  0.00  0.00     0.245 C 
BRANCH  30  31
ATOM     31  O4  <0> d           1.470   3.339  -2.134  0.00  0.00    -0.393 OA
ATOM     32  H21 <0> d           1.095   4.082  -2.627  0.00  0.00     0.209 HD
ENDBRANCH  30  31
ENDBRANCH  28  30
ENDBRANCH  10  28
BRANCH   4  33
ATOM     33  O6  <0> d          -0.696  -3.244  -0.290  0.00  0.00    -0.392 OA
ATOM     34  H30 <0> d          -0.914  -3.319  -1.229  0.00  0.00     0.210 HD
ENDBRANCH   4  33
TORSDOF 4
