REMARK  3 active torsions:
REMARK  status: ('A' for Active; 'I' for Inactive)
REMARK       I    between atoms: N2_4  and  C6_12 
REMARK    1  A    between atoms: C3_5  and  C5_7 
REMARK    2  A    between atoms: C3_5  and  O1_11 
REMARK    3  A    between atoms: C6_12  and  C7_14 
ROOT
ATOM      1  C1  <0> d          -4.575   2.614   0.060  0.00  0.00     0.067 C 
ATOM      2  C2  <0> d          -3.972   1.233   0.048  0.00  0.00     0.034 A 
ATOM      3  N1  <0> d          -2.728   0.979   0.040  0.00  0.00    -0.176 NA
ATOM      4  N2  <0> d          -2.416  -0.379   0.024  0.00  0.00    -0.187 N 
ATOM      5  C3  <0> d          -3.669  -1.151   0.033  0.00  0.00     0.261 A 
ATOM      6  C4  <0> d          -4.758  -0.059   0.049  0.00  0.00     0.129 A 
ATOM      7  C6  <0> d          -1.173  -0.899   0.009  0.00  0.00     0.297 C 
ATOM      8  O2  <0> d          -1.018  -2.105   0.002  0.00  0.00    -0.264 OA
ENDROOT
BRANCH   5   9
ATOM      9  C5  <0> d          -3.784  -2.009  -1.229  0.00  0.00     0.440 C 
ATOM     10  F1  <0> d          -2.723  -2.920  -1.272  0.00  0.00    -0.166 F 
ATOM     11  F2  <0> d          -4.997  -2.706  -1.211  0.00  0.00    -0.166 F 
ATOM     12  F3  <0> d          -3.736  -1.185  -2.359  0.00  0.00    -0.166 F 
ENDBRANCH   5   9
BRANCH   5  13
ATOM     13  O1  <0> d          -3.751  -1.967   1.203  0.00  0.00    -0.362 OA
ATOM     14  H6  <0> d          -3.045  -2.623   1.275  0.00  0.00     0.213 HD
ENDBRANCH   5  13
BRANCH   7  15
ATOM     15  C7  <0> d           0.002  -0.004   0.002  0.00  0.00     0.147 A 
ATOM     16  N4  <0> d          -0.016   1.314   0.009  0.00  0.00    -0.168 NA
ATOM     17  N3  <0> d           1.185   1.771   0.000  0.00  0.00    -0.285 N 
ATOM     18  C9  <0> d           2.072   0.753  -0.014  0.00  0.00     0.114 A 
ATOM     19  C10 <0> d           1.540   3.192   0.004  0.00  0.00     0.179 C 
ATOM     20  C8  <0> d           1.361  -0.398  -0.013  0.00  0.00     0.058 A 
ENDBRANCH   7  15
TORSDOF 3
