REMARK  10 active torsions:
REMARK  status: ('A' for Active; 'I' for Inactive)
REMARK    1  A    between atoms: N1_5  and  C7_8 
REMARK    2  A    between atoms: C7_8  and  C8_9 
REMARK    3  A    between atoms: C8_9  and  C9_10 
REMARK    4  A    between atoms: C8_9  and  O2_24 
REMARK    5  A    between atoms: C9_10  and  N2_11 
REMARK    6  A    between atoms: N2_11  and  C10_12 
REMARK    7  A    between atoms: C10_12  and  C11_13 
REMARK    8  A    between atoms: C14_16  and  O1_20 
REMARK    9  A    between atoms: O1_20  and  C17_21 
REMARK   10  A    between atoms: C17_21  and  C18_22 
ROOT
ATOM      1  N2  <0> d           0.631  -6.350   4.011  0.00  0.00    -0.069 N 
ATOM      2  H18 <0> d           1.563  -5.972   4.094  0.00  0.00     0.277 HD
ATOM      3  H31 <0> d           0.063  -6.015   4.774  0.00  0.00     0.277 HD
ENDROOT
BRANCH   1   4
ATOM      4  C9  <0> d           0.041  -5.922   2.735  0.00  0.00     0.265 C 
BRANCH   4   5
ATOM      5  C8  <0> d          -0.023  -4.394   2.690  0.00  0.00     0.169 C 
BRANCH   5   6
ATOM      6  C7  <0> d          -0.750  -3.952   1.419  0.00  0.00     0.268 C 
BRANCH   6   7
ATOM      7  N1  <0> d          -0.817  -2.485   1.378  0.00  0.00    -0.069 N 
ATOM      8  C4  <0> d          -1.667  -2.005   2.474  0.00  0.00     0.235 C 
ATOM      9  C3  <0> d          -1.674  -0.474   2.486  0.00  0.00     0.032 C 
ATOM     10  C2  <0> d          -2.222   0.038   1.151  0.00  0.00    -0.015 C 
ATOM     11  C1  <0> d          -2.158   1.567   1.124  0.00  0.00     0.010 C 
ATOM     12  C6  <0> d          -1.372  -0.529   0.010  0.00  0.00     0.032 C 
ATOM     13  C5  <0> d          -1.376  -2.057   0.090  0.00  0.00     0.235 C 
ATOM     14  H30 <0> d           0.112  -2.105   1.483  0.00  0.00     0.280 HD
ENDBRANCH   6   7
ENDBRANCH   5   6
BRANCH   5  15
ATOM     15  O2  <0> d           1.303  -3.862   2.691  0.00  0.00    -0.392 OA
ATOM     16  H29 <0> d           1.841  -4.147   1.940  0.00  0.00     0.210 HD
ENDBRANCH   5  15
ENDBRANCH   4   5
ENDBRANCH   1   4
BRANCH   1  17
ATOM     17  C10 <0> d           0.693  -7.817   4.054  0.00  0.00     0.271 C 
BRANCH  17  18
ATOM     18  C11 <0> d           1.298  -8.256   5.362  0.00  0.00    -0.031 A 
ATOM     19  C16 <0> d           0.485  -8.488   6.456  0.00  0.00     0.035 A 
ATOM     20  C15 <0> d           1.038  -8.896   7.655  0.00  0.00     0.068 A 
ATOM     21  C14 <0> d           2.412  -9.062   7.764  0.00  0.00     0.090 A 
ATOM     22 Cl1  <0> d           0.015  -9.195   9.026  0.00  0.00    -0.081 Cl
ATOM     23  C13 <0> d           3.225  -8.823   6.666  0.00  0.00     0.039 A 
ATOM     24  C12 <0> d           2.667  -8.421   5.468  0.00  0.00     0.012 A 
BRANCH  21  25
ATOM     25  O1  <0> d           2.958  -9.459   8.943  0.00  0.00    -0.346 OA
BRANCH  25  26
ATOM     26  C17 <0> d           4.379  -9.610   8.982  0.00  0.00     0.202 C 
BRANCH  26  27
ATOM     27  C18 <0> d           4.800 -10.052  10.360  0.00  0.00    -0.011 C 
ATOM     28  C19 <0> d           5.675 -11.017  10.499  0.00  0.00     0.009 C 
ENDBRANCH  26  27
ENDBRANCH  25  26
ENDBRANCH  21  25
ENDBRANCH  17  18
ENDBRANCH   1  17
TORSDOF 10
