REMARK  1 active torsions:
REMARK  status: ('A' for Active; 'I' for Inactive)
REMARK    1  A    between atoms: C6_6  and  N1_8 
ROOT
ATOM      1  C1  <0> d          -0.018   1.503   0.010  0.00  0.00     0.048 C 
ATOM      2  C2  <0> d           0.002  -0.004   0.002  0.00  0.00    -0.059 A 
ATOM      3  C3  <0> d           0.006  -0.684  -1.197  0.00  0.00     0.025 A 
ATOM      4  C4  <0> d           0.026  -2.081  -1.202  0.00  0.00     0.046 A 
ATOM      5  C5  <0> d           0.046  -2.792   0.007  0.00  0.00     0.110 A 
ATOM      6  C6  <0> d           0.039  -2.087   1.210  0.00  0.00     0.061 A 
ATOM      7  C7  <0> d           0.023  -0.701   1.200  0.00  0.00     0.038 A 
ATOM      8  O1  <0> d           0.081  -4.146   0.017  0.00  0.00    -0.336 OA
ATOM      9  C8  <0> d          -0.373  -4.854  -1.135  0.00  0.00     0.078 C 
ATOM     10  C9  <0> d          -0.057  -6.344  -0.980  0.00  0.00     0.067 C 
ATOM     11  C10 <0> d          -0.836  -6.904   0.212  0.00  0.00     0.237 C 
ATOM     12  N2  <0> d          -2.275  -6.726  -0.012  0.00  0.00    -0.075 N 
ATOM     13  C11 <0> d          -2.595  -5.296  -0.087  0.00  0.00     0.237 C 
ATOM     14  C12 <0> d          -1.884  -4.673  -1.291  0.00  0.00     0.067 C 
ATOM     15  C13 <0> d          -3.021  -7.336   1.097  0.00  0.00     0.269 C 
ATOM     16  C14 <0> d           0.336  -4.313  -2.384  0.00  0.00     0.122 C 
ATOM     17  C15 <0> d           0.025  -2.830  -2.471  0.00  0.00     0.165 C 
ATOM     18  O2  <0> d          -0.213  -2.289  -3.530  0.00  0.00    -0.292 OA
ATOM     19  H21 <0> d          -2.538  -7.175  -0.877  0.00  0.00     0.279 HD
ENDROOT
BRANCH   6  20
ATOM     20  N1  <0> d           0.052  -2.778   2.428  0.00  0.00    -0.397 N 
ATOM     21  H6  <0> d           0.067  -3.748   2.435  0.00  0.00     0.156 HD
ATOM     22  H7  <0> d           0.047  -2.287   3.264  0.00  0.00     0.156 HD
ENDBRANCH   6  20
TORSDOF 1
