REMARK  6 active torsions:
REMARK  status: ('A' for Active; 'I' for Inactive)
REMARK    1  A    between atoms: C3_3  and  C6_8 
REMARK    2  A    between atoms: C6_8  and  C7_10 
REMARK    3  A    between atoms: C8_11  and  O3_29 
REMARK    4  A    between atoms: N2_14  and  C16_22 
REMARK    5  A    between atoms: C10_15  and  C11_16 
REMARK    6  A    between atoms: C16_22  and  C17_23 
ROOT
ATOM      1  C7  <0> d          -1.358  -1.145  -0.087  0.00  0.00     0.059 A 
ATOM      2  C8  <0> d          -1.687  -2.447   0.068  0.00  0.00     0.146 A 
ATOM      3  C9  <0> d          -3.138  -2.555   0.321  0.00  0.00     0.278 A 
ATOM      4  O2  <0> d          -3.739  -3.596   0.505  0.00  0.00    -0.265 OA
ATOM      5  N2  <0> d          -3.698  -1.332   0.314  0.00  0.00    -0.329 N 
ATOM      6  C10 <0> d          -2.636  -0.352   0.059  0.00  0.00     0.161 A 
ENDROOT
BRANCH   1   7
ATOM      7  C6  <0> d          -0.019  -0.606  -0.352  0.00  0.00     0.202 C 
ATOM      8  O1  <0> d           0.542  -0.858  -1.404  0.00  0.00    -0.286 OA
BRANCH   7   9
ATOM      9  C3  <0> d           0.644   0.236   0.649  0.00  0.00     0.081 A 
ATOM     10  C2  <0> d           1.930   0.763   0.656  0.00  0.00     0.052 A 
ATOM     11  C1  <0> d           2.887   0.501  -0.478  0.00  0.00     0.072 C 
ATOM     12  N1  <0> d           2.281   1.493   1.683  0.00  0.00    -0.250 NA
ATOM     13  C4  <0> d           1.455   1.730   2.681  0.00  0.00     0.072 A 
ATOM     14  S1  <0> d           0.021   0.879   2.196  0.00  0.00    -0.069 SA
ATOM     15  C5  <0> d           1.692   2.541   3.929  0.00  0.00     0.078 C 
ENDBRANCH   7   9
ENDBRANCH   1   7
BRANCH   6  16
ATOM     16  C11 <0> d          -2.924   0.406  -1.211  0.00  0.00    -0.028 A 
ATOM     17  C15 <0> d          -2.845   1.790  -1.246  0.00  0.00     0.029 A 
ATOM     18  C14 <0> d          -3.115   2.450  -2.429  0.00  0.00     0.117 A 
ATOM     19  N3  <0> d          -3.445   1.780  -3.516  0.00  0.00    -0.273 NA
ATOM     20  C13 <0> d          -3.529   0.464  -3.520  0.00  0.00     0.117 A 
ATOM     21  C12 <0> d          -3.268  -0.265  -2.375  0.00  0.00     0.029 A 
ENDBRANCH   6  16
BRANCH   2  22
ATOM     22  O3  <0> d          -0.823  -3.487   0.004  0.00  0.00    -0.355 OA
ATOM     23  H19 <0> d          -1.319  -4.343   0.152  0.00  0.00     0.218 HD
ENDBRANCH   2  22
BRANCH   5  24
ATOM     24  C16 <0> d          -5.117  -1.031   0.523  0.00  0.00     0.165 C 
BRANCH  24  25
ATOM     25  C17 <0> d          -5.833  -1.042  -0.802  0.00  0.00    -0.040 A 
ATOM     26  C22 <0> d          -6.390  -2.215  -1.278  0.00  0.00     0.009 A 
ATOM     27  C21 <0> d          -7.047  -2.225  -2.493  0.00  0.00     0.001 A 
ATOM     28  C20 <0> d          -7.149  -1.062  -3.234  0.00  0.00     0.000 A 
ATOM     29  C19 <0> d          -6.593   0.111  -2.758  0.00  0.00     0.001 A 
ATOM     30  C18 <0> d          -5.939   0.122  -1.540  0.00  0.00     0.009 A 
ENDBRANCH  24  25
ENDBRANCH   5  24
TORSDOF 6
