REMARK  4 active torsions:
REMARK  status: ('A' for Active; 'I' for Inactive)
REMARK    1  A    between atoms: C3_3  and  C13_19 
REMARK    2  A    between atoms: C4_4  and  C7_11 
REMARK    3  A    between atoms: C11_15  and  O1_18 
REMARK    4  A    between atoms: C13_19  and  O3_21 
ROOT
ATOM      1  C1  <0> d          -0.018   1.503   0.010  0.00  0.00     0.070 C 
ATOM      2  C2  <0> d           0.002  -0.004   0.002  0.00  0.00     0.037 C 
ATOM      3  C3  <0> d          -1.164  -0.668   0.004  0.00  0.00     0.070 C 
ATOM      4  C4  <0> d          -1.253  -2.171   0.008  0.00  0.00     0.205 C 
ATOM      5  N1  <0> d           0.061  -2.737  -0.283  0.00  0.00    -0.084 N 
ATOM      6  C5  <0> d           1.207  -2.012  -0.280  0.00  0.00     0.725 A 
ATOM      7  N2  <0> d           2.193  -2.817  -0.570  0.00  0.00    -0.054 NA
ATOM      8  C6  <0> d           1.720  -4.051  -0.766  0.00  0.00     0.275 A 
ATOM      9  N3  <0> d           0.420  -4.046  -0.602  0.00  0.00    -0.149 NA
ATOM     10  N4  <0> d           1.212  -0.651  -0.013  0.00  0.00    -0.192 N 
ATOM     11  H6  <0> d           2.040  -0.175   0.160  0.00  0.00     0.184 HD
ENDROOT
BRANCH   4  12
ATOM     12  C7  <0> d          -1.716  -2.644   1.362  0.00  0.00    -0.004 A 
ATOM     13  C12 <0> d          -2.886  -3.370   1.478  0.00  0.00     0.075 A 
ATOM     14  C11 <0> d          -3.308  -3.809   2.725  0.00  0.00     0.087 A 
ATOM     15 Cl1  <0> d          -3.824  -3.738   0.064  0.00  0.00    -0.081 Cl
ATOM     16  C10 <0> d          -2.560  -3.509   3.853  0.00  0.00     0.038 A 
ATOM     17  C9  <0> d          -1.393  -2.778   3.733  0.00  0.00     0.003 A 
ATOM     18  C8  <0> d          -0.972  -2.346   2.489  0.00  0.00     0.011 A 
BRANCH  14  19
ATOM     19  O1  <0> d          -4.456  -4.529   2.841  0.00  0.00    -0.359 OA
ATOM     20  H10 <0> d          -5.246  -3.989   2.980  0.00  0.00     0.217 HD
ENDBRANCH  14  19
ENDBRANCH   4  12
BRANCH   3  21
ATOM     21  C13 <0> d          -2.364   0.077   0.003  0.00  0.00     0.293 C 
ATOM     22  O2  <0> d          -2.324   1.294   0.000  0.00  0.00    -0.259 OA
BRANCH  21  23
ATOM     23  O3  <0> d          -3.554  -0.559   0.005  0.00  0.00    -0.323 OA
ATOM     24  C14 <0> d          -4.726   0.258   0.004  0.00  0.00     0.213 C 
ENDBRANCH  21  23
ENDBRANCH   3  21
TORSDOF 4
