REMARK  3 active torsions:
REMARK  status: ('A' for Active; 'I' for Inactive)
REMARK    1  A    between atoms: C4_4  and  C9_10 
REMARK    2  A    between atoms: C7_7  and  O1_8 
REMARK    3  A    between atoms: C9_10  and  C10_11 
ROOT
ATOM      1  C9  <0> d           1.252  -2.153  -0.021  0.00  0.00     0.046 C 
ENDROOT
BRANCH   1   2
ATOM      2  C4  <0> d           1.199  -0.687   0.048  0.00  0.00    -0.033 A 
ATOM      3  C3  <0> d           2.384   0.059   0.052  0.00  0.00     0.021 A 
ATOM      4  C2  <0> d           2.328   1.433   0.117  0.00  0.00    -0.028 A 
ATOM      5  C1  <0> d           3.602   2.238   0.122  0.00  0.00     0.051 C 
ATOM      6  C7  <0> d           1.099   2.080   0.178  0.00  0.00     0.074 A 
ATOM      7  C6  <0> d          -0.080   1.343   0.174  0.00  0.00     0.038 A 
ATOM      8  C5  <0> d          -0.037  -0.031   0.110  0.00  0.00     0.014 A 
BRANCH   6   9
ATOM      9  O1  <0> d           1.050   3.435   0.242  0.00  0.00    -0.355 OA
ATOM     10  C8  <0> d          -0.245   4.035   0.303  0.00  0.00     0.210 C 
ENDBRANCH   6   9
ENDBRANCH   1   2
BRANCH   1  11
ATOM     11  C10 <0> d           0.194  -2.848  -0.511  0.00  0.00     0.104 A 
ATOM     12  N2  <0> d          -0.950  -2.331  -1.131  0.00  0.00    -0.329 N 
ATOM     13  C12 <0> d          -1.742  -3.366  -1.462  0.00  0.00     0.179 A 
ATOM     14  H12 <0> d          -1.138  -1.393  -1.292  0.00  0.00     0.168 HD
ATOM     15  N1  <0> d          -1.187  -4.532  -1.097  0.00  0.00    -0.298 N 
ATOM     16  S1  <0> d          -3.257  -3.217  -2.245  0.00  0.00    -0.040 SA
ATOM     17  C11 <0> d           0.007  -4.308  -0.511  0.00  0.00     0.274 A 
ATOM     18  H11 <0> d          -1.583  -5.407  -1.238  0.00  0.00     0.171 HD
ATOM     19  O2  <0> d           0.773  -5.143  -0.069  0.00  0.00    -0.266 OA
ENDBRANCH   1  11
TORSDOF 3
