REMARK  6 active torsions:
REMARK  status: ('A' for Active; 'I' for Inactive)
REMARK    1  A    between atoms: N1_2  and  C2_3 
REMARK       I    between atoms: N1_2  and  C4_7 
REMARK    2  A    between atoms: C2_3  and  C3_4 
REMARK       I    between atoms: C3_4  and  N2_6 
REMARK    3  A    between atoms: C4_7  and  C5_9 
REMARK    4  A    between atoms: C5_9  and  C6_10 
REMARK    5  A    between atoms: C6_10  and  S1_11 
REMARK    6  A    between atoms: S1_11  and  C7_12 
ROOT
ATOM      1  C1  <0> d          -0.018   1.461   0.010  0.00  0.00     0.153 C 
ATOM      2  N1  <0> d           0.002  -0.004   0.002  0.00  0.00    -0.348 N 
ATOM      3  C4  <0> d           0.000  -0.672  -1.169  0.00  0.00     0.220 C 
ATOM      4  O2  <0> d           0.017  -1.884  -1.175  0.00  0.00    -0.273 OA
ENDROOT
BRANCH   3   5
ATOM      5  C5  <0> d          -0.023   0.089  -2.470  0.00  0.00     0.113 C 
BRANCH   5   6
ATOM      6  C6  <0> d          -0.020  -0.899  -3.638  0.00  0.00     0.089 C 
BRANCH   6   7
ATOM      7  S1  <0> d          -0.048   0.016  -5.204  0.00  0.00    -0.128 SA
BRANCH   7   8
ATOM      8  C7  <0> d          -0.042  -1.244  -6.435  0.00  0.00     0.018 A 
ATOM      9  C12 <0> d          -0.059  -0.903  -7.782  0.00  0.00     0.027 A 
ATOM     10  C11 <0> d          -0.050  -1.895  -8.745  0.00  0.00     0.020 A 
ATOM     11 Br1  <0> d          -0.088   0.916  -8.298  0.00  0.00    -0.050 Br
ATOM     12  C10 <0> d          -0.034  -3.225  -8.368  0.00  0.00     0.001 A 
ATOM     13  C9  <0> d          -0.022  -3.568  -7.028  0.00  0.00     0.001 A 
ATOM     14  C8  <0> d          -0.026  -2.583  -6.061  0.00  0.00     0.020 A 
ENDBRANCH   7   8
ENDBRANCH   6   7
ENDBRANCH   5   6
ENDBRANCH   3   5
BRANCH   2  15
ATOM     15  C2  <0> d           0.024  -0.743   1.267  0.00  0.00     0.227 C 
BRANCH  15  16
ATOM     16  C3  <0> d          -1.389  -1.016   1.714  0.00  0.00     0.233 C 
ATOM     17  O1  <0> d          -2.322  -0.631   1.042  0.00  0.00    -0.272 OA
ATOM     18  N2  <0> d          -1.615  -1.688   2.860  0.00  0.00    -0.369 N 
ATOM     19  H6  <0> d          -0.869  -1.996   3.397  0.00  0.00     0.159 HD
ATOM     20  H7  <0> d          -2.525  -1.864   3.148  0.00  0.00     0.159 HD
ENDBRANCH  15  16
ENDBRANCH   2  15
TORSDOF 6
