REMARK  4 active torsions:
REMARK  status: ('A' for Active; 'I' for Inactive)
REMARK    1  A    between atoms: C6_10  and  N4_18 
REMARK    2  A    between atoms: C7_11  and  C8_12 
REMARK    3  A    between atoms: N4_18  and  C14_19 
REMARK    4  A    between atoms: C14_19  and  C15_20 
ROOT
ATOM      1  C1  <0> d          -0.954   7.699   1.059  0.00  0.00     0.071 C 
ATOM      2  C2  <0> d          -0.875   6.197   1.150  0.00  0.00     0.055 A 
ATOM      3  C3  <0> d           0.120   5.612   1.877  0.00  0.00     0.102 A 
ATOM      4  C4  <0> d           0.180   4.206   1.944  0.00  0.00     0.265 A 
ATOM      5  O1  <0> d           1.052   3.648   2.590  0.00  0.00    -0.267 OA
ATOM      6  N1  <0> d          -0.746   3.493   1.278  0.00  0.00    -0.122 N 
ATOM      7  C5  <0> d          -1.730   4.136   0.582  0.00  0.00     0.726 A 
ATOM      8  N2  <0> d          -1.779   5.445   0.521  0.00  0.00    -0.069 NA
ATOM      9  N3  <0> d          -2.679   3.345  -0.037  0.00  0.00    -0.020 N 
ATOM     10  C6  <0> d          -3.037   2.179   0.631  0.00  0.00     0.690 C 
ATOM     11  C7  <0> d          -0.727   2.027   1.272  0.00  0.00     0.232 C 
ATOM     12  H7  <0> d          -3.073   3.589  -0.890  0.00  0.00     0.203 HD
ATOM     13  N5  <0> d          -2.127   1.474   1.322  0.00  0.00    -0.203 N 
ATOM     14  H22 <0> d          -2.367   0.624   1.844  0.00  0.00     0.180 HD
ENDROOT
BRANCH  10  15
ATOM     15  N4  <0> d          -4.333   1.720   0.604  0.00  0.00    -0.220 N 
ATOM     16  H16 <0> d          -4.569   0.905   1.075  0.00  0.00     0.178 HD
BRANCH  15  17
ATOM     17  C14 <0> d          -5.357   2.461  -0.137  0.00  0.00     0.203 C 
BRANCH  17  18
ATOM     18  C15 <0> d          -6.681   1.752  -0.009  0.00  0.00     0.070 A 
ATOM     19  O2  <0> d          -7.148   0.805  -0.839  0.00  0.00    -0.325 OA
ATOM     20  C18 <0> d          -8.356   0.396  -0.416  0.00  0.00     0.142 A 
ATOM     21  C17 <0> d          -8.677   1.090   0.690  0.00  0.00     0.027 A 
ATOM     22  C16 <0> d          -7.597   1.964   0.953  0.00  0.00     0.036 A 
ENDBRANCH  17  18
ENDBRANCH  15  17
ENDBRANCH  10  15
BRANCH  11  23
ATOM     23  C8  <0> d          -0.019   1.530   0.011  0.00  0.00     0.034 C 
ATOM     24  C13 <0> d           1.426   2.033  -0.001  0.00  0.00     0.035 C 
ATOM     25  C12 <0> d           2.206   1.344  -1.082  0.00  0.00    -0.030 C 
ATOM     26  C11 <0> d           1.828   0.252  -1.664  0.00  0.00    -0.031 C 
ATOM     27  C10 <0> d           0.553  -0.473  -1.346  0.00  0.00     0.027 C 
ATOM     28  C9  <0> d           0.002  -0.004   0.002  0.00  0.00     0.012 C 
ENDBRANCH  11  23
TORSDOF 4
