REMARK  6 active torsions:
REMARK  status: ('A' for Active; 'I' for Inactive)
REMARK    1  A    between atoms: C3_4  and  N3_14 
REMARK    2  A    between atoms: N4_17  and  C15_20 
REMARK    3  A    between atoms: C15_20  and  C16_21 
REMARK       I    between atoms: C16_21  and  N5_23 
REMARK    4  A    between atoms: N5_23  and  C17_24 
REMARK    5  A    between atoms: C17_24  and  C18_25 
REMARK    6  A    between atoms: C18_25  and  O2_26 
ROOT
ATOM      1  N3  <0> d           0.025  -2.598  -2.458  0.00  0.00    -0.362 N 
ATOM      2  C11 <0> d           0.148  -4.061  -2.554  0.00  0.00     0.154 C 
ATOM      3  C12 <0> d          -0.982  -4.588  -3.445  0.00  0.00     0.293 C 
ATOM      4  N4  <0> d          -0.959  -3.877  -4.730  0.00  0.00     0.100 N 
ATOM      5  C13 <0> d          -1.216  -2.442  -4.551  0.00  0.00     0.293 C 
ATOM      6  C14 <0> d          -0.102  -1.828  -3.705  0.00  0.00     0.154 C 
ENDROOT
BRANCH   1   7
ATOM      7  C3  <0> d           0.022  -1.965  -1.229  0.00  0.00     0.141 A 
ATOM      8  N1  <0> d          -1.103  -1.824  -0.547  0.00  0.00    -0.215 NA
ATOM      9  C2  <0> d          -1.143  -1.225   0.629  0.00  0.00     0.125 A 
ATOM     10  C1  <0> d          -2.461  -1.102   1.349  0.00  0.00     0.093 C 
ATOM     11  N2  <0> d          -0.056  -0.728   1.187  0.00  0.00    -0.226 NA
ATOM     12  C7  <0> d           1.110  -0.830   0.577  0.00  0.00     0.114 A 
ATOM     13  C4  <0> d           1.230  -1.454  -0.678  0.00  0.00     0.053 A 
ATOM     14  S1  <0> d           2.769  -0.328   0.945  0.00  0.00    -0.073 SA
ATOM     15  C5  <0> d           2.586  -1.495  -1.250  0.00  0.00    -0.028 A 
ATOM     16  C10 <0> d           3.196  -2.042  -2.543  0.00  0.00     0.041 C 
ATOM     17  C6  <0> d           3.568  -0.937  -0.523  0.00  0.00    -0.008 A 
ATOM     18  C9  <0> d           4.712  -2.132  -2.278  0.00  0.00     0.010 C 
ATOM     19  C8  <0> d           4.907  -1.042  -1.202  0.00  0.00     0.047 C 
ENDBRANCH   1   7
BRANCH   4  20
ATOM     20  C15 <0> d          -1.915  -4.470  -5.676  0.00  0.00     0.374 C 
BRANCH  20  21
ATOM     21  C16 <0> d          -1.693  -3.884  -7.047  0.00  0.00     0.246 C 
ATOM     22  O1  <0> d          -0.825  -3.055  -7.219  0.00  0.00    -0.272 OA
ATOM     23  N5  <0> d          -2.460  -4.282  -8.081  0.00  0.00    -0.358 N 
ATOM     24  H20 <0> d          -3.155  -4.944  -7.944  0.00  0.00     0.162 HD
BRANCH  23  25
ATOM     25  C17 <0> d          -2.245  -3.712  -9.414  0.00  0.00     0.148 C 
BRANCH  25  26
ATOM     26  C18 <0> d          -3.240  -4.329 -10.399  0.00  0.00     0.186 C 
BRANCH  26  27
ATOM     27  O2  <0> d          -4.568  -3.948 -10.035  0.00  0.00    -0.394 OA
ATOM     28  C19 <0> d          -5.580  -4.474 -10.896  0.00  0.00     0.201 C 
ENDBRANCH  26  27
ENDBRANCH  25  26
ENDBRANCH  23  25
ENDBRANCH  20  21
ENDBRANCH   4  20
TORSDOF 6
