REMARK  4 active torsions:
REMARK  status: ('A' for Active; 'I' for Inactive)
REMARK    1  A    between atoms: C2_2  and  S1_3 
REMARK    2  A    between atoms: S1_3  and  N1_6 
REMARK    3  A    between atoms: N1_6  and  C3_7 
REMARK    4  A    between atoms: C6_10  and  O3_14 
ROOT
ATOM      1  C3  <0> d          -1.247   3.119   0.048  0.00  0.00     0.043 A 
ATOM      2  C4  <0> d          -1.248   1.733  -0.023  0.00  0.00     0.033 A 
ATOM      3  C5  <0> d          -0.053   1.040  -0.015  0.00  0.00     0.040 A 
ATOM      4  C6  <0> d           1.148   1.730   0.052  0.00  0.00     0.083 A 
ATOM      5  C7  <0> d           1.151   3.116   0.118  0.00  0.00     0.046 A 
ATOM      6  C8  <0> d          -0.045   3.810   0.116  0.00  0.00     0.052 A 
ATOM      7 Br1  <0> d           2.789   4.056   0.210  0.00  0.00    -0.048 Br
ENDROOT
BRANCH   1   8
ATOM      8  N1  <0> d          -2.458   3.821   0.046  0.00  0.00    -0.285 N 
ATOM      9  H6  <0> d          -2.604   4.538   0.683  0.00  0.00     0.178 HD
BRANCH   8  10
ATOM     10  S1  <0> d          -3.641   3.427  -1.043  0.00  0.00     0.230 S 
ATOM     11  O1  <0> d          -3.863   2.037  -0.851  0.00  0.00    -0.206 OA
ATOM     12  O2  <0> d          -4.681   4.366  -0.805  0.00  0.00    -0.206 OA
BRANCH  10  13
ATOM     13  C2  <0> d          -2.894   3.722  -2.670  0.00  0.00     0.159 C 
ATOM     14  C1  <0> d          -3.946   3.507  -3.761  0.00  0.00     0.023 C 
ENDBRANCH  10  13
ENDBRANCH   8  10
ENDBRANCH   1   8
BRANCH   4  15
ATOM     15  O3  <0> d           2.325   1.048   0.054  0.00  0.00    -0.359 OA
ATOM     16  H10 <0> d           2.691   0.892  -0.827  0.00  0.00     0.217 HD
ENDBRANCH   4  15
TORSDOF 4
