REMARK  3 active torsions:
REMARK  status: ('A' for Active; 'I' for Inactive)
REMARK       I    between atoms: N1_2  and  C2_3 
REMARK    1  A    between atoms: C2_3  and  C3_5 
REMARK    2  A    between atoms: C8_15  and  C9_16 
REMARK    3  A    between atoms: C9_16  and  N5_17 
ROOT
ATOM      1  C3  <0> d           0.605  -2.142  -1.026  0.00  0.00     0.154 A 
ATOM      2  C4  <0> d           1.177  -2.952  -2.013  0.00  0.00     0.030 A 
ATOM      3  C5  <0> d           0.991  -4.255  -1.647  0.00  0.00     0.133 A 
ATOM      4  N2  <0> d           0.316  -4.265  -0.480  0.00  0.00    -0.261 N 
ATOM      5  H1  <0> d           0.040  -5.054   0.013  0.00  0.00     0.191 HD
ATOM      6  N3  <0> d           0.090  -2.932  -0.099  0.00  0.00    -0.167 NA
ATOM      7  N4  <0> d           1.470  -5.313  -2.421  0.00  0.00    -0.311 N 
ATOM      8  C6  <0> d           2.303  -5.027  -3.444  0.00  0.00     0.224 C 
ATOM      9  O2  <0> d           2.581  -5.901  -4.237  0.00  0.00    -0.273 OA
ATOM     10  C7  <0> d           2.897  -3.659  -3.630  0.00  0.00     0.114 C 
ATOM     11  C8  <0> d           1.884  -2.563  -3.286  0.00  0.00     0.052 C 
ATOM     12  H7  <0> d           1.213  -6.229  -2.228  0.00  0.00     0.170 HD
ENDROOT
BRANCH  11  13
ATOM     13  C9  <0> d           0.866  -2.427  -4.420  0.00  0.00     0.144 C 
BRANCH  13  14
ATOM     14  N5  <0> d           1.540  -1.934  -5.624  0.00  0.00    -0.290 N 
ATOM     15  C16 <0> d           2.110  -2.688  -6.584  0.00  0.00     0.372 A 
ATOM     16  O3  <0> d           2.624  -1.890  -7.533  0.00  0.00    -0.259 OA
ATOM     17  O4  <0> d           2.150  -3.903  -6.591  0.00  0.00    -0.237 OA
ATOM     18  C15 <0> d           2.402  -0.596  -7.196  0.00  0.00     0.107 A 
ATOM     19  C10 <0> d           1.712  -0.597  -5.983  0.00  0.00     0.073 A 
ATOM     20  C14 <0> d           2.719   0.608  -7.805  0.00  0.00     0.040 A 
ATOM     21  C11 <0> d           1.347   0.602  -5.392  0.00  0.00     0.033 A 
ATOM     22  C12 <0> d           1.668   1.797  -6.006  0.00  0.00     0.002 A 
ATOM     23  C13 <0> d           2.352   1.799  -7.209  0.00  0.00     0.003 A 
ENDBRANCH  13  14
ENDBRANCH  11  13
BRANCH   1  24
ATOM     24  C2  <0> d           0.585  -0.664  -1.018  0.00  0.00     0.272 C 
ATOM     25  N1  <0> d           0.002  -0.004   0.002  0.00  0.00    -0.360 N 
ATOM     26  C1  <0> d          -0.018   1.461   0.010  0.00  0.00     0.149 C 
ATOM     27  H6  <0> d          -0.404  -0.499   0.731  0.00  0.00     0.162 HD
ATOM     28  O1  <0> d           1.095  -0.045  -1.931  0.00  0.00    -0.266 OA
ENDBRANCH   1  24
TORSDOF 3
