REMARK  2 active torsions:
REMARK  status: ('A' for Active; 'I' for Inactive)
REMARK    1  A    between atoms: C3_3  and  C13_17 
REMARK    2  A    between atoms: C6_8  and  N3_11 
ROOT
ATOM      1  C1  <0> d          -0.110   1.500   0.011  0.00  0.00     0.071 C 
ATOM      2  C2  <0> d          -0.053  -0.005   0.003  0.00  0.00     0.041 A 
ATOM      3  C3  <0> d          -0.032  -0.809  -1.098  0.00  0.00     0.067 A 
ATOM      4  N1  <0> d           0.021  -2.085  -0.687  0.00  0.00    -0.340 N 
ATOM      5  C4  <0> d           0.034  -2.113   0.639  0.00  0.00     0.112 A 
ATOM      6  N2  <0> d          -0.006  -0.823   1.097  0.00  0.00    -0.308 N 
ATOM      7  C5  <0> d           0.003  -0.563   2.440  0.00  0.00     0.128 A 
ATOM      8  C6  <0> d           0.055  -1.578   3.337  0.00  0.00     0.046 A 
ATOM      9  C7  <0> d           0.100  -2.914   2.892  0.00  0.00     0.034 A 
ATOM     10  C8  <0> d           0.084  -3.180   1.559  0.00  0.00     0.051 A 
ATOM     11  H20 <0> d           0.045  -2.862  -1.266  0.00  0.00     0.167 HD
ENDROOT
BRANCH   3  12
ATOM     12  C13 <0> d          -0.063  -0.351  -2.509  0.00  0.00    -0.005 A 
ATOM     13  C18 <0> d           0.803  -0.915  -3.441  0.00  0.00     0.053 A 
ATOM     14  C17 <0> d           0.766  -0.487  -4.756  0.00  0.00     0.109 A 
ATOM     15  C16 <0> d          -0.136   0.518  -5.139  0.00  0.00     0.095 A 
ATOM     16  O1  <0> d           1.455  -0.827  -5.870  0.00  0.00    -0.268 OA
ATOM     17  C15 <0> d          -0.996   1.078  -4.193  0.00  0.00     0.035 A 
ATOM     18  N5  <0> d           0.061   0.729  -6.470  0.00  0.00    -0.197 NA
ATOM     19  C14 <0> d          -0.959   0.649  -2.897  0.00  0.00     0.016 A 
ATOM     20  C19 <0> d           1.003  -0.073  -6.888  0.00  0.00     0.323 A 
ATOM     21  O2  <0> d           1.459  -0.137  -8.159  0.00  0.00    -0.141 OA
ENDBRANCH   3  12
BRANCH   8  22
ATOM     22  N3  <0> d           0.065  -1.297   4.710  0.00  0.00    -0.377 N 
ATOM     23  C12 <0> d           0.160   0.087   5.198  0.00  0.00     0.150 C 
ATOM     24  C11 <0> d           1.275   0.164   6.240  0.00  0.00     0.252 C 
ATOM     25  N4  <0> d           1.035  -0.835   7.290  0.00  0.00    -0.072 N 
ATOM     26  C10 <0> d           1.114  -2.187   6.722  0.00  0.00     0.252 C 
ATOM     27  H11 <0> d           0.118  -0.691   7.686  0.00  0.00     0.277 HD
ATOM     28  H19 <0> d           1.730  -0.734   8.014  0.00  0.00     0.277 HD
ATOM     29  C9  <0> d          -0.014  -2.379   5.704  0.00  0.00     0.150 C 
ENDBRANCH   8  22
TORSDOF 2
