REMARK  10 active torsions:
REMARK  status: ('A' for Active; 'I' for Inactive)
REMARK    1  A    between atoms: C2_2  and  C3_3 
REMARK    2  A    between atoms: C3_3  and  C4_4 
REMARK    3  A    between atoms: C3_3  and  N6_40 
REMARK    4  A    between atoms: N4_8  and  C5_9 
REMARK    5  A    between atoms: C5_9  and  C6_10 
REMARK    6  A    between atoms: C12_17  and  C13_18 
REMARK    7  A    between atoms: C12_17  and  N6_40 
REMARK    8  A    between atoms: C20_25  and  C21_26 
REMARK    9  A    between atoms: C20_25  and  N6_40 
REMARK   10  A    between atoms: C26_31  and  O2_38 
ROOT
ATOM      1  N6  <0> d          -7.981  -1.725   4.290  0.00  0.00    -0.052 N 
ATOM      2  H32 <0> d          -7.468  -2.607   4.180  0.00  0.00     0.281 HD
ENDROOT
BRANCH   1   3
ATOM      3  C3  <0> d          -9.415  -2.026   4.483  0.00  0.00     0.261 C 
BRANCH   3   4
ATOM      4  C2  <0> d         -10.274  -0.842   4.033  0.00  0.00     0.037 C 
ATOM      5  C1  <0> d         -10.019   0.353   4.954  0.00  0.00     0.007 C 
ENDBRANCH   3   4
BRANCH   3   6
ATOM      6  C4  <0> d          -9.766  -3.241   3.664  0.00  0.00     0.179 A 
ATOM      7  N4  <0> d         -10.485  -4.304   4.070  0.00  0.00    -0.228 N 
ATOM      8  N3  <0> d         -10.558  -5.117   3.071  0.00  0.00    -0.044 NA
ATOM      9  N2  <0> d          -9.915  -4.612   2.077  0.00  0.00    -0.023 NA
ATOM     10  N1  <0> d          -9.426  -3.470   2.419  0.00  0.00    -0.112 NA
BRANCH   7  11
ATOM     11  C5  <0> d         -11.076  -4.499   5.396  0.00  0.00     0.193 C 
BRANCH  11  12
ATOM     12  C6  <0> d         -12.471  -3.927   5.413  0.00  0.00    -0.038 A 
ATOM     13  C11 <0> d         -13.548  -4.723   5.070  0.00  0.00     0.012 A 
ATOM     14  C10 <0> d         -14.827  -4.201   5.086  0.00  0.00     0.043 A 
ATOM     15  C9  <0> d         -15.030  -2.879   5.446  0.00  0.00     0.116 A 
ATOM     16  C8  <0> d         -13.950  -2.083   5.789  0.00  0.00     0.043 A 
ATOM     17  F1  <0> d         -16.279  -2.367   5.461  0.00  0.00    -0.206 F 
ATOM     18  C7  <0> d         -12.672  -2.609   5.778  0.00  0.00     0.012 A 
ENDBRANCH  11  12
ENDBRANCH   7  11
ENDBRANCH   3   6
ENDBRANCH   1   3
BRANCH   1  19
ATOM     19  C12 <0> d          -7.453  -1.006   5.469  0.00  0.00     0.274 C 
BRANCH  19  20
ATOM     20  C13 <0> d          -7.393  -1.961   6.633  0.00  0.00    -0.033 A 
ATOM     21  C18 <0> d          -6.298  -2.790   6.792  0.00  0.00     0.009 A 
ATOM     22  C17 <0> d          -6.243  -3.666   7.859  0.00  0.00     0.007 A 
ATOM     23  C16 <0> d          -7.283  -3.713   8.770  0.00  0.00    -0.062 A 
ATOM     24  C15 <0> d          -8.377  -2.884   8.611  0.00  0.00     0.007 A 
ATOM     25  C19 <0> d          -7.223  -4.668   9.934  0.00  0.00     0.048 C 
ATOM     26  C14 <0> d          -8.430  -2.005   7.546  0.00  0.00     0.009 A 
ENDBRANCH  19  20
ENDBRANCH   1  19
BRANCH   1  27
ATOM     27  C20 <0> d          -7.795  -0.906   3.074  0.00  0.00     0.280 C 
BRANCH  27  28
ATOM     28  C21 <0> d          -6.332  -0.900   2.714  0.00  0.00     0.036 A 
ATOM     29  C29 <0> d          -5.466   0.041   3.308  0.00  0.00     0.253 A 
ATOM     30  N5  <0> d          -4.155   0.080   3.012  0.00  0.00    -0.322 N 
ATOM     31  O1  <0> d          -5.918   0.840   4.111  0.00  0.00    -0.268 OA
ATOM     32  C28 <0> d          -3.605  -0.808   2.111  0.00  0.00     0.048 A 
ATOM     33  H2  <0> d          -3.588   0.740   3.440  0.00  0.00     0.169 HD
ATOM     34  C23 <0> d          -4.428  -1.768   1.490  0.00  0.00    -0.009 A 
ATOM     35  C27 <0> d          -2.251  -0.768   1.806  0.00  0.00     0.067 A 
ATOM     36  C22 <0> d          -5.852  -1.800   1.818  0.00  0.00     0.028 A 
ATOM     37  C24 <0> d          -3.877  -2.672   0.573  0.00  0.00     0.016 A 
ATOM     38  C25 <0> d          -2.545  -2.615   0.281  0.00  0.00     0.038 A 
ATOM     39  C26 <0> d          -1.726  -1.670   0.898  0.00  0.00     0.070 A 
BRANCH  39  40
ATOM     40  O2  <0> d          -0.402  -1.631   0.600  0.00  0.00    -0.356 OA
ATOM     41  C30 <0> d           0.079  -2.589  -0.346  0.00  0.00     0.210 C 
ENDBRANCH  39  40
ENDBRANCH  27  28
ENDBRANCH   1  27
TORSDOF 10
