REMARK  5 active torsions:
REMARK  status: ('A' for Active; 'I' for Inactive)
REMARK    1  A    between atoms: C5_5  and  C7_7 
REMARK       I    between atoms: C7_7  and  N1_9 
REMARK    2  A    between atoms: N1_9  and  C8_10 
REMARK    3  A    between atoms: N2_12  and  C9_13 
REMARK    4  A    between atoms: C12_16  and  O3_28 
REMARK    5  A    between atoms: C13_17  and  C15_19 
ROOT
ATOM      1  C9  <0> d          -1.100  -6.296  -0.074  0.00  0.00     0.035 A 
ATOM      2  C10 <0> d           0.069  -7.048  -0.059  0.00  0.00     0.032 A 
ATOM      3  C11 <0> d           0.012  -8.427  -0.117  0.00  0.00     0.040 A 
ATOM      4  C12 <0> d          -1.213  -9.070  -0.191  0.00  0.00     0.080 A 
ATOM      5  C13 <0> d          -2.396  -8.320  -0.205  0.00  0.00     0.052 A 
ATOM      6  C14 <0> d          -2.331  -6.927  -0.141  0.00  0.00     0.048 A 
ENDROOT
BRANCH   1   7
ATOM      7  N2  <0> d          -1.033  -4.898  -0.016  0.00  0.00    -0.333 N 
ATOM      8  C8  <0> d          -0.154  -4.232  -0.791  0.00  0.00     0.179 C 
ATOM      9  S1  <0> d           0.954  -5.099  -1.767  0.00  0.00    -0.040 SA
ATOM     10  H6  <0> d          -1.619  -4.409   0.583  0.00  0.00     0.168 HD
BRANCH   8  11
ATOM     11  N1  <0> d          -0.148  -2.885  -0.798  0.00  0.00    -0.299 N 
ATOM     12  C7  <0> d           0.731  -2.219  -1.574  0.00  0.00     0.260 C 
ATOM     13  O1  <0> d           1.518  -2.834  -2.266  0.00  0.00    -0.267 OA
ATOM     14  H5  <0> d          -0.776  -2.394  -0.246  0.00  0.00     0.171 HD
BRANCH  12  15
ATOM     15  C5  <0> d           0.738  -0.743  -1.582  0.00  0.00     0.070 A 
ATOM     16  C4  <0> d           1.649  -0.049  -2.385  0.00  0.00     0.132 A 
ATOM     17  C3  <0> d           1.648   1.334  -2.386  0.00  0.00     0.043 A 
ATOM     18  F1  <0> d           2.526  -0.727  -3.157  0.00  0.00    -0.205 F 
ATOM     19  C2  <0> d           0.750   2.028  -1.597  0.00  0.00     0.003 A 
ATOM     20  C1  <0> d          -0.154   1.346  -0.800  0.00  0.00     0.001 A 
ATOM     21  C6  <0> d          -0.165  -0.032  -0.788  0.00  0.00     0.020 A 
ENDBRANCH  12  15
ENDBRANCH   8  11
ENDBRANCH   1   7
BRANCH   5  22
ATOM     22  C15 <0> d          -3.704  -8.999  -0.284  0.00  0.00     0.183 A 
ATOM     23  O2  <0> d          -3.880 -10.332  -0.345  0.00  0.00    -0.289 OA
ATOM     24  C21 <0> d          -5.207 -10.580  -0.403  0.00  0.00     0.106 A 
ATOM     25  C16 <0> d          -5.845  -9.329  -0.384  0.00  0.00     0.093 A 
ATOM     26  C20 <0> d          -5.965 -11.738  -0.476  0.00  0.00     0.040 A 
ATOM     27  N3  <0> d          -4.865  -8.392  -0.309  0.00  0.00    -0.221 NA
ATOM     28  C17 <0> d          -7.239  -9.263  -0.439  0.00  0.00     0.034 A 
ATOM     29  C18 <0> d          -7.975 -10.425  -0.511  0.00  0.00     0.002 A 
ATOM     30  C19 <0> d          -7.341 -11.658  -0.530  0.00  0.00     0.003 A 
ENDBRANCH   5  22
BRANCH   4  31
ATOM     31  O3  <0> d          -1.267 -10.426  -0.248  0.00  0.00    -0.360 OA
ATOM     32  H14 <0> d          -1.317 -10.855   0.618  0.00  0.00     0.217 HD
ENDBRANCH   4  31
TORSDOF 5
