REMARK  5 active torsions:
REMARK  status: ('A' for Active; 'I' for Inactive)
REMARK    1  A    between atoms: O1_2  and  C2_3 
REMARK    2  A    between atoms: C5_6  and  C10_13 
REMARK    3  A    between atoms: C6_7  and  O3_11 
REMARK    4  A    between atoms: C7_8  and  O2_9 
REMARK    5  A    between atoms: N2_18  and  C14_21 
ROOT
ATOM      1  C10 <0> d           2.595  -2.541   4.320  0.00  0.00     0.102 C 
ATOM      2  C11 <0> d           1.918  -2.155   5.605  0.00  0.00     0.070 A 
ATOM      3  C12 <0> d           2.481  -1.280   6.500  0.00  0.00     0.133 A 
ATOM      4  N1  <0> d           1.626  -1.137   7.549  0.00  0.00    -0.275 N 
ATOM      5  H2  <0> d           1.766  -0.575   8.327  0.00  0.00     0.189 HD
ATOM      6  N2  <0> d           0.504  -1.945   7.304  0.00  0.00    -0.218 N 
ATOM      7  C13 <0> d           0.687  -2.565   6.117  0.00  0.00     0.278 A 
ATOM      8  O4  <0> d          -0.087  -3.345   5.588  0.00  0.00    -0.265 OA
ATOM      9  N3  <0> d           3.710  -0.711   6.269  0.00  0.00    -0.344 N 
ATOM     10  C20 <0> d           4.514  -1.251   5.292  0.00  0.00     0.021 C 
ATOM     11  C21 <0> d           4.044  -2.106   4.361  0.00  0.00     0.024 C 
ATOM     12  C22 <0> d           4.895  -2.637   3.372  0.00  0.00     0.158 C 
ATOM     13  O5  <0> d           4.445  -3.423   2.562  0.00  0.00    -0.293 OA
ATOM     14  C23 <0> d           6.346  -2.255   3.297  0.00  0.00     0.084 C 
ATOM     15  C24 <0> d           6.519  -0.847   3.877  0.00  0.00     0.014 C 
ATOM     16  C25 <0> d           5.971  -0.846   5.304  0.00  0.00     0.058 C 
ATOM     17  H19 <0> d           4.005   0.056   6.785  0.00  0.00     0.167 HD
ENDROOT
BRANCH   1  18
ATOM     18  C5  <0> d           1.901  -1.866   3.165  0.00  0.00    -0.008 A 
ATOM     19  C4  <0> d           1.837  -0.486   3.109  0.00  0.00     0.014 A 
ATOM     20  C3  <0> d           1.202   0.138   2.051  0.00  0.00     0.040 A 
ATOM     21  C2  <0> d           0.626  -0.619   1.042  0.00  0.00     0.104 A 
ATOM     22  C7  <0> d           0.683  -2.006   1.098  0.00  0.00     0.135 A 
ATOM     23  C6  <0> d           1.327  -2.630   2.160  0.00  0.00     0.111 A 
BRANCH  21  24
ATOM     24  O1  <0> d           0.002  -0.004   0.002  0.00  0.00    -0.353 OA
ATOM     25  C1  <0> d          -0.017   1.425   0.010  0.00  0.00     0.210 C 
ENDBRANCH  21  24
BRANCH  22  26
ATOM     26  O2  <0> d           0.114  -2.752   0.113  0.00  0.00    -0.351 OA
ATOM     27  C8  <0> d           0.939  -3.090  -1.004  0.00  0.00     0.210 C 
ENDBRANCH  22  26
BRANCH  23  28
ATOM     28  O3  <0> d           1.391  -3.987   2.216  0.00  0.00    -0.352 OA
ATOM     29  C9  <0> d           0.325  -4.659   2.888  0.00  0.00     0.210 C 
ENDBRANCH  23  28
ENDBRANCH   1  18
BRANCH   6  30
ATOM     30  C14 <0> d          -0.608  -2.084   8.141  0.00  0.00     0.060 A 
ATOM     31  C19 <0> d          -0.668  -1.383   9.339  0.00  0.00     0.031 A 
ATOM     32  C18 <0> d          -1.770  -1.518  10.161  0.00  0.00     0.002 A 
ATOM     33  C17 <0> d          -2.807  -2.358   9.797  0.00  0.00     0.000 A 
ATOM     34  C16 <0> d          -2.747  -3.061   8.608  0.00  0.00     0.002 A 
ATOM     35  C15 <0> d          -1.651  -2.926   7.779  0.00  0.00     0.031 A 
ENDBRANCH   6  30
TORSDOF 5
