REMARK  2 active torsions:
REMARK  status: ('A' for Active; 'I' for Inactive)
REMARK    1  A    between atoms: C6_8  and  C8_11 
REMARK    2  A    between atoms: N6_20  and  C14_21 
ROOT
ATOM      1  C8  <0> d           3.708  -2.551  -0.032  0.00  0.00     0.071 C 
ATOM      2  C9  <0> d           4.370  -3.143  -1.280  0.00  0.00     0.117 C 
ATOM      3  C10 <0> d           4.565  -4.626  -1.141  0.00  0.00     0.224 C 
ATOM      4  O1  <0> d           4.390  -5.336  -2.109  0.00  0.00    -0.273 OA
ATOM      5  N4  <0> d           4.930  -5.194   0.028  0.00  0.00    -0.311 N 
ATOM      6  C11 <0> d           4.934  -4.396   1.172  0.00  0.00     0.143 A 
ATOM      7  C12 <0> d           4.372  -3.146   1.184  0.00  0.00     0.023 A 
ATOM      8  C13 <0> d           4.541  -2.611   2.453  0.00  0.00     0.062 A 
ATOM      9  N5  <0> d           5.166  -3.497   3.193  0.00  0.00    -0.169 NA
ATOM     10  N6  <0> d           5.416  -4.638   2.409  0.00  0.00    -0.198 N 
ATOM     11  C19 <0> d           4.086  -1.247   2.903  0.00  0.00     0.073 C 
ATOM     12  H9  <0> d           5.182  -6.130   0.072  0.00  0.00     0.170 HD
ENDROOT
BRANCH   1  13
ATOM     13  C6  <0> d           2.240  -2.889  -0.026  0.00  0.00     0.018 A 
ATOM     14  C5  <0> d           1.189  -1.981  -0.015  0.00  0.00     0.159 A 
ATOM     15  N1  <0> d           0.029  -2.713  -0.014  0.00  0.00    -0.220 N 
ATOM     16  N2  <0> d           1.149  -0.642  -0.012  0.00  0.00    -0.234 NA
ATOM     17  C4  <0> d          -1.177  -2.074  -0.004  0.00  0.00     0.036 A 
ATOM     18  N3  <0> d           0.383  -4.067  -0.023  0.00  0.00    -0.178 NA
ATOM     19  C3  <0> d          -1.205  -0.719   0.004  0.00  0.00     0.053 A 
ATOM     20  C20 <0> d          -2.460  -2.864  -0.002  0.00  0.00     0.070 C 
ATOM     21  C2  <0> d           0.002  -0.004   0.002  0.00  0.00     0.035 A 
ATOM     22  C1  <0> d          -0.018   1.503   0.010  0.00  0.00     0.070 C 
ATOM     23  C7  <0> d           1.693  -4.164  -0.030  0.00  0.00     0.151 A 
ENDBRANCH   1  13
BRANCH  10  24
ATOM     24  C14 <0> d           6.049  -5.809   2.834  0.00  0.00     0.152 A 
ATOM     25  N7  <0> d           5.800  -6.950   2.213  0.00  0.00    -0.241 NA
ATOM     26  C18 <0> d           6.380  -8.078   2.579  0.00  0.00     0.119 A 
ATOM     27  C17 <0> d           7.266  -8.107   3.638  0.00  0.00     0.019 A 
ATOM     28  C16 <0> d           7.550  -6.932   4.319  0.00  0.00     0.005 A 
ATOM     29  C15 <0> d           6.930  -5.764   3.908  0.00  0.00     0.052 A 
ENDBRANCH  10  24
TORSDOF 2
