REMARK  6 active torsions:
REMARK  status: ('A' for Active; 'I' for Inactive)
REMARK    1  A    between atoms: C7_11  and  C8_13 
REMARK    2  A    between atoms: C8_13  and  S2_14 
REMARK    3  A    between atoms: S2_14  and  C9_15 
REMARK    4  A    between atoms: C9_15  and  C11_17 
REMARK       I    between atoms: C11_17  and  N3_19 
REMARK    5  A    between atoms: N3_19  and  C12_20 
REMARK    6  A    between atoms: N5_25  and  C18_29 
ROOT
ATOM      1  C9  <0> d          -3.989  -2.883   6.681  0.00  0.00     0.136 C 
ATOM      2  C10 <0> d          -5.482  -2.894   6.347  0.00  0.00     0.031 C 
ENDROOT
BRANCH   1   3
ATOM      3  S2  <0> d          -3.410  -4.585   6.920  0.00  0.00    -0.147 SA
BRANCH   3   4
ATOM      4  C8  <0> d          -4.304  -5.150   8.393  0.00  0.00     0.153 C 
BRANCH   4   5
ATOM      5  C7  <0> d          -3.910  -6.571   8.706  0.00  0.00     0.117 A 
ATOM      6  N1  <0> d          -4.459  -7.194   9.780  0.00  0.00    -0.310 N 
ATOM      7  C6  <0> d          -4.139  -8.464  10.092  0.00  0.00     0.260 A 
ATOM      8  H1  <0> d          -5.098  -6.716  10.332  0.00  0.00     0.170 HD
ATOM      9  C5  <0> d          -3.190  -9.161   9.275  0.00  0.00     0.075 A 
ATOM     10  O1  <0> d          -4.645  -9.011  11.057  0.00  0.00    -0.267 OA
ATOM     11  C2  <0> d          -2.683 -10.514   9.404  0.00  0.00    -0.031 A 
ATOM     12  C4  <0> d          -2.672  -8.432   8.190  0.00  0.00     0.116 A 
ATOM     13  C1  <0> d          -3.156 -11.402  10.525  0.00  0.00     0.050 C 
ATOM     14  C3  <0> d          -1.786 -10.965   8.513  0.00  0.00    -0.012 A 
ATOM     15  S1  <0> d          -1.557  -9.576   7.418  0.00  0.00    -0.074 SA
ATOM     16  C21 <0> d          -1.129 -12.320   8.452  0.00  0.00     0.057 C 
ATOM     17  N2  <0> d          -3.042  -7.179   7.943  0.00  0.00    -0.226 NA
ENDBRANCH   4   5
ENDBRANCH   3   4
ENDBRANCH   1   3
BRANCH   1  18
ATOM     18  C11 <0> d          -3.225  -2.247   5.548  0.00  0.00     0.235 C 
ATOM     19  O2  <0> d          -2.731  -2.941   4.685  0.00  0.00    -0.272 OA
ATOM     20  N3  <0> d          -3.091  -0.907   5.494  0.00  0.00    -0.325 N 
ATOM     21  H11 <0> d          -3.419  -0.357   6.223  0.00  0.00     0.169 HD
BRANCH  20  22
ATOM     22  C12 <0> d          -2.478  -0.308   4.386  0.00  0.00     0.053 A 
ATOM     23  C17 <0> d          -1.731   0.859   4.539  0.00  0.00     0.148 A 
ATOM     24  N6  <0> d          -1.147   1.440   3.515  0.00  0.00    -0.239 NA
ATOM     25  C16 <0> d          -1.238   0.946   2.287  0.00  0.00     0.158 A 
ATOM     26  C14 <0> d          -1.976  -0.231   2.052  0.00  0.00     0.033 A 
ATOM     27  N5  <0> d          -0.740   1.342   1.074  0.00  0.00    -0.248 N 
ATOM     28  C13 <0> d          -2.608  -0.870   3.125  0.00  0.00     0.048 A 
ATOM     29  C15 <0> d          -1.880  -0.502   0.622  0.00  0.00     0.154 A 
ATOM     30  N4  <0> d          -1.156   0.441   0.089  0.00  0.00    -0.182 NA
BRANCH  27  31
ATOM     31  C18 <0> d           0.092   2.526   0.843  0.00  0.00     0.104 C 
ATOM     32  C19 <0> d          -0.614   3.462  -0.139  0.00  0.00     0.034 C 
ATOM     33  C20 <0> d           1.440   2.096   0.259  0.00  0.00     0.034 C 
ENDBRANCH  27  31
ENDBRANCH  20  22
ENDBRANCH   1  18
TORSDOF 6
