REMARK  5 active torsions:
REMARK  status: ('A' for Active; 'I' for Inactive)
REMARK    1  A    between atoms: C3_3  and  C4_4 
REMARK    2  A    between atoms: C3_3  and  N3_31 
REMARK    3  A    between atoms: C4_4  and  C5_5 
REMARK    4  A    between atoms: C5_5  and  N1_6 
REMARK    5  A    between atoms: C10_12  and  C21_24 
ROOT
ATOM      1  N1  <0> d           0.677   0.309  -0.004  0.00  0.00    -0.327 N 
ATOM      2  C6  <0> d           1.075   1.606  -0.002  0.00  0.00     0.214 A 
ATOM      3  N2  <0> d           2.335   1.933  -0.011  0.00  0.00    -0.219 NA
ATOM      4  C7  <0> d           3.313   1.008  -0.027  0.00  0.00     0.182 A 
ATOM      5  C8  <0> d           2.993  -0.317  -0.031  0.00  0.00     0.052 A 
ATOM      6  C9  <0> d           1.630  -0.691  -0.018  0.00  0.00     0.113 A 
ATOM      7  C10 <0> d           4.060  -1.373  -0.049  0.00  0.00     0.096 C 
ATOM      8  C11 <0> d           5.386  -0.788   0.357  0.00  0.00     0.000 A 
ATOM      9  C12 <0> d           6.428  -1.646   0.753  0.00  0.00    -0.016 A 
ATOM     10  C13 <0> d           6.249  -3.041   0.779  0.00  0.00     0.013 A 
ATOM     11  C14 <0> d           7.279  -3.844   1.163  0.00  0.00     0.001 A 
ATOM     12  C15 <0> d           8.510  -3.305   1.534  0.00  0.00     0.001 A 
ATOM     13  C16 <0> d           8.718  -1.960   1.524  0.00  0.00     0.012 A 
ATOM     14  C17 <0> d           7.678  -1.099   1.134  0.00  0.00    -0.025 A 
ATOM     15  C18 <0> d           7.853   0.295   1.113  0.00  0.00     0.015 A 
ATOM     16  C19 <0> d           6.828   1.097   0.726  0.00  0.00     0.039 A 
ATOM     17  C20 <0> d           5.588   0.561   0.345  0.00  0.00     0.086 A 
ATOM     18  O1  <0> d           4.602   1.408  -0.039  0.00  0.00    -0.291 OA
ATOM     19  H15 <0> d           0.364  -2.303  -0.010  0.00  0.00     0.157 HD
ATOM     20  N4  <0> d           1.337  -1.998  -0.019  0.00  0.00    -0.385 N 
ATOM     21  H28 <0> d           2.093  -2.693  -0.030  0.00  0.00     0.157 HD
ENDROOT
BRANCH   1  22
ATOM     22  C5  <0> d          -0.749  -0.027   0.008  0.00  0.00     0.133 C 
BRANCH  22  23
ATOM     23  C4  <0> d          -1.202  -0.274   1.448  0.00  0.00     0.048 C 
BRANCH  23  24
ATOM     24  C3  <0> d          -2.692  -0.625   1.461  0.00  0.00     0.235 C 
BRANCH  24  25
ATOM     25  N3  <0> d          -3.109  -0.881   2.855  0.00  0.00    -0.079 N 
ATOM     26  C1  <0> d          -3.052   0.372   3.638  0.00  0.00     0.269 C 
ATOM     27  C2  <0> d          -4.482  -1.429   2.879  0.00  0.00     0.269 C 
ATOM     28  H27 <0> d          -2.469  -1.565   3.275  0.00  0.00     0.278 HD
ENDBRANCH  24  25
ENDBRANCH  23  24
ENDBRANCH  22  23
ENDBRANCH   1  22
BRANCH   7  29
ATOM     29  C21 <0> d           4.173  -1.944  -1.439  0.00  0.00    -0.045 A 
ATOM     30  C26 <0> d           3.951  -3.292  -1.653  0.00  0.00     0.008 A 
ATOM     31  C25 <0> d           4.055  -3.816  -2.928  0.00  0.00     0.001 A 
ATOM     32  C24 <0> d           4.378  -2.992  -3.989  0.00  0.00     0.000 A 
ATOM     33  C23 <0> d           4.599  -1.644  -3.776  0.00  0.00     0.001 A 
ATOM     34  C22 <0> d           4.492  -1.119  -2.502  0.00  0.00     0.008 A 
ENDBRANCH   7  29
TORSDOF 5
