REMARK  4 active torsions:
REMARK  status: ('A' for Active; 'I' for Inactive)
REMARK    1  A    between atoms: C4_4  and  C10_11 
REMARK    2  A    between atoms: C7_7  and  O1_8 
REMARK    3  A    between atoms: C10_11  and  N1_12 
REMARK    4  A    between atoms: N1_12  and  C11_13 
ROOT
ATOM      1  N1  <0> d           1.414  -3.039  -2.949  0.00  0.00    -0.063 N 
ATOM      2  H15 <0> d           1.914  -2.180  -3.125  0.00  0.00     0.278 HD
ATOM      3  H24 <0> d           1.861  -3.541  -2.197  0.00  0.00     0.278 HD
ENDROOT
BRANCH   1   4
ATOM      4  C10 <0> d           0.027  -2.730  -2.575  0.00  0.00     0.271 C 
BRANCH   4   5
ATOM      5  C4  <0> d           0.014  -1.989  -1.263  0.00  0.00    -0.032 A 
ATOM      6  C3  <0> d           0.082  -0.608  -1.250  0.00  0.00     0.018 A 
ATOM      7  C2  <0> d           0.070   0.074  -0.048  0.00  0.00    -0.028 A 
ATOM      8  C1  <0> d           0.143   1.579  -0.034  0.00  0.00     0.051 C 
ATOM      9  C7  <0> d          -0.005  -0.628   1.146  0.00  0.00     0.080 A 
ATOM     10  C6  <0> d          -0.078  -2.014   1.130  0.00  0.00    -0.028 A 
ATOM     11  C5  <0> d          -0.065  -2.691  -0.074  0.00  0.00     0.018 A 
ATOM     12  C9  <0> d          -0.165  -2.780   2.425  0.00  0.00     0.051 C 
BRANCH   9  13
ATOM     13  O1  <0> d          -0.011   0.040   2.329  0.00  0.00    -0.355 OA
ATOM     14  C8  <0> d          -1.284   0.421   2.852  0.00  0.00     0.210 C 
ENDBRANCH   9  13
ENDBRANCH   4   5
ENDBRANCH   1   4
BRANCH   1  15
ATOM     15  C11 <0> d           1.421  -3.867  -4.162  0.00  0.00     0.221 C 
ATOM     16  C16 <0> d           2.829  -4.303  -4.471  0.00  0.00     0.004 A 
ATOM     17  C15 <0> d           3.381  -4.288  -5.702  0.00  0.00     0.061 A 
ATOM     18  C17 <0> d           3.805  -4.789  -3.583  0.00  0.00     0.036 A 
ATOM     19  C14 <0> d           2.656  -3.834  -6.946  0.00  0.00     0.066 C 
ATOM     20  O2  <0> d           4.639  -4.736  -5.604  0.00  0.00    -0.326 OA
ATOM     21  C13 <0> d           1.152  -3.816  -6.649  0.00  0.00     0.009 C 
ATOM     22  C12 <0> d           0.895  -3.049  -5.349  0.00  0.00     0.038 C 
ATOM     23  C18 <0> d           4.904  -5.045  -4.320  0.00  0.00     0.142 A 
ENDBRANCH   1  15
TORSDOF 4
