REMARK  5 active torsions:
REMARK  status: ('A' for Active; 'I' for Inactive)
REMARK    1  A    between atoms: C2_2  and  C4_4 
REMARK    2  A    between atoms: N2_14  and  C12_15 
REMARK    3  A    between atoms: C12_15  and  C13_16 
REMARK    4  A    between atoms: C13_16  and  C14_17 
REMARK       I    between atoms: C14_17  and  N3_19 
REMARK    5  A    between atoms: N3_19  and  C15_20 
ROOT
ATOM      1  C12 <0> d          -1.406  -2.746   1.270  0.00  0.00     0.137 C 
ENDROOT
BRANCH   1   2
ATOM      2  N2  <0> d          -1.413  -2.031  -0.010  0.00  0.00    -0.326 N 
ATOM      3  C4  <0> d          -1.425  -0.569  -0.015  0.00  0.00     0.190 C 
ATOM      4  N1  <0> d          -2.137  -0.073  -1.199  0.00  0.00    -0.367 N 
ATOM      5  C5  <0> d          -1.876  -0.668  -2.428  0.00  0.00     0.045 A 
ATOM      6  H10 <0> d          -2.775   0.654  -1.126  0.00  0.00     0.161 HD
ATOM      7  C10 <0> d          -1.498  -2.022  -2.441  0.00  0.00     0.058 A 
ATOM      8  C6  <0> d          -1.979   0.032  -3.618  0.00  0.00     0.030 A 
ATOM      9  C9  <0> d          -1.223  -2.653  -3.651  0.00  0.00     0.019 A 
ATOM     10  C11 <0> d          -1.408  -2.738  -1.155  0.00  0.00     0.257 C 
ATOM     11  C8  <0> d          -1.329  -1.940  -4.828  0.00  0.00     0.001 A 
ATOM     12  C7  <0> d          -1.706  -0.607  -4.812  0.00  0.00     0.002 A 
ATOM     13  O1  <0> d          -1.331  -3.951  -1.131  0.00  0.00    -0.267 OA
BRANCH   3  14
ATOM     14  C2  <0> d           0.015  -0.051  -0.036  0.00  0.00     0.020 C 
ATOM     15  C1  <0> d           0.007   1.479  -0.034  0.00  0.00     0.013 C 
ATOM     16  C3  <0> d           0.758  -0.559   1.201  0.00  0.00     0.013 C 
ENDBRANCH   3  14
ENDBRANCH   1   2
BRANCH   1  17
ATOM     17  C13 <0> d          -2.846  -3.005   1.717  0.00  0.00     0.126 C 
BRANCH  17  18
ATOM     18  C14 <0> d          -2.838  -3.740   3.033  0.00  0.00     0.262 C 
ATOM     19  O2  <0> d          -1.782  -4.028   3.562  0.00  0.00    -0.271 OA
ATOM     20  N3  <0> d          -3.986  -4.073   3.615  0.00  0.00    -0.028 NA
BRANCH  20  21
ATOM     21  C15 <0> d          -3.981  -4.812   4.721  0.00  0.00     0.708 A 
ATOM     22  N5  <0> d          -5.084  -5.306   5.343  0.00  0.00    -0.188 N 
ATOM     23  C21 <0> d          -4.671  -6.025   6.459  0.00  0.00     0.076 A 
ATOM     24  H19 <0> d          -6.002  -5.180   5.056  0.00  0.00     0.184 HD
ATOM     25  C16 <0> d          -3.277  -5.947   6.505  0.00  0.00     0.076 A 
ATOM     26  C20 <0> d          -5.355  -6.731   7.438  0.00  0.00     0.032 A 
ATOM     27  N4  <0> d          -2.873  -5.187   5.412  0.00  0.00    -0.188 N 
ATOM     28  C17 <0> d          -2.583  -6.576   7.529  0.00  0.00     0.032 A 
ATOM     29  H2  <0> d          -1.957  -4.963   5.183  0.00  0.00     0.184 HD
ATOM     30  C18 <0> d          -3.274  -7.276   8.498  0.00  0.00     0.002 A 
ATOM     31  C19 <0> d          -4.656  -7.353   8.453  0.00  0.00     0.002 A 
ENDBRANCH  20  21
ENDBRANCH  17  18
ENDBRANCH   1  17
TORSDOF 5
