REMARK  4 active torsions:
REMARK  status: ('A' for Active; 'I' for Inactive)
REMARK    1  A    between atoms: C4_4  and  C6_6 
REMARK    2  A    between atoms: C7_10  and  C8_12 
REMARK    3  A    between atoms: C8_12  and  N4_13 
REMARK    4  A    between atoms: N4_13  and  C9_14 
ROOT
ATOM      1  C6  <0> d           1.130  -1.229  -1.857  0.00  0.00     0.152 A 
ATOM      2  N1  <0> d           0.466  -0.830  -2.909  0.00  0.00    -0.157 NA
ATOM      3  H1  <0> d           0.100  -1.897  -4.719  0.00  0.00     0.190 HD
ATOM      4  N2  <0> d           0.503  -1.884  -3.836  0.00  0.00    -0.261 N 
ATOM      5  C7  <0> d           1.208  -2.872  -3.258  0.00  0.00     0.150 A 
ATOM      6  N3  <0> d           1.582  -2.464  -2.073  0.00  0.00    -0.215 NA
ENDROOT
BRANCH   5   7
ATOM      7  C8  <0> d           1.517  -4.214  -3.870  0.00  0.00     0.349 C 
BRANCH   7   8
ATOM      8  N4  <0> d           2.840  -4.169  -4.508  0.00  0.00     0.096 N 
ATOM      9  H20 <0> d           2.888  -3.425  -5.188  0.00  0.00     0.316 HD
BRANCH   8  10
ATOM     10  C9  <0> d           3.175  -5.463  -5.117  0.00  0.00     0.235 C 
ATOM     11  C12 <0> d           4.714  -5.615  -5.184  0.00  0.00     0.175 C 
ATOM     12  S1  <0> d           4.955  -6.624  -6.702  0.00  0.00     0.146 S 
ATOM     13  C11 <0> d           3.204  -6.754  -7.263  0.00  0.00     0.142 C 
ATOM     14  O1  <0> d           5.689  -5.862  -7.651  0.00  0.00    -0.228 OA
ATOM     15  O2  <0> d           5.419  -7.915  -6.332  0.00  0.00    -0.228 OA
ATOM     16  C10 <0> d           2.580  -5.530  -6.533  0.00  0.00     0.051 C 
ENDBRANCH   8  10
ENDBRANCH   7   8
ENDBRANCH   5   7
BRANCH   1  17
ATOM     17  C4  <0> d           1.353  -0.422  -0.604  0.00  0.00     0.059 C 
ATOM     18  C3  <0> d           2.107   0.881  -0.942  0.00  0.00     0.012 C 
ATOM     19  C2  <0> d           1.477   1.939  -0.002  0.00  0.00     0.001 C 
ATOM     20  C1  <0> d          -0.019   1.538   0.011  0.00  0.00     0.001 C 
ATOM     21  C5  <0> d           0.002  -0.004   0.002  0.00  0.00     0.012 C 
ENDBRANCH   1  17
TORSDOF 4
