REMARK  2 active torsions:
REMARK  status: ('A' for Active; 'I' for Inactive)
REMARK    1  A    between atoms: C5_7  and  C8_13 
REMARK    2  A    between atoms: C11_16  and  O2_20 
ROOT
ATOM      1  C1  <0> d          -0.018   1.461   0.010  0.00  0.00     0.182 C 
ATOM      2  N1  <0> d           0.002  -0.004   0.002  0.00  0.00    -0.258 N 
ATOM      3  C2  <0> d           0.008  -0.800  -1.113  0.00  0.00     0.135 A 
ATOM      4  C3  <0> d           0.027  -2.081  -0.685  0.00  0.00     0.025 A 
ATOM      5  C4  <0> d           0.034  -2.065   0.725  0.00  0.00     0.151 A 
ATOM      6  N2  <0> d           0.024  -0.827   1.128  0.00  0.00    -0.183 NA
ATOM      7  C5  <0> d           0.038  -3.359  -1.464  0.00  0.00     0.118 C 
ATOM      8  S1  <0> d          -0.893  -3.266  -2.995  0.00  0.00    -0.145 SA
ATOM      9  C6  <0> d           0.010  -2.130  -4.057  0.00  0.00     0.178 C 
ATOM     10  C7  <0> d          -0.041  -0.732  -3.581  0.00  0.00     0.232 C 
ATOM     11  O1  <0> d          -0.138   0.102  -4.457  0.00  0.00    -0.272 OA
ATOM     12  N3  <0> d           0.001  -0.253  -2.374  0.00  0.00    -0.311 N 
ATOM     13  H8  <0> d           0.036   0.716  -2.359  0.00  0.00     0.170 HD
ENDROOT
BRANCH   7  14
ATOM     14  C8  <0> d          -0.550  -4.452  -0.609  0.00  0.00    -0.038 A 
ATOM     15  C13 <0> d           0.208  -5.563  -0.290  0.00  0.00     0.035 A 
ATOM     16  C12 <0> d          -0.327  -6.564   0.499  0.00  0.00     0.067 A 
ATOM     17  C11 <0> d          -1.632  -6.457   0.962  0.00  0.00     0.087 A 
ATOM     18 Cl1  <0> d           0.628  -7.955   0.905  0.00  0.00    -0.081 Cl
ATOM     19  C10 <0> d          -2.392  -5.343   0.635  0.00  0.00     0.039 A 
ATOM     20  C9  <0> d          -1.850  -4.344  -0.149  0.00  0.00     0.011 A 
BRANCH  17  21
ATOM     21  O2  <0> d          -2.163  -7.441   1.734  0.00  0.00    -0.359 OA
ATOM     22  H12 <0> d          -2.608  -8.138   1.232  0.00  0.00     0.217 HD
ENDBRANCH  17  21
ENDBRANCH   7  14
TORSDOF 2
