REMARK  7 active torsions:
REMARK  status: ('A' for Active; 'I' for Inactive)
REMARK       I    between atoms: N2_11  and  C9_12 
REMARK    1  A    between atoms: C9_12  and  C10_14 
REMARK    2  A    between atoms: C10_14  and  N3_15 
REMARK    3  A    between atoms: N3_15  and  C11_16 
REMARK    4  A    between atoms: N3_15  and  C18_24 
REMARK    5  A    between atoms: C11_16  and  C12_17 
REMARK    6  A    between atoms: C16_21  and  O3_23 
REMARK    7  A    between atoms: C21_27  and  O4_30 
ROOT
ATOM      1  C10 <0> d           4.821   1.299  -1.431  0.00  0.00     0.338 C 
ENDROOT
BRANCH   1   2
ATOM      2  C9  <0> d           4.250   2.261  -0.421  0.00  0.00     0.251 C 
ATOM      3  N2  <0> d           3.111   1.955   0.232  0.00  0.00    -0.295 N 
ATOM      4  C4  <0> d           2.320   0.865  -0.165  0.00  0.00     0.065 A 
ATOM      5  C8  <0> d           2.662   2.750   1.379  0.00  0.00     0.121 C 
ATOM      6  C3  <0> d           2.306   0.437  -1.480  0.00  0.00     0.032 A 
ATOM      7  C5  <0> d           1.539   0.217   0.794  0.00  0.00     0.062 A 
ATOM      8  C2  <0> d           1.515  -0.638  -1.843  0.00  0.00     0.002 A 
ATOM      9  C1  <0> d           0.740  -1.282  -0.896  0.00  0.00     0.002 A 
ATOM     10  C6  <0> d           0.749  -0.859   0.420  0.00  0.00     0.032 A 
ATOM     11  N1  <0> d           1.565   0.655   2.123  0.00  0.00    -0.323 N 
ATOM     12  C7  <0> d           2.108   1.845   2.445  0.00  0.00     0.251 C 
ATOM     13  H5  <0> d           1.188   0.095   2.819  0.00  0.00     0.169 HD
ATOM     14  O1  <0> d           2.150   2.191   3.607  0.00  0.00    -0.270 OA
ATOM     15  C27 <0> d           3.833   3.570   1.938  0.00  0.00     0.041 C 
ATOM     16  C24 <0> d           1.586   3.753   0.927  0.00  0.00     0.041 C 
ATOM     17  C26 <0> d           3.433   5.054   1.800  0.00  0.00     0.003 C 
ATOM     18  C25 <0> d           1.885   5.027   1.757  0.00  0.00     0.003 C 
ATOM     19  O2  <0> d           4.814   3.311  -0.197  0.00  0.00    -0.271 OA
ENDBRANCH   1   2
BRANCH   1  20
ATOM     20  N3  <0> d           6.250   1.582  -1.622  0.00  0.00    -0.055 N 
ATOM     21  H34 <0> d           6.660   0.866  -2.204  0.00  0.00     0.281 HD
BRANCH  20  22
ATOM     22  C11 <0> d           6.925   1.598  -0.318  0.00  0.00     0.274 C 
BRANCH  22  23
ATOM     23  C12 <0> d           6.917   0.210   0.270  0.00  0.00    -0.030 A 
ATOM     24  C17 <0> d           7.946  -0.666  -0.015  0.00  0.00     0.045 A 
ATOM     25  C16 <0> d           7.941  -1.941   0.531  0.00  0.00     0.066 A 
ATOM     26  C15 <0> d           6.895  -2.338   1.352  0.00  0.00     0.036 A 
ATOM     27  C14 <0> d           5.864  -1.460   1.628  0.00  0.00     0.003 A 
ATOM     28  C13 <0> d           5.875  -0.188   1.088  0.00  0.00     0.009 A 
BRANCH  25  29
ATOM     29  O3  <0> d           8.956  -2.803   0.258  0.00  0.00    -0.361 OA
ATOM     30  H14 <0> d           8.809  -3.348  -0.527  0.00  0.00     0.217 HD
ENDBRANCH  25  29
ENDBRANCH  22  23
ENDBRANCH  20  22
BRANCH  20  31
ATOM     31  C18 <0> d           6.408   2.890  -2.271  0.00  0.00     0.189 C 
ATOM     32  C23 <0> d           7.871   3.087  -2.672  0.00  0.00     0.036 C 
ATOM     33  C22 <0> d           8.035   4.450  -3.348  0.00  0.00     0.034 C 
ATOM     34  C21 <0> d           7.152   4.510  -4.596  0.00  0.00     0.118 C 
ATOM     35  C20 <0> d           5.689   4.313  -4.195  0.00  0.00     0.034 C 
ATOM     36  C19 <0> d           5.524   2.950  -3.519  0.00  0.00     0.036 C 
BRANCH  34  37
ATOM     37  O4  <0> d           7.305   5.783  -5.228  0.00  0.00    -0.396 OA
ATOM     38  H25 <0> d           8.210   5.976  -5.509  0.00  0.00     0.210 HD
ENDBRANCH  34  37
ENDBRANCH  20  31
ENDBRANCH   1  20
TORSDOF 7
