REMARK  8 active torsions:
REMARK  status: ('A' for Active; 'I' for Inactive)
REMARK       I    between atoms: C2_2  and  N1_4 
REMARK    1  A    between atoms: N1_4  and  C3_5 
REMARK    2  A    between atoms: C4_6  and  O7_38 
REMARK    3  A    between atoms: C8_11  and  C9_13 
REMARK    4  A    between atoms: C15_20  and  O5_21 
REMARK    5  A    between atoms: O5_21  and  C16_22 
REMARK    6  A    between atoms: C19_25  and  C22_28 
REMARK    7  A    between atoms: C23_29  and  C24_30 
REMARK    8  A    between atoms: C24_30  and  C25_32 
ROOT
ATOM      1  C3  <0> d          -1.136  -2.159   0.001  0.00  0.00     0.171 C 
ATOM      2  C4  <0> d          -2.374  -2.692   0.728  0.00  0.00     0.177 C 
ATOM      3  C5  <0> d          -3.630  -2.254  -0.027  0.00  0.00     0.187 C 
ATOM      4  C6  <0> d          -3.550  -2.733  -1.480  0.00  0.00     0.180 C 
ATOM      5  C7  <0> d          -4.760  -2.180  -2.245  0.00  0.00     0.206 C 
ATOM      6  O2  <0> d          -4.791  -0.757  -2.091  0.00  0.00    -0.354 OA
ATOM      7  C8  <0> d          -4.859  -0.323  -0.731  0.00  0.00     0.295 C 
ATOM      8  O3  <0> d          -3.731  -0.828  -0.011  0.00  0.00    -0.346 OA
ATOM      9  O4  <0> d          -2.344  -2.250  -2.076  0.00  0.00    -0.349 OA
ATOM     10  C15 <0> d          -1.148  -2.663  -1.444  0.00  0.00     0.292 C 
ENDROOT
BRANCH  10  11
ATOM     11  O5  <0> d          -1.087  -4.091  -1.452  0.00  0.00    -0.318 OA
BRANCH  11  12
ATOM     12  C16 <0> d          -0.879  -4.693  -2.650  0.00  0.00     0.072 A 
ATOM     13  C21 <0> d          -0.809  -6.079  -2.727  0.00  0.00     0.037 A 
ATOM     14  C20 <0> d          -0.603  -6.695  -3.940  0.00  0.00     0.014 A 
ATOM     15  C19 <0> d          -0.453  -5.921  -5.098  0.00  0.00    -0.036 A 
ATOM     16  C18 <0> d          -0.518  -4.525  -5.015  0.00  0.00     0.014 A 
ATOM     17  C17 <0> d          -0.730  -3.920  -3.797  0.00  0.00     0.037 A 
BRANCH  15  18
ATOM     18  C22 <0> d          -0.228  -6.573  -6.395  0.00  0.00     0.015 C 
ATOM     19  C23 <0> d          -0.165  -7.922  -6.473  0.00  0.00     0.056 C 
BRANCH  19  20
ATOM     20  C24 <0> d           0.052  -8.550  -7.725  0.00  0.00     0.182 C 
ATOM     21  O6  <0> d           0.182  -7.876  -8.730  0.00  0.00    -0.288 OA
BRANCH  20  22
ATOM     22  C25 <0> d           0.121 -10.025  -7.810  0.00  0.00     0.014 A 
ATOM     23  C30 <0> d           0.335 -10.647  -9.041  0.00  0.00     0.015 A 
ATOM     24  C29 <0> d           0.403 -12.023  -9.113  0.00  0.00     0.001 A 
ATOM     25  C28 <0> d           0.249 -12.787  -7.969  0.00  0.00     0.000 A 
ATOM     26  C27 <0> d           0.031 -12.177  -6.746  0.00  0.00     0.001 A 
ATOM     27  C26 <0> d          -0.034 -10.802  -6.660  0.00  0.00     0.015 A 
ENDBRANCH  20  22
ENDBRANCH  19  20
ENDBRANCH  15  18
ENDBRANCH  11  12
ENDBRANCH  10  11
BRANCH   1  28
ATOM     28  N1  <0> d          -1.156  -0.694   0.009  0.00  0.00    -0.349 N 
ATOM     29  C2  <0> d          -0.362  -0.014   0.860  0.00  0.00     0.214 C 
ATOM     30  C1  <0> d          -0.382   1.493   0.868  0.00  0.00     0.117 C 
ATOM     31  O1  <0> d           0.369  -0.614   1.619  0.00  0.00    -0.274 OA
ATOM     32  H10 <0> d          -1.740  -0.213  -0.597  0.00  0.00     0.163 HD
ENDBRANCH   1  28
BRANCH   2  33
ATOM     33  O7  <0> d          -2.410  -2.170   2.057  0.00  0.00    -0.391 OA
ATOM     34  H29 <0> d          -1.641  -2.406   2.594  0.00  0.00     0.210 HD
ENDBRANCH   2  33
BRANCH   7  35
ATOM     35  C9  <0> d          -4.851   1.183  -0.684  0.00  0.00    -0.004 A 
ATOM     36  C14 <0> d          -5.852   1.899  -1.313  0.00  0.00     0.012 A 
ATOM     37  C13 <0> d          -5.847   3.281  -1.266  0.00  0.00     0.001 A 
ATOM     38  C12 <0> d          -4.837   3.946  -0.597  0.00  0.00     0.000 A 
ATOM     39  C11 <0> d          -3.833   3.230   0.028  0.00  0.00     0.001 A 
ATOM     40  C10 <0> d          -3.841   1.848  -0.015  0.00  0.00     0.012 A 
ENDBRANCH   7  35
TORSDOF 8
