REMARK  7 active torsions:
REMARK  status: ('A' for Active; 'I' for Inactive)
REMARK       I    between atoms: N1_2  and  C2_3 
REMARK    1  A    between atoms: C2_3  and  C3_5 
REMARK    2  A    between atoms: C6_8  and  N2_11 
REMARK       I    between atoms: N2_11  and  C9_12 
REMARK    3  A    between atoms: C9_12  and  C10_14 
REMARK    4  A    between atoms: C10_14  and  S1_15 
REMARK    5  A    between atoms: S1_15  and  C11_17 
REMARK    6  A    between atoms: C11_17  and  C12_18 
REMARK    7  A    between atoms: C13_19  and  C14_20 
ROOT
ATOM      1  N2  <0> d           0.681  -6.316   0.973  0.00  0.00    -0.326 N 
ATOM      2  C9  <0> d           1.364  -6.986   1.922  0.00  0.00     0.233 C 
ATOM      3  O2  <0> d           1.887  -6.381   2.834  0.00  0.00    -0.272 OA
ATOM      4  H9  <0> d           0.199  -6.804   0.286  0.00  0.00     0.169 HD
ENDROOT
BRANCH   2   5
ATOM      5  C10 <0> d           1.478  -8.487   1.850  0.00  0.00     0.212 C 
BRANCH   5   6
ATOM      6  S1  <0> d           2.450  -9.088   3.259  0.00  0.00     0.027 S 
ATOM      7  O3  <0> d           1.770  -8.782   4.468  0.00  0.00    -0.257 OA
BRANCH   6   8
ATOM      8  C11 <0> d           2.493 -10.886   3.028  0.00  0.00     0.136 C 
BRANCH   8   9
ATOM      9  C12 <0> d           3.281 -11.518   4.146  0.00  0.00    -0.013 C 
ATOM     10  C13 <0> d           2.679 -12.327   5.007  0.00  0.00     0.008 C 
BRANCH  10  11
ATOM     11  C14 <0> d           3.452 -12.946   6.104  0.00  0.00    -0.036 A 
ATOM     12  C19 <0> d           2.821 -13.799   7.011  0.00  0.00     0.011 A 
ATOM     13  C18 <0> d           3.550 -14.379   8.029  0.00  0.00     0.001 A 
ATOM     14  C17 <0> d           4.900 -14.107   8.159  0.00  0.00     0.000 A 
ATOM     15  C16 <0> d           5.530 -13.258   7.266  0.00  0.00     0.001 A 
ATOM     16  C15 <0> d           4.814 -12.677   6.240  0.00  0.00     0.011 A 
ENDBRANCH  10  11
ENDBRANCH   8   9
ENDBRANCH   6   8
ENDBRANCH   5   6
ENDBRANCH   2   5
BRANCH   1  17
ATOM     17  C6  <0> d           0.667  -4.922   0.977  0.00  0.00     0.034 A 
ATOM     18  C5  <0> d           1.786  -4.218   1.411  0.00  0.00     0.030 A 
ATOM     19  C4  <0> d           1.776  -2.841   1.416  0.00  0.00     0.019 A 
ATOM     20  C3  <0> d           0.640  -2.151   0.983  0.00  0.00     0.032 A 
ATOM     21  C8  <0> d          -0.483  -2.861   0.553  0.00  0.00     0.019 A 
ATOM     22  C7  <0> d          -0.465  -4.238   0.545  0.00  0.00     0.030 A 
BRANCH  20  23
ATOM     23  C2  <0> d           0.626  -0.675   0.987  0.00  0.00     0.251 C 
ATOM     24  N1  <0> d           1.711   0.008   1.403  0.00  0.00    -0.361 N 
ATOM     25  C1  <0> d           1.696   1.473   1.407  0.00  0.00     0.149 C 
ATOM     26  H4  <0> d           2.501  -0.470   1.700  0.00  0.00     0.162 HD
ATOM     27  O1  <0> d          -0.364  -0.076   0.615  0.00  0.00    -0.268 OA
ENDBRANCH  20  23
ENDBRANCH   1  17
TORSDOF 7
