REMARK  6 active torsions:
REMARK  status: ('A' for Active; 'I' for Inactive)
REMARK    1  A    between atoms: C2_2  and  N1_5 
REMARK    2  A    between atoms: C8_9  and  N2_10 
REMARK       I    between atoms: N2_10  and  C9_11 
REMARK       I    between atoms: C9_11  and  N3_13 
REMARK    3  A    between atoms: N3_13  and  C10_14 
REMARK    4  A    between atoms: C10_14  and  C11_15 
REMARK    5  A    between atoms: C11_15  and  C12_16 
REMARK    6  A    between atoms: C11_15  and  N4_21 
ROOT
ATOM      1  N1  <0> d           0.800  -0.474  -1.137  0.00  0.00    -0.333 N 
ATOM      2  C5  <0> d           1.496   0.335  -1.977  0.00  0.00     0.116 A 
ATOM      3  C6  <0> d           2.239  -0.449  -2.814  0.00  0.00     0.063 A 
ATOM      4  C7  <0> d           1.956  -1.838  -2.436  0.00  0.00     0.073 A 
ATOM      5  C8  <0> d           1.079  -1.784  -1.407  0.00  0.00     0.113 A 
ATOM      6  C20 <0> d           3.118  -0.005  -3.854  0.00  0.00     0.101 C 
ATOM      7  N5  <0> d           3.815   0.348  -4.678  0.00  0.00    -0.191 NA
ENDROOT
BRANCH   1   8
ATOM      8  C2  <0> d          -0.113  -0.009  -0.090  0.00  0.00     0.027 C 
ATOM      9  C1  <0> d          -0.163   1.520  -0.098  0.00  0.00     0.038 C 
ATOM     10  C3  <0> d           0.383  -0.496   1.272  0.00  0.00     0.038 C 
ATOM     11  C4  <0> d          -1.514  -0.567  -0.351  0.00  0.00     0.038 C 
ENDBRANCH   1   8
BRANCH   5  12
ATOM     12  N2  <0> d           0.544  -2.885  -0.735  0.00  0.00    -0.295 N 
ATOM     13  C9  <0> d           0.900  -4.134  -1.097  0.00  0.00     0.321 C 
ATOM     14  O1  <0> d           1.687  -4.301  -2.009  0.00  0.00    -0.247 OA
ATOM     15  N3  <0> d           0.385  -5.196  -0.448  0.00  0.00    -0.340 N 
ATOM     16  H14 <0> d          -0.243  -5.063   0.280  0.00  0.00     0.164 HD
ATOM     17  H13 <0> d          -0.083  -2.751  -0.007  0.00  0.00     0.172 HD
BRANCH  15  18
ATOM     18  C10 <0> d           0.771  -6.553  -0.842  0.00  0.00     0.163 C 
BRANCH  18  19
ATOM     19  C11 <0> d           0.154  -7.562   0.129  0.00  0.00     0.245 C 
BRANCH  19  20
ATOM     20  C12 <0> d           0.750  -7.369   1.500  0.00  0.00     0.015 A 
ATOM     21  S1  <0> d           2.317  -7.942   2.135  0.00  0.00    -0.104 SA
ATOM     22  C15 <0> d           2.181  -7.271   3.784  0.00  0.00     0.050 A 
ATOM     23  C14 <0> d           0.966  -6.671   3.743  0.00  0.00     0.008 A 
ATOM     24  C13 <0> d           0.233  -6.721   2.572  0.00  0.00     0.017 A 
ENDBRANCH  19  20
BRANCH  19  25
ATOM     25  N4  <0> d           0.432  -8.926  -0.339  0.00  0.00    -0.061 N 
ATOM     26  C19 <0> d          -0.203  -9.153  -1.655  0.00  0.00     0.236 C 
ATOM     27  C18 <0> d          -0.676 -10.619  -1.681  0.00  0.00     0.029 C 
ATOM     28  C17 <0> d          -0.299 -11.190  -0.294  0.00  0.00     0.029 C 
ATOM     29  C16 <0> d          -0.179  -9.918   0.583  0.00  0.00     0.236 C 
ATOM     30  H28 <0> d           1.428  -9.076  -0.402  0.00  0.00     0.280 HD
ENDBRANCH  19  25
ENDBRANCH  18  19
ENDBRANCH  15  18
ENDBRANCH   5  12
TORSDOF 6
