REMARK  4 active torsions:
REMARK  status: ('A' for Active; 'I' for Inactive)
REMARK    1  A    between atoms: C5_5  and  N2_8 
REMARK       I    between atoms: N2_8  and  C7_9 
REMARK    2  A    between atoms: C7_9  and  C8_11 
REMARK    3  A    between atoms: C14_17  and  O3_22 
REMARK    4  A    between atoms: C16_20  and  N3_21 
ROOT
ATOM      1  C8  <0> d          -0.163  -6.285  -0.945  0.00  0.00     0.084 C 
ATOM      2  C9  <0> d          -0.149  -7.047  -2.105  0.00  0.00     0.035 C 
ATOM      3  C10 <0> d          -0.202  -8.503  -1.955  0.00  0.00     0.002 A 
ATOM      4  C11 <0> d           0.073  -9.345  -3.040  0.00  0.00     0.014 A 
ATOM      5  C12 <0> d           0.023 -10.701  -2.879  0.00  0.00     0.004 A 
ATOM      6  C13 <0> d          -0.299 -11.254  -1.648  0.00  0.00     0.040 A 
ATOM      7  C14 <0> d          -0.577 -10.441  -0.562  0.00  0.00     0.102 A 
ATOM      8  C15 <0> d          -0.532  -9.058  -0.706  0.00  0.00     0.121 A 
ATOM      9  O2  <0> d          -0.809  -8.245   0.343  0.00  0.00    -0.290 OA
ATOM     10  C16 <0> d          -0.224  -7.016   0.340  0.00  0.00     0.158 C 
ENDROOT
BRANCH   1  11
ATOM     11  C7  <0> d          -0.112  -4.815  -0.991  0.00  0.00     0.261 C 
ATOM     12  N2  <0> d          -0.268  -4.100   0.140  0.00  0.00    -0.307 N 
ATOM     13  H7  <0> d          -0.365  -4.554   0.992  0.00  0.00     0.170 HD
ATOM     14  O1  <0> d           0.071  -4.246  -2.050  0.00  0.00    -0.267 OA
BRANCH  12  15
ATOM     15  C5  <0> d          -0.289  -2.708   0.087  0.00  0.00     0.130 A 
ATOM     16  C4  <0> d           0.263  -2.052  -1.008  0.00  0.00     0.051 A 
ATOM     17  C3  <0> d           0.235  -0.669  -1.048  0.00  0.00     0.012 A 
ATOM     18  C2  <0> d          -0.346   0.012   0.013  0.00  0.00    -0.044 A 
ATOM     19  C1  <0> d          -0.398   1.518   0.013  0.00  0.00     0.049 C 
ATOM     20  C6  <0> d          -0.871  -0.703   1.071  0.00  0.00     0.125 A 
ATOM     21  N1  <0> d          -0.835  -2.022   1.079  0.00  0.00    -0.243 NA
ENDBRANCH  12  15
ENDBRANCH   1  11
BRANCH  10  22
ATOM     22  N3  <0> d           0.263  -6.497   1.435  0.00  0.00    -0.379 N 
ATOM     23  H12 <0> d           0.761  -5.665   1.397  0.00  0.00     0.158 HD
ATOM     24  H16 <0> d           0.128  -6.942   2.285  0.00  0.00     0.158 HD
ENDBRANCH  10  22
BRANCH   7  25
ATOM     25  O3  <0> d          -0.892 -10.993   0.640  0.00  0.00    -0.353 OA
ATOM     26  C17 <0> d          -0.918 -12.420   0.713  0.00  0.00     0.210 C 
ENDBRANCH   7  25
TORSDOF 4
