REMARK  7 active torsions:
REMARK  status: ('A' for Active; 'I' for Inactive)
REMARK    1  A    between atoms: C10_10  and  N1_11 
REMARK    2  A    between atoms: N1_11  and  C11_12 
REMARK    3  A    between atoms: C11_12  and  C12_13 
REMARK    4  A    between atoms: C12_13  and  C13_14 
REMARK    5  A    between atoms: C12_13  and  O2_21 
REMARK    6  A    between atoms: C13_14  and  O1_15 
REMARK    7  A    between atoms: O1_15  and  C14_16 
ROOT
ATOM      1  N1  <0> d           4.651   0.020   0.863  0.00  0.00    -0.064 N 
ATOM      2  H13 <0> d           4.772   1.014   0.736  0.00  0.00     0.278 HD
ATOM      3  H20 <0> d           4.203  -0.154   1.750  0.00  0.00     0.278 HD
ENDROOT
BRANCH   1   4
ATOM      4  C10 <0> d           3.815  -0.513  -0.221  0.00  0.00     0.219 C 
ATOM      5  C4  <0> d           2.523   0.260  -0.278  0.00  0.00    -0.021 A 
ATOM      6  C3  <0> d           2.587   1.639  -0.125  0.00  0.00     0.010 A 
ATOM      7  C5  <0> d           1.304  -0.348  -0.477  0.00  0.00    -0.050 A 
ATOM      8  C2  <0> d           1.440   2.404  -0.174  0.00  0.00     0.001 A 
ATOM      9  C1  <0> d           0.216   1.793  -0.379  0.00  0.00     0.001 A 
ATOM     10  C6  <0> d           0.151   0.424  -0.530  0.00  0.00     0.007 A 
ATOM     11  C7  <0> d           1.159  -1.839  -0.635  0.00  0.00     0.039 C 
ATOM     12  C8  <0> d           2.502  -2.477  -0.982  0.00  0.00     0.007 C 
ATOM     13  C9  <0> d           3.544  -1.994   0.034  0.00  0.00     0.038 C 
ENDBRANCH   1   4
BRANCH   1  14
ATOM     14  C11 <0> d           5.963  -0.640   0.839  0.00  0.00     0.266 C 
BRANCH  14  15
ATOM     15  C12 <0> d           6.877   0.004   1.883  0.00  0.00     0.168 C 
BRANCH  15  16
ATOM     16  C13 <0> d           8.244  -0.684   1.859  0.00  0.00     0.210 C 
BRANCH  16  17
ATOM     17  O1  <0> d           9.059  -0.162   2.910  0.00  0.00    -0.330 OA
BRANCH  17  18
ATOM     18  C14 <0> d          10.314  -0.670   3.029  0.00  0.00     0.192 A 
ATOM     19  N3  <0> d          10.777  -1.603   2.222  0.00  0.00    -0.167 NA
ATOM     20  S1  <0> d          12.330  -1.865   2.785  0.00  0.00     0.118 SA
ATOM     21  N2  <0> d          12.374  -0.819   4.016  0.00  0.00    -0.201 NA
ATOM     22  C15 <0> d          11.193  -0.251   4.007  0.00  0.00     0.185 A 
ENDBRANCH  17  18
ENDBRANCH  16  17
ENDBRANCH  15  16
BRANCH  15  23
ATOM     23  O2  <0> d           7.037   1.392   1.584  0.00  0.00    -0.392 OA
ATOM     24  H19 <0> d           7.428   1.565   0.716  0.00  0.00     0.210 HD
ENDBRANCH  15  23
ENDBRANCH  14  15
ENDBRANCH   1  14
TORSDOF 7
