REMARK  8 active torsions:
REMARK  status: ('A' for Active; 'I' for Inactive)
REMARK    1  A    between atoms: C2_2  and  C3_3 
REMARK    2  A    between atoms: C2_2  and  N1_10 
REMARK    3  A    between atoms: C3_3  and  C4_4 
REMARK    4  A    between atoms: C4_4  and  C5_5 
REMARK    5  A    between atoms: C5_5  and  C6_6 
REMARK    6  A    between atoms: C6_6  and  O1_9 
REMARK       I    between atoms: N1_10  and  C9_11 
REMARK    7  A    between atoms: C9_11  and  C10_13 
REMARK       I    between atoms: N2_15  and  C18_23 
REMARK    8  A    between atoms: C18_23  and  C19_25 
ROOT
ATOM      1  C10 <0> d           1.307  -1.379   3.954  0.00  0.00     0.106 C 
ATOM      2  C11 <0> d           2.318  -0.217   4.079  0.00  0.00     0.141 C 
ATOM      3  N2  <0> d           1.701   0.712   5.055  0.00  0.00    -0.346 N 
ATOM      4  C12 <0> d           1.094  -0.176   6.076  0.00  0.00     0.136 C 
ATOM      5  C13 <0> d           0.509  -1.351   5.268  0.00  0.00    -0.007 C 
ATOM      6  C14 <0> d          -0.970  -1.109   4.983  0.00  0.00     0.039 C 
ATOM      7  C15 <0> d          -1.751  -1.141   6.299  0.00  0.00     0.233 C 
ATOM      8  N3  <0> d          -1.565  -2.444   6.949  0.00  0.00    -0.075 N 
ATOM      9  C16 <0> d          -0.153  -2.630   7.304  0.00  0.00     0.233 C 
ATOM     10  C17 <0> d           0.696  -2.660   6.029  0.00  0.00     0.039 C 
ATOM     11  C18 <0> d           1.694   2.059   5.023  0.00  0.00     0.253 C 
ATOM     12  O3  <0> d           2.128   2.646   4.050  0.00  0.00    -0.267 OA
ATOM     13  H28 <0> d          -2.128  -2.486   7.785  0.00  0.00     0.277 HD
ATOM     14  H38 <0> d          -1.851  -3.177   6.317  0.00  0.00     0.277 HD
ENDROOT
BRANCH   1  15
ATOM     15  C9  <0> d           0.392  -1.155   2.779  0.00  0.00     0.224 C 
ATOM     16  N1  <0> d          -0.207  -2.204   2.181  0.00  0.00    -0.356 N 
ATOM     17  H19 <0> d          -0.049  -3.104   2.508  0.00  0.00     0.162 HD
ATOM     18  O2  <0> d           0.193  -0.030   2.370  0.00  0.00    -0.273 OA
BRANCH  16  19
ATOM     19  C2  <0> d          -1.098  -1.986   1.038  0.00  0.00     0.080 C 
ATOM     20  C1  <0> d          -0.270  -1.914  -0.246  0.00  0.00     0.032 C 
BRANCH  19  21
ATOM     21  C3  <0> d          -2.093  -3.144   0.940  0.00  0.00     0.025 C 
BRANCH  21  22
ATOM     22  C4  <0> d          -3.004  -3.139   2.169  0.00  0.00     0.005 C 
BRANCH  22  23
ATOM     23  C5  <0> d          -4.000  -4.296   2.070  0.00  0.00     0.037 C 
BRANCH  23  24
ATOM     24  C6  <0> d          -4.911  -4.292   3.300  0.00  0.00     0.051 C 
ATOM     25  C7  <0> d          -5.673  -2.967   3.364  0.00  0.00     0.045 C 
ATOM     26  C8  <0> d          -5.907  -5.449   3.201  0.00  0.00     0.045 C 
BRANCH  24  27
ATOM     27  O1  <0> d          -4.119  -4.444   4.479  0.00  0.00    -0.391 OA
ATOM     28  H18 <0> d          -3.607  -5.264   4.506  0.00  0.00     0.210 HD
ENDBRANCH  24  27
ENDBRANCH  23  24
ENDBRANCH  22  23
ENDBRANCH  21  22
ENDBRANCH  19  21
ENDBRANCH  16  19
ENDBRANCH   1  15
BRANCH  11  29
ATOM     29  C19 <0> d           1.158   2.824   6.169  0.00  0.00     0.032 A 
ATOM     30  C24 <0> d           0.749   4.147   5.999  0.00  0.00     0.017 A 
ATOM     31  C23 <0> d           0.244   4.853   7.072  0.00  0.00     0.001 A 
ATOM     32  C22 <0> d           0.156   4.255   8.317  0.00  0.00     0.000 A 
ATOM     33  C21 <0> d           0.566   2.946   8.493  0.00  0.00     0.001 A 
ATOM     34  C20 <0> d           1.066   2.227   7.428  0.00  0.00     0.017 A 
ENDBRANCH  11  29
TORSDOF 8
