REMARK  5 active torsions:
REMARK  status: ('A' for Active; 'I' for Inactive)
REMARK    1  A    between atoms: C6_7  and  C9_10 
REMARK    2  A    between atoms: C9_10  and  C10_11 
REMARK    3  A    between atoms: C10_11  and  N2_12 
REMARK       I    between atoms: N2_12  and  C11_13 
REMARK    4  A    between atoms: C11_13  and  C12_15 
REMARK    5  A    between atoms: C15_18  and  C18_21 
ROOT
ATOM      1  C12 <0> d          -1.734  -6.535  -2.622  0.00  0.00     0.032 A 
ATOM      2  C13 <0> d          -2.247  -7.021  -1.418  0.00  0.00     0.017 A 
ATOM      3  C14 <0> d          -3.108  -8.098  -1.423  0.00  0.00     0.012 A 
ATOM      4  C15 <0> d          -3.463  -8.698  -2.619  0.00  0.00    -0.016 A 
ATOM      5  C16 <0> d          -2.958  -8.222  -3.816  0.00  0.00     0.012 A 
ATOM      6  C17 <0> d          -2.101  -7.141  -3.825  0.00  0.00     0.017 A 
ENDROOT
BRANCH   1   7
ATOM      7  C11 <0> d          -0.811  -5.380  -2.623  0.00  0.00     0.251 C 
ATOM      8  N2  <0> d          -0.458  -4.798  -1.460  0.00  0.00    -0.357 N 
ATOM      9  H12 <0> d          -0.810  -5.136  -0.622  0.00  0.00     0.162 HD
ATOM     10  O1  <0> d          -0.370  -4.956  -3.674  0.00  0.00    -0.268 OA
BRANCH   8  11
ATOM     11  C10 <0> d           0.457  -3.653  -1.462  0.00  0.00     0.127 C 
BRANCH  11  12
ATOM     12  C9  <0> d           0.691  -3.186  -0.024  0.00  0.00     0.056 C 
BRANCH  12  13
ATOM     13  C6  <0> d           1.631  -2.008  -0.025  0.00  0.00    -0.048 A 
ATOM     14  C5  <0> d           3.143  -2.053  -0.041  0.00  0.00     0.155 A 
ATOM     15  N1  <0> d           3.587  -0.654  -0.037  0.00  0.00    -0.385 N 
ATOM     16  C4  <0> d           2.529   0.120  -0.022  0.00  0.00     0.038 A 
ATOM     17  H23 <0> d           4.509  -0.353  -0.045  0.00  0.00     0.160 HD
ATOM     18  C3  <0> d           2.391   1.535  -0.013  0.00  0.00     0.030 A 
ATOM     19  C7  <0> d           1.295  -0.698  -0.014  0.00  0.00    -0.006 A 
ATOM     20  C2  <0> d           1.166   2.101   0.002  0.00  0.00     0.002 A 
ATOM     21  C1  <0> d          -0.016   1.348   0.009  0.00  0.00     0.001 A 
ATOM     22  C8  <0> d           0.002  -0.004   0.002  0.00  0.00     0.014 A 
ENDBRANCH  12  13
ENDBRANCH  11  12
ENDBRANCH   8  11
ENDBRANCH   1   7
BRANCH   4  23
ATOM     23  C18 <0> d          -4.404  -9.875  -2.617  0.00  0.00     0.226 C 
ATOM     24  N4  <0> d          -5.186  -9.886  -3.870  0.00  0.00    -0.289 N 
ATOM     25  S1  <0> d          -6.161  -8.553  -4.128  0.00  0.00     0.263 S 
ATOM     26  H22 <0> d          -5.137 -10.621  -4.501  0.00  0.00     0.175 HD
ATOM     27  C24 <0> d          -6.837  -8.174  -2.540  0.00  0.00     0.105 A 
ATOM     28  O2  <0> d          -7.240  -8.982  -4.948  0.00  0.00    -0.200 OA
ATOM     29  O3  <0> d          -5.306  -7.476  -4.484  0.00  0.00    -0.200 OA
ATOM     30  C19 <0> d          -6.330  -8.804  -1.412  0.00  0.00     0.053 A 
ATOM     31  C23 <0> d          -7.851  -7.245  -2.430  0.00  0.00     0.027 A 
ATOM     32  N3  <0> d          -5.325  -9.764  -1.488  0.00  0.00    -0.363 N 
ATOM     33  C20 <0> d          -6.846  -8.468  -0.161  0.00  0.00     0.031 A 
ATOM     34  H17 <0> d          -5.232 -10.393  -0.755  0.00  0.00     0.162 HD
ATOM     35  C21 <0> d          -7.853  -7.533  -0.053  0.00  0.00     0.002 A 
ATOM     36  C22 <0> d          -8.361  -6.922  -1.185  0.00  0.00     0.002 A 
ENDBRANCH   4  23
TORSDOF 5
