REMARK  2 active torsions:
REMARK  status: ('A' for Active; 'I' for Inactive)
REMARK    1  A    between atoms: C6_6  and  C7_7 
REMARK    2  A    between atoms: C8_9  and  C10_12 
ROOT
ATOM      1  C7  <0> d          -1.268  -0.763   0.009  0.00  0.00     0.081 A 
ATOM      2  N1  <0> d          -2.458  -0.236   0.017  0.00  0.00    -0.260 NA
ATOM      3  C8  <0> d          -3.421  -1.345   0.021  0.00  0.00     0.235 A 
ATOM      4  N2  <0> d          -2.624  -2.578   0.015  0.00  0.00    -0.271 NA
ATOM      5  C9  <0> d          -1.381  -2.236   0.002  0.00  0.00     0.145 A 
ENDROOT
BRANCH   1   6
ATOM      6  C6  <0> d           0.002  -0.004   0.002  0.00  0.00    -0.004 A 
ATOM      7  C1  <0> d          -0.017   1.391   0.010  0.00  0.00     0.017 A 
ATOM      8  C2  <0> d           1.168   2.096   0.002  0.00  0.00     0.040 A 
ATOM      9  C3  <0> d           2.383   1.423  -0.012  0.00  0.00     0.102 A 
ATOM     10  O3  <0> d           3.539   2.139  -0.023  0.00  0.00    -0.346 OA
ATOM     11  C4  <0> d           2.408   0.030  -0.018  0.00  0.00     0.103 A 
ATOM     12  C15 <0> d           4.733   1.439   0.343  0.00  0.00     0.202 C 
ATOM     13  C14 <0> d           4.753   0.099  -0.405  0.00  0.00     0.202 C 
ATOM     14  O2  <0> d           3.590  -0.644  -0.024  0.00  0.00    -0.346 OA
ATOM     15  C5  <0> d           1.222  -0.682  -0.012  0.00  0.00     0.053 A 
ENDBRANCH   1   6
BRANCH   3  16
ATOM     16  C10 <0> d          -4.288  -1.285   1.280  0.00  0.00     0.058 C 
ATOM     17  C13 <0> d          -5.359  -2.397   1.268  0.00  0.00     0.131 C 
ATOM     18  N3  <0> d          -6.553  -1.798   1.878  0.00  0.00    -0.361 N 
ATOM     19  C12 <0> d          -6.469  -0.457   1.899  0.00  0.00     0.218 C 
ATOM     20  H9  <0> d          -7.305  -2.305   2.222  0.00  0.00     0.162 HD
ATOM     21  C11 <0> d          -5.159  -0.007   1.291  0.00  0.00     0.113 C 
ATOM     22  O1  <0> d          -7.321   0.285   2.342  0.00  0.00    -0.274 OA
ENDBRANCH   3  16
TORSDOF 2
