REMARK  4 active torsions:
REMARK  status: ('A' for Active; 'I' for Inactive)
REMARK    1  A    between atoms: C5_5  and  C7_8 
REMARK    2  A    between atoms: C7_8  and  N2_9 
REMARK    3  A    between atoms: N2_9  and  C8_10 
REMARK    4  A    between atoms: C8_10  and  C9_11 
ROOT
ATOM      1  N2  <0> d           1.451  -4.700   0.089  0.00  0.00    -0.067 N 
ATOM      2  H9  <0> d           1.918  -4.389  -0.749  0.00  0.00     0.277 HD
ATOM      3  H19 <0> d           1.925  -4.327   0.897  0.00  0.00     0.277 HD
ENDROOT
BRANCH   1   4
ATOM      4  C7  <0> d           0.059  -4.229   0.077  0.00  0.00     0.272 C 
BRANCH   4   5
ATOM      5  C5  <0> d           0.039  -2.724   0.021  0.00  0.00    -0.015 A 
ATOM      6  C4  <0> d           0.024  -2.067  -1.200  0.00  0.00     0.012 A 
ATOM      7  C3  <0> d           0.005  -0.681  -1.203  0.00  0.00     0.027 A 
ATOM      8  C2  <0> d           0.002  -0.004   0.002  0.00  0.00     0.030 A 
ATOM      9  C1  <0> d          -0.018   1.503   0.010  0.00  0.00     0.070 C 
ATOM     10  N1  <0> d           0.022  -0.662   1.145  0.00  0.00    -0.265 NA
ATOM     11  C6  <0> d           0.035  -1.980   1.186  0.00  0.00     0.125 A 
ENDBRANCH   4   5
ENDBRANCH   1   4
BRANCH   1  12
ATOM     12  C8  <0> d           1.470  -6.168   0.144  0.00  0.00     0.271 C 
BRANCH  12  13
ATOM     13  C9  <0> d           2.898  -6.651   0.156  0.00  0.00    -0.030 A 
ATOM     14  C14 <0> d           3.557  -6.828   1.358  0.00  0.00     0.048 A 
ATOM     15  C13 <0> d           4.869  -7.277   1.372  0.00  0.00     0.102 A 
ATOM     16  C12 <0> d           5.521  -7.542   0.173  0.00  0.00     0.102 A 
ATOM     17  O1  <0> d           5.505  -7.445   2.563  0.00  0.00    -0.346 OA
ATOM     18  C11 <0> d           4.857  -7.356  -1.030  0.00  0.00     0.040 A 
ATOM     19  O2  <0> d           6.809  -7.984   0.164  0.00  0.00    -0.346 OA
ATOM     20  C10 <0> d           3.548  -6.912  -1.036  0.00  0.00     0.012 A 
ATOM     21  C16 <0> d           7.561  -7.798   1.368  0.00  0.00     0.202 C 
ATOM     22  C15 <0> d           6.692  -8.245   2.552  0.00  0.00     0.202 C 
ENDBRANCH  12  13
ENDBRANCH   1  12
TORSDOF 4
