REMARK  4 active torsions:
REMARK  status: ('A' for Active; 'I' for Inactive)
REMARK    1  A    between atoms: N1_4  and  C8_10 
REMARK    2  A    between atoms: C8_10  and  C9_11 
REMARK    3  A    between atoms: C10_12  and  C13_16 
REMARK    4  A    between atoms: C13_16  and  N2_17 
ROOT
ATOM      1  C9  <0> d           0.552  -2.207  -3.626  0.00  0.00     0.088 A 
ATOM      2  C10 <0> d           0.593  -1.105  -4.396  0.00  0.00     0.000 A 
ATOM      3  C11 <0> d          -0.407  -1.259  -5.385  0.00  0.00     0.036 A 
ATOM      4  C12 <0> d          -0.999  -2.446  -5.159  0.00  0.00     0.143 A 
ATOM      5  O2  <0> d          -0.410  -3.018  -4.096  0.00  0.00    -0.325 OA
ENDROOT
BRANCH   1   6
ATOM      6  C8  <0> d           1.439  -2.486  -2.440  0.00  0.00     0.337 C 
BRANCH   6   7
ATOM      7  N1  <0> d           0.805  -1.966  -1.221  0.00  0.00     0.100 N 
ATOM      8  C3  <0> d           0.720  -0.499  -1.256  0.00  0.00     0.304 C 
ATOM      9  C2  <0> d           0.002  -0.004   0.002  0.00  0.00     0.147 C 
ATOM     10  C1  <0> d          -0.019   1.526   0.010  0.00  0.00     0.041 C 
ATOM     11  O1  <0> d           0.695  -0.479   1.159  0.00  0.00    -0.372 OA
ATOM     12  C5  <0> d           0.797  -1.904   1.226  0.00  0.00     0.080 C 
ATOM     13  C4  <0> d           1.523  -2.417  -0.020  0.00  0.00     0.309 C 
ATOM     14  C6  <0> d           1.583  -2.302   2.476  0.00  0.00     0.047 C 
ATOM     15  C7  <0> d          -0.605  -2.513   1.287  0.00  0.00     0.047 C 
ENDBRANCH   6   7
ENDBRANCH   1   6
BRANCH   2  16
ATOM     16  C13 <0> d           1.524   0.069  -4.237  0.00  0.00     0.270 C 
BRANCH  16  17
ATOM     17  N2  <0> d           2.834  -0.263  -4.814  0.00  0.00    -0.075 N 
ATOM     18  H21 <0> d           2.725  -0.476  -5.795  0.00  0.00     0.274 HD
ATOM     19  H22 <0> d           3.457   0.522  -4.707  0.00  0.00     0.274 HD
ATOM     20  H23 <0> d           3.218  -1.065  -4.337  0.00  0.00     0.274 HD
ENDBRANCH  16  17
ENDBRANCH   2  16
TORSDOF 4
