REMARK  5 active torsions:
REMARK  status: ('A' for Active; 'I' for Inactive)
REMARK    1  A    between atoms: C2_2  and  O1_3 
REMARK    2  A    between atoms: O1_3  and  C3_4 
REMARK    3  A    between atoms: C3_4  and  C4_6 
REMARK    4  A    between atoms: C7_12  and  C10_16 
REMARK    5  A    between atoms: C10_16  and  N4_17 
ROOT
ATOM      1  C4  <0> d          -2.844  -2.417   0.016  0.00  0.00     0.111 A 
ATOM      2  C5  <0> d          -3.626  -2.748  -1.114  0.00  0.00     0.071 A 
ATOM      3  N1  <0> d          -4.761  -3.238  -0.702  0.00  0.00    -0.167 NA
ATOM      4  N2  <0> d          -4.779  -3.252   0.698  0.00  0.00    -0.179 N 
ATOM      5  C6  <0> d          -3.596  -2.750   1.142  0.00  0.00     0.151 A 
ATOM      6  N3  <0> d          -3.341  -2.652   2.486  0.00  0.00    -0.342 N 
ATOM      7  C7  <0> d          -4.273  -3.061   3.394  0.00  0.00     0.044 A 
ATOM      8  C8  <0> d          -5.453  -3.564   2.966  0.00  0.00     0.103 A 
ATOM      9  C9  <0> d          -5.712  -3.657   1.583  0.00  0.00     0.271 A 
ATOM     10  O3  <0> d          -6.772  -4.111   1.189  0.00  0.00    -0.266 OA
ATOM     11  C19 <0> d          -3.216  -2.566  -2.553  0.00  0.00     0.073 C 
ATOM     12  H28 <0> d          -2.494  -2.291   2.792  0.00  0.00     0.167 HD
ENDROOT
BRANCH   7  13
ATOM     13  C10 <0> d          -3.988  -2.952   4.870  0.00  0.00     0.329 C 
BRANCH  13  14
ATOM     14  N4  <0> d          -2.874  -3.842   5.221  0.00  0.00     0.096 N 
ATOM     15  C18 <0> d          -2.410  -3.591   6.600  0.00  0.00     0.305 C 
ATOM     16  C17 <0> d          -0.907  -3.721   6.626  0.00  0.00     0.216 C 
ATOM     17  N5  <0> d          -0.391  -5.048   6.486  0.00  0.00    -0.065 N 
ATOM     18  C16 <0> d          -0.236  -3.195   7.908  0.00  0.00     0.036 C 
ATOM     19  C13 <0> d          -0.812  -5.821   5.347  0.00  0.00     0.237 C 
ATOM     20  C14 <0> d           1.026  -5.023   6.836  0.00  0.00     0.235 C 
ATOM     21  H27 <0> d          -0.800  -5.534   7.270  0.00  0.00     0.280 HD
ATOM     22  C12 <0> d          -2.269  -6.260   5.596  0.00  0.00     0.058 C 
ATOM     23  C11 <0> d          -3.233  -5.244   5.000  0.00  0.00     0.274 C 
ATOM     24  C15 <0> d           1.183  -3.824   7.809  0.00  0.00     0.030 C 
ENDBRANCH  13  14
ENDBRANCH   7  13
BRANCH   1  25
ATOM     25  C3  <0> d          -1.497  -1.838   0.006  0.00  0.00     0.299 C 
ATOM     26  O2  <0> d          -0.523  -2.565  -0.007  0.00  0.00    -0.259 OA
BRANCH  25  27
ATOM     27  O1  <0> d          -1.339  -0.499   0.012  0.00  0.00    -0.318 OA
BRANCH  27  28
ATOM     28  C2  <0> d           0.002  -0.004   0.002  0.00  0.00     0.174 C 
ATOM     29  C1  <0> d          -0.019   1.526   0.010  0.00  0.00     0.034 C 
ENDBRANCH  27  28
ENDBRANCH  25  27
ENDBRANCH   1  25
TORSDOF 5
