REMARK  4 active torsions:
REMARK  status: ('A' for Active; 'I' for Inactive)
REMARK    1  A    between atoms: C4_5  and  C5_6 
REMARK    2  A    between atoms: C5_6  and  N1_7 
REMARK    3  A    between atoms: N1_7  and  C6_8 
REMARK    4  A    between atoms: C6_8  and  C10_13 
ROOT
ATOM      1  N1  <0> d          -1.499  -1.325  -1.373  0.00  0.00    -0.051 N 
ATOM      2  H4  <0> d          -1.812  -0.474  -1.815  0.00  0.00     0.279 HD
ATOM      3  H17 <0> d          -0.712  -1.698  -1.882  0.00  0.00     0.279 HD
ENDROOT
BRANCH   1   4
ATOM      4  C5  <0> d          -1.096  -1.038   0.010  0.00  0.00     0.280 C 
BRANCH   4   5
ATOM      5  C4  <0> d          -0.068   0.064   0.016  0.00  0.00     0.009 A 
ATOM      6  C1  <0> d          -0.253   1.398   0.094  0.00  0.00     0.024 A 
ATOM      7  C2  <0> d           0.853   2.264   0.085  0.00  0.00    -0.044 A 
ATOM      8  C13 <0> d           1.054   3.780   0.160  0.00  0.00     0.040 C 
ATOM      9  C3  <0> d           2.074   1.684  -0.010  0.00  0.00    -0.011 A 
ATOM     10  C12 <0> d           2.487   4.034  -0.350  0.00  0.00     0.010 C 
ATOM     11  C11 <0> d           3.183   2.695  -0.020  0.00  0.00     0.047 C 
ATOM     12  S1  <0> d           1.710  -0.055  -0.078  0.00  0.00    -0.097 SA
ENDBRANCH   4   5
ENDBRANCH   1   4
BRANCH   1  13
ATOM     13  C6  <0> d          -2.591  -2.307  -1.371  0.00  0.00     0.221 C 
ATOM     14  C9  <0> d          -3.832  -1.664  -0.721  0.00  0.00     0.124 C 
ATOM     15  S2  <0> d          -4.099  -2.691   0.783  0.00  0.00    -0.166 SA
ATOM     16  C8  <0> d          -2.432  -3.480   0.864  0.00  0.00     0.077 C 
ATOM     17  C7  <0> d          -2.114  -3.569  -0.655  0.00  0.00     0.061 C 
BRANCH  13  18
ATOM     18  C10 <0> d          -2.922  -2.661  -2.798  0.00  0.00     0.211 C 
ATOM     19  O1  <0> d          -2.279  -2.175  -3.712  0.00  0.00    -0.646 OA
ATOM     20  O2  <0> d          -3.834  -3.435  -3.038  0.00  0.00    -0.646 OA
ENDBRANCH  13  18
ENDBRANCH   1  13
TORSDOF 4
