REMARK  3 active torsions:
REMARK  status: ('A' for Active; 'I' for Inactive)
REMARK    1  A    between atoms: C5_5  and  C13_16 
REMARK    2  A    between atoms: N1_8  and  C7_10 
REMARK       I    between atoms: C13_16  and  N3_18 
REMARK    3  A    between atoms: N3_18  and  C14_19 
ROOT
ATOM      1  C1  <0> d          -0.018   1.503   0.010  0.00  0.00     0.073 C 
ATOM      2  C2  <0> d           0.002  -0.004   0.002  0.00  0.00     0.064 A 
ATOM      3  C3  <0> d           0.008  -0.829  -1.171  0.00  0.00     0.027 A 
ATOM      4  C4  <0> d          -0.001  -0.690  -2.567  0.00  0.00     0.041 A 
ATOM      5  C5  <0> d           0.010  -1.802  -3.356  0.00  0.00     0.076 A 
ATOM      6  S1  <0> d           0.034  -3.128  -2.162  0.00  0.00    -0.064 SA
ATOM      7  C6  <0> d           0.028  -2.145  -0.685  0.00  0.00     0.113 A 
ATOM      8  N1  <0> d           0.034  -2.107   0.663  0.00  0.00    -0.226 N 
ATOM      9  N2  <0> d           0.023  -0.763   1.056  0.00  0.00    -0.171 NA
ENDROOT
BRANCH   5  10
ATOM     10  C13 <0> d           0.004  -1.887  -4.819  0.00  0.00     0.264 C 
ATOM     11  O1  <0> d          -0.013  -0.870  -5.487  0.00  0.00    -0.267 OA
ATOM     12  N3  <0> d           0.017  -3.091  -5.424  0.00  0.00    -0.301 N 
ATOM     13  H10 <0> d           0.031  -3.901  -4.891  0.00  0.00     0.171 HD
BRANCH  12  14
ATOM     14  C14 <0> d           0.011  -3.171  -6.802  0.00  0.00     0.164 C 
ATOM     15  S2  <0> d           0.026  -4.652  -7.799  0.00  0.00    -0.091 SA
ATOM     16  C16 <0> d           0.412  -3.866  -9.419  0.00  0.00     0.104 C 
ATOM     17  C15 <0> d          -0.031  -2.417  -9.081  0.00  0.00     0.162 C 
ATOM     18  N4  <0> d          -0.001  -2.182  -7.648  0.00  0.00    -0.266 NA
ENDBRANCH  12  14
ENDBRANCH   5  10
BRANCH   8  19
ATOM     19  C7  <0> d           0.052  -3.216   1.519  0.00  0.00     0.059 A 
ATOM     20  C12 <0> d           0.746  -3.157   2.720  0.00  0.00     0.031 A 
ATOM     21  C11 <0> d           0.757  -4.250   3.564  0.00  0.00     0.002 A 
ATOM     22  C10 <0> d           0.088  -5.407   3.209  0.00  0.00     0.000 A 
ATOM     23  C9  <0> d          -0.599  -5.471   2.010  0.00  0.00     0.002 A 
ATOM     24  C8  <0> d          -0.619  -4.379   1.165  0.00  0.00     0.031 A 
ENDBRANCH   8  19
TORSDOF 3
