REMARK  5 active torsions:
REMARK  status: ('A' for Active; 'I' for Inactive)
REMARK    1  A    between atoms: C2_2  and  C3_3 
REMARK    2  A    between atoms: C2_2  and  S1_11 
REMARK       I    between atoms: C3_3  and  N1_5 
REMARK    3  A    between atoms: S1_11  and  C7_12 
REMARK    4  A    between atoms: C8_15  and  C12_20 
REMARK    5  A    between atoms: N5_16  and  C9_17 
ROOT
ATOM      1  C7  <0> d           2.628  -0.030  -1.294  0.00  0.00     0.268 A 
ATOM      2  N3  <0> d           2.816   1.426  -1.188  0.00  0.00    -0.279 N 
ATOM      3  N4  <0> d           3.202   1.683   0.133  0.00  0.00    -0.158 NA
ATOM      4  C8  <0> d           3.270   0.579   0.830  0.00  0.00     0.157 A 
ATOM      5  N5  <0> d           2.939  -0.537   0.052  0.00  0.00    -0.328 N 
ATOM      6  H11 <0> d           2.696   2.080  -1.895  0.00  0.00     0.185 HD
ENDROOT
BRANCH   1   7
ATOM      7  S1  <0> d           0.912  -0.418  -1.738  0.00  0.00    -0.107 SA
BRANCH   7   8
ATOM      8  C2  <0> d          -0.068   0.371  -0.431  0.00  0.00     0.139 C 
ATOM      9  C1  <0> d           0.104   1.889  -0.511  0.00  0.00     0.031 C 
BRANCH   8  10
ATOM     10  C3  <0> d          -1.522   0.020  -0.613  0.00  0.00     0.241 C 
ATOM     11  O1  <0> d          -1.922  -0.368  -1.690  0.00  0.00    -0.272 OA
ATOM     12  N1  <0> d          -2.378   0.138   0.421  0.00  0.00    -0.268 N 
ATOM     13  C6  <0> d          -2.055   0.554   1.653  0.00  0.00     0.325 A 
ATOM     14  C4  <0> d          -3.814  -0.176   0.378  0.00  0.00     0.156 A 
ATOM     15  N2  <0> d          -3.089   0.587   2.503  0.00  0.00    -0.341 N 
ATOM     16  O2  <0> d          -0.926   0.875   1.968  0.00  0.00    -0.247 OA
ATOM     17  C5  <0> d          -4.302   0.133   1.807  0.00  0.00     0.145 A 
ATOM     18  H10 <0> d          -3.045   0.864   3.432  0.00  0.00     0.164 HD
ENDBRANCH   8  10
ENDBRANCH   7   8
ENDBRANCH   1   7
BRANCH   5  19
ATOM     19  C9  <0> d           2.907  -1.935   0.491  0.00  0.00     0.089 A 
ATOM     20  C11 <0> d           1.552  -2.646   0.487  0.00  0.00     0.027 A 
ATOM     21  C10 <0> d           2.605  -3.000  -0.566  0.00  0.00     0.027 A 
ENDBRANCH   5  19
BRANCH   4  22
ATOM     22  C12 <0> d           3.631   0.520   2.185  0.00  0.00     0.019 A 
ATOM     23  C19 <0> d           3.830  -0.722   3.025  0.00  0.00     0.163 A 
ATOM     24  N6  <0> d           4.202  -0.251   4.363  0.00  0.00    -0.385 N 
ATOM     25  C18 <0> d           4.224   1.068   4.369  0.00  0.00     0.039 A 
ATOM     26  H23 <0> d           4.396  -0.819   5.124  0.00  0.00     0.160 HD
ATOM     27  C13 <0> d           3.876   1.595   3.040  0.00  0.00     0.002 A 
ATOM     28  C17 <0> d           4.513   1.996   5.402  0.00  0.00     0.030 A 
ATOM     29  C14 <0> d           3.845   2.993   2.847  0.00  0.00     0.014 A 
ATOM     30  C15 <0> d           4.134   3.822   3.883  0.00  0.00     0.001 A 
ATOM     31  C16 <0> d           4.464   3.327   5.146  0.00  0.00     0.002 A 
ENDBRANCH   4  22
TORSDOF 5
