REMARK  8 active torsions:
REMARK  status: ('A' for Active; 'I' for Inactive)
REMARK    1  A    between atoms: C2_2  and  C4_4 
REMARK    2  A    between atoms: C4_4  and  C5_5 
REMARK    3  A    between atoms: C5_5  and  N1_6 
REMARK       I    between atoms: N1_6  and  C6_7 
REMARK    4  A    between atoms: C6_7  and  C7_9 
REMARK       I    between atoms: C7_9  and  N2_11 
REMARK    5  A    between atoms: N2_11  and  C8_12 
REMARK    6  A    between atoms: C8_12  and  C9_13 
REMARK    7  A    between atoms: C9_13  and  C10_14 
REMARK    8  A    between atoms: C9_13  and  N4_25 
ROOT
ATOM      1  C9  <0> d           3.096  -2.179   4.332  0.00  0.00     0.273 C 
ENDROOT
BRANCH   1   2
ATOM      2  C8  <0> d           3.218  -2.041   5.851  0.00  0.00     0.164 C 
BRANCH   2   3
ATOM      3  N2  <0> d           4.612  -2.249   6.251  0.00  0.00    -0.351 N 
ATOM      4  C7  <0> d           4.942  -2.273   7.557  0.00  0.00     0.309 C 
ATOM      5  O2  <0> d           4.085  -2.123   8.403  0.00  0.00    -0.262 OA
ATOM      6  H14 <0> d           5.389  -2.385   5.484  0.00  0.00     0.162 HD
BRANCH   4   7
ATOM      7  C6  <0> d           6.364  -2.485   7.965  0.00  0.00     0.309 C 
ATOM      8  N1  <0> d           6.694  -2.509   9.271  0.00  0.00    -0.353 N 
ATOM      9  H13 <0> d           5.917  -2.373  10.037  0.00  0.00     0.162 HD
ATOM     10  O1  <0> d           7.222  -2.635   7.119  0.00  0.00    -0.262 OA
BRANCH   8  11
ATOM     11  C5  <0> d           8.089  -2.717   9.670  0.00  0.00     0.123 C 
BRANCH  11  12
ATOM     12  C4  <0> d           8.190  -2.701  11.197  0.00  0.00     0.023 C 
BRANCH  12  13
ATOM     13  C2  <0> d           9.646  -2.918  11.614  0.00  0.00    -0.021 C 
ATOM     14  C1  <0> d          10.493  -1.736  11.140  0.00  0.00     0.009 C 
ATOM     15  C3  <0> d           9.729  -3.027  13.138  0.00  0.00     0.009 C 
ENDBRANCH  12  13
ENDBRANCH  11  12
ENDBRANCH   8  11
ENDBRANCH   4   7
ENDBRANCH   2   3
ENDBRANCH   1   2
BRANCH   1  16
ATOM     16  C10 <0> d           1.649  -2.054   3.931  0.00  0.00    -0.023 A 
ATOM     17  C15 <0> d           1.293  -1.238   2.875  0.00  0.00     0.018 A 
ATOM     18  C14 <0> d          -0.036  -1.118   2.497  0.00  0.00    -0.036 A 
ATOM     19  C13 <0> d          -1.012  -1.822   3.178  0.00  0.00     0.016 A 
ATOM     20  C16 <0> d          -0.367  -0.202   1.346  0.00  0.00     0.041 C 
ATOM     21  C12 <0> d          -0.646  -2.643   4.247  0.00  0.00     0.025 A 
ATOM     22  N3  <0> d          -2.365  -1.756   2.847  0.00  0.00    -0.287 NA
ATOM     23  C11 <0> d           0.676  -2.756   4.618  0.00  0.00     0.011 A 
ATOM     24  C18 <0> d          -2.709  -0.566   2.067  0.00  0.00     0.095 C 
ATOM     25  C19 <0> d          -3.206  -1.861   4.047  0.00  0.00     0.116 C 
ATOM     26  C17 <0> d          -1.783  -0.494   0.847  0.00  0.00     0.019 C 
ENDBRANCH   1  16
BRANCH   1  27
ATOM     27  N4  <0> d           3.608  -3.491   3.917  0.00  0.00     0.102 N 
ATOM     28  C23 <0> d           2.743  -4.573   4.408  0.00  0.00     0.301 C 
ATOM     29  C22 <0> d           3.352  -5.924   4.023  0.00  0.00     0.264 C 
ATOM     30  N5  <0> d           3.500  -5.993   2.563  0.00  0.00    -0.072 N 
ATOM     31  C21 <0> d           4.365  -4.912   2.072  0.00  0.00     0.264 C 
ATOM     32  C24 <0> d           4.012  -7.306   2.147  0.00  0.00     0.269 C 
ATOM     33  H40 <0> d           2.505  -5.862   2.113  0.00  0.00     0.279 HD
ATOM     34  C20 <0> d           3.757  -3.561   2.457  0.00  0.00     0.301 C 
ENDBRANCH   1  27
TORSDOF 8
