REMARK  5 active torsions:
REMARK  status: ('A' for Active; 'I' for Inactive)
REMARK    1  A    between atoms: N1_2  and  C3_4 
REMARK    2  A    between atoms: C5_6  and  C8_10 
REMARK    3  A    between atoms: C8_10  and  N3_11 
REMARK    4  A    between atoms: N3_11  and  S1_12 
REMARK    5  A    between atoms: S1_12  and  N4_15 
ROOT
ATOM      1  N3  <0> d          -2.372  -4.799   1.393  0.00  0.00    -0.298 N 
ATOM      2  H12 <0> d          -2.143  -4.199   2.120  0.00  0.00     0.174 HD
ENDROOT
BRANCH   1   3
ATOM      3  C8  <0> d          -2.377  -4.309   0.013  0.00  0.00     0.172 C 
BRANCH   3   4
ATOM      4  C5  <0> d          -2.362  -2.802   0.015  0.00  0.00    -0.035 A 
ATOM      5  C4  <0> d          -1.166  -2.107   0.008  0.00  0.00     0.057 A 
ATOM      6  C3  <0> d          -1.192  -0.715   0.010  0.00  0.00     0.102 A 
ATOM      7  N2  <0> d          -2.344  -0.063   0.024  0.00  0.00    -0.352 N 
ATOM      8  C7  <0> d          -3.500  -0.700   0.026  0.00  0.00     0.090 A 
ATOM      9  H25 <0> d          -2.339   0.907   0.029  0.00  0.00     0.166 HD
ATOM     10  C6  <0> d          -3.548  -2.080   0.025  0.00  0.00     0.026 A 
BRANCH   6  11
ATOM     11  N1  <0> d           0.002  -0.004   0.002  0.00  0.00    -0.376 N 
ATOM     12  C1  <0> d          -0.018   1.461   0.010  0.00  0.00     0.150 C 
ATOM     13  C2  <0> d           1.281  -0.719  -0.014  0.00  0.00     0.150 C 
ENDBRANCH   6  11
ENDBRANCH   3   4
ENDBRANCH   1   3
BRANCH   1  14
ATOM     14  S1  <0> d          -2.756  -6.378   1.712  0.00  0.00     0.317 S 
ATOM     15  O1  <0> d          -2.636  -6.549   3.118  0.00  0.00    -0.183 OA
ATOM     16  O2  <0> d          -3.962  -6.652   1.012  0.00  0.00    -0.183 OA
BRANCH  14  17
ATOM     17  N4  <0> d          -1.582  -7.318   1.019  0.00  0.00    -0.294 N 
ATOM     18  C14 <0> d          -0.391  -7.666   1.819  0.00  0.00     0.137 C 
ATOM     19  C13 <0> d           0.018  -9.142   1.631  0.00  0.00     0.021 C 
ATOM     20  C12 <0> d          -1.208 -10.021   1.584  0.00  0.00     0.002 C 
ATOM     21  C11 <0> d          -1.655 -10.188   0.135  0.00  0.00     0.002 C 
ATOM     22  C10 <0> d          -2.523  -9.108  -0.359  0.00  0.00     0.021 C 
ATOM     23  C9  <0> d          -1.763  -7.758  -0.346  0.00  0.00     0.137 C 
ENDBRANCH  14  17
ENDBRANCH   1  14
TORSDOF 5
