REMARK  8 active torsions:
REMARK  status: ('A' for Active; 'I' for Inactive)
REMARK    1  A    between atoms: C2_2  and  C3_3 
REMARK    2  A    between atoms: C3_3  and  N4_28 
REMARK    3  A    between atoms: C6_6  and  N1_9 
REMARK    4  A    between atoms: N1_9  and  C9_10 
REMARK    5  A    between atoms: C9_10  and  C10_11 
REMARK    6  A    between atoms: C9_10  and  C14_20 
REMARK    7  A    between atoms: C14_20  and  C15_21 
REMARK    8  A    between atoms: C15_21  and  O4_23 
ROOT
ATOM      1  C9  <0> d          -0.202   5.921  -0.117  0.00  0.00     0.073 C 
ENDROOT
BRANCH   1   2
ATOM      2  N1  <0> d          -1.415   6.484  -0.291  0.00  0.00    -0.288 NA
BRANCH   2   3
ATOM      3  C6  <0> d          -1.528   7.930  -0.496  0.00  0.00     0.111 C 
ATOM      4  C5  <0> d          -2.852   8.245  -1.199  0.00  0.00     0.055 C 
ATOM      5  C4  <0> d          -2.992   9.761  -1.356  0.00  0.00     0.237 C 
ATOM      6  N4  <0> d          -2.979  10.385  -0.016  0.00  0.00    -0.071 N 
ATOM      7  C8  <0> d          -1.677  10.148   0.642  0.00  0.00     0.237 C 
ATOM      8  H24 <0> d          -3.722   9.965   0.555  0.00  0.00     0.279 HD
ATOM      9  C7  <0> d          -1.497   8.643   0.859  0.00  0.00     0.055 C 
BRANCH   6  10
ATOM     10  C3  <0> d          -3.228  11.837  -0.133  0.00  0.00     0.234 C 
BRANCH  10  11
ATOM     11  C2  <0> d          -2.939  12.505   1.213  0.00  0.00     0.023 C 
ATOM     12  C1  <0> d          -3.221  14.005   1.109  0.00  0.00     0.007 C 
ENDBRANCH  10  11
ENDBRANCH   6  10
ENDBRANCH   2   3
ENDBRANCH   1   2
BRANCH   1  13
ATOM     13  C10 <0> d           0.066   5.198   1.030  0.00  0.00     0.221 A 
ATOM     14  C13 <0> d          -0.983   4.921   2.028  0.00  0.00     0.242 A 
ATOM     15  N3  <0> d          -0.650   4.205   3.121  0.00  0.00    -0.303 N 
ATOM     16  O2  <0> d          -2.120   5.324   1.867  0.00  0.00    -0.272 OA
ATOM     17  C12 <0> d           0.599   3.759   3.313  0.00  0.00     0.181 A 
ATOM     18  H20 <0> d          -1.330   4.011   3.786  0.00  0.00     0.171 HD
ATOM     19  N2  <0> d           1.601   3.973   2.449  0.00  0.00    -0.303 N 
ATOM     20  S1  <0> d           0.932   2.864   4.734  0.00  0.00    -0.040 SA
ATOM     21  C11 <0> d           1.413   4.670   1.309  0.00  0.00     0.242 A 
ATOM     22  H19 <0> d           2.482   3.619   2.648  0.00  0.00     0.171 HD
ATOM     23  O1  <0> d           2.331   4.858   0.533  0.00  0.00    -0.272 OA
ENDBRANCH   1  13
BRANCH   1  24
ATOM     24  C14 <0> d           0.861   6.079  -1.173  0.00  0.00     0.317 C 
ATOM     25  F1  <0> d           0.255   6.304  -2.414  0.00  0.00    -0.232 F 
BRANCH  24  26
ATOM     26  C15 <0> d           1.744   7.250  -0.826  0.00  0.00     0.298 C 
ATOM     27  O3  <0> d           1.254   8.276  -0.417  0.00  0.00    -0.262 OA
BRANCH  26  28
ATOM     28  O4  <0> d           3.075   7.153  -0.971  0.00  0.00    -0.324 OA
ATOM     29  C16 <0> d           3.863   8.319  -0.617  0.00  0.00     0.213 C 
ENDBRANCH  26  28
ENDBRANCH  24  26
ENDBRANCH   1  24
TORSDOF 8
