REMARK  4 active torsions:
REMARK  status: ('A' for Active; 'I' for Inactive)
REMARK    1  A    between atoms: C4_4  and  N2_19 
REMARK    2  A    between atoms: C7_7  and  N1_8 
REMARK       I    between atoms: N1_8  and  C8_9 
REMARK    3  A    between atoms: C8_9  and  C9_11 
REMARK    4  A    between atoms: C12_14  and  C13_16 
ROOT
ATOM      1  C1  <0> d          -2.313   6.915  -3.836  0.00  0.00     0.050 C 
ATOM      2  C2  <0> d          -2.149   5.427  -3.665  0.00  0.00    -0.034 A 
ATOM      3  C3  <0> d          -1.541   4.926  -2.531  0.00  0.00     0.032 A 
ATOM      4  C4  <0> d          -1.389   3.554  -2.373  0.00  0.00     0.011 A 
ATOM      5  C5  <0> d          -1.845   2.687  -3.359  0.00  0.00     0.026 A 
ATOM      6  C6  <0> d          -2.457   3.188  -4.489  0.00  0.00     0.032 A 
ATOM      7  C7  <0> d          -2.609   4.560  -4.647  0.00  0.00     0.041 A 
ENDROOT
BRANCH   7   8
ATOM      8  N1  <0> d          -3.226   5.069  -5.796  0.00  0.00    -0.322 N 
ATOM      9  C8  <0> d          -4.095   4.306  -6.489  0.00  0.00     0.263 C 
ATOM     10  O1  <0> d          -4.420   3.214  -6.061  0.00  0.00    -0.267 OA
ATOM     11  H7  <0> d          -3.029   5.970  -6.095  0.00  0.00     0.169 HD
BRANCH   9  12
ATOM     12  C9  <0> d          -4.651   4.793  -7.762  0.00  0.00     0.073 A 
ATOM     13  S1  <0> d          -4.343   6.338  -8.601  0.00  0.00    -0.081 SA
ATOM     14  C12 <0> d          -5.402   6.077 -10.015  0.00  0.00     0.051 A 
ATOM     15  C11 <0> d          -5.930   4.816  -9.756  0.00  0.00     0.024 A 
ATOM     16  C10 <0> d          -5.545   4.166  -8.620  0.00  0.00     0.026 A 
BRANCH  14  17
ATOM     17  C13 <0> d          -5.651   6.962 -11.152  0.00  0.00     0.162 C 
ATOM     18  O2  <0> d          -6.411   6.618 -12.033  0.00  0.00    -0.292 OA
ATOM     19  C14 <0> d          -4.963   8.301 -11.230  0.00  0.00     0.097 C 
ENDBRANCH  14  17
ENDBRANCH   9  12
ENDBRANCH   7   8
BRANCH   4  20
ATOM     20  N2  <0> d          -0.773   3.046  -1.225  0.00  0.00    -0.280 NA
ATOM     21  C18 <0> d          -1.456   3.513  -0.010  0.00  0.00     0.123 C 
ATOM     22  C17 <0> d          -0.706   3.002   1.222  0.00  0.00     0.249 C 
ATOM     23  N3  <0> d          -0.676   1.524   1.183  0.00  0.00    -0.073 N 
ATOM     24  C16 <0> d           0.033   1.067  -0.031  0.00  0.00     0.249 C 
ATOM     25  C19 <0> d          -0.002   1.000   2.390  0.00  0.00     0.269 C 
ATOM     26  H24 <0> d          -1.640   1.171   1.159  0.00  0.00     0.279 HD
ATOM     27  C15 <0> d          -0.717   1.578  -1.263  0.00  0.00     0.123 C 
ENDBRANCH   4  20
TORSDOF 4
