REMARK  7 active torsions:
REMARK  status: ('A' for Active; 'I' for Inactive)
REMARK    1  A    between atoms: N1_2  and  C3_4 
REMARK    2  A    between atoms: C3_4  and  C4_5 
REMARK    3  A    between atoms: C4_5  and  N2_6 
REMARK    4  A    between atoms: N3_9  and  C9_12 
REMARK    5  A    between atoms: C9_12  and  C10_13 
REMARK    6  A    between atoms: C12_15  and  N4_20 
REMARK    7  A    between atoms: C15_18  and  O1_19 
ROOT
ATOM      1  N2  <0> d          -3.456  -0.619  -1.276  0.00  0.00     0.093 N 
ATOM      2  C5  <0> d          -4.253   0.041  -0.232  0.00  0.00     0.302 C 
ATOM      3  C6  <0> d          -5.656  -0.571  -0.201  0.00  0.00     0.303 C 
ATOM      4  N3  <0> d          -6.285  -0.413  -1.520  0.00  0.00     0.096 N 
ATOM      5  C7  <0> d          -5.488  -1.073  -2.563  0.00  0.00     0.303 C 
ATOM      6  C8  <0> d          -4.086  -0.461  -2.594  0.00  0.00     0.302 C 
ENDROOT
BRANCH   4   7
ATOM      7  C9  <0> d          -7.663  -0.921  -1.509  0.00  0.00     0.314 C 
BRANCH   7   8
ATOM      8  C10 <0> d          -8.355  -0.525  -2.788  0.00  0.00     0.005 A 
ATOM      9  C15 <0> d          -8.773   0.784  -2.973  0.00  0.00     0.073 A 
ATOM     10  C14 <0> d          -9.405   1.151  -4.152  0.00  0.00     0.039 A 
ATOM     11  C13 <0> d          -9.628   0.211  -5.139  0.00  0.00     0.031 A 
ATOM     12  C12 <0> d          -9.214  -1.102  -4.952  0.00  0.00     0.026 A 
ATOM     13  C11 <0> d          -8.577  -1.467  -3.774  0.00  0.00     0.040 A 
BRANCH   9  14
ATOM     14  O1  <0> d          -8.559   1.710  -2.000  0.00  0.00    -0.360 OA
ATOM     15  H24 <0> d          -7.715   2.176  -2.080  0.00  0.00     0.217 HD
ENDBRANCH   9  14
BRANCH  12  16
ATOM     16  N4  <0> d          -9.439  -2.055  -5.951  0.00  0.00    -0.399 N 
ATOM     17  H25 <0> d          -9.149  -2.972  -5.821  0.00  0.00     0.156 HD
ATOM     18  H26 <0> d          -9.884  -1.800  -6.774  0.00  0.00     0.156 HD
ENDBRANCH  12  16
ENDBRANCH   7   8
ENDBRANCH   4   7
BRANCH   1  19
ATOM     19  C4  <0> d          -2.078  -0.110  -1.286  0.00  0.00     0.300 C 
BRANCH  19  20
ATOM     20  C3  <0> d          -1.376  -0.512   0.012  0.00  0.00     0.264 C 
BRANCH  20  21
ATOM     21  N1  <0> d           0.002  -0.004   0.002  0.00  0.00    -0.077 N 
ATOM     22  C1  <0> d          -0.018   1.465   0.010  0.00  0.00     0.269 C 
ATOM     23  C2  <0> d           0.713  -0.491   1.192  0.00  0.00     0.269 C 
ATOM     24  H27 <0> d           0.474  -0.330  -0.828  0.00  0.00     0.279 HD
ENDBRANCH  20  21
ENDBRANCH  19  20
ENDBRANCH   1  19
TORSDOF 7
