REMARK  5 active torsions:
REMARK  status: ('A' for Active; 'I' for Inactive)
REMARK    1  A    between atoms: C3_3  and  C14_15 
REMARK    2  A    between atoms: N1_10  and  C10_11 
REMARK    3  A    between atoms: C10_11  and  C11_12 
REMARK    4  A    between atoms: C14_15  and  N2_16 
REMARK    5  A    between atoms: N3_19  and  C19_22 
ROOT
ATOM      1  N2  <0> d           0.539  -1.795  -3.308  0.00  0.00    -0.067 N 
ATOM      2  C15 <0> d           0.792  -0.609  -4.136  0.00  0.00     0.254 C 
ATOM      3  C16 <0> d           1.601  -1.015  -5.372  0.00  0.00     0.150 C 
ATOM      4  N3  <0> d           0.885  -2.098  -6.064  0.00  0.00    -0.376 N 
ATOM      5  C17 <0> d           0.448  -3.257  -5.271  0.00  0.00     0.150 C 
ATOM      6  C18 <0> d          -0.307  -2.745  -4.040  0.00  0.00     0.254 C 
ATOM      7  H32 <0> d           1.417  -2.236  -3.079  0.00  0.00     0.280 HD
ENDROOT
BRANCH   1   8
ATOM      8  C14 <0> d          -0.141  -1.389  -2.070  0.00  0.00     0.246 C 
BRANCH   8   9
ATOM      9  C3  <0> d           0.790  -0.497  -1.246  0.00  0.00     0.069 A 
ATOM     10  C2  <0> d           0.058   0.042  -0.006  0.00  0.00     0.090 A 
ATOM     11  C1  <0> d           0.072   1.571  -0.004  0.00  0.00     0.033 C 
ATOM     12  N1  <0> d           0.809  -0.475   1.141  0.00  0.00    -0.375 N 
ATOM     13  C9  <0> d           1.887  -1.246   0.697  0.00  0.00     0.037 A 
ATOM     14  C4  <0> d           1.940  -1.304  -0.686  0.00  0.00    -0.024 A 
ATOM     15  C8  <0> d           2.857  -1.922   1.442  0.00  0.00     0.030 A 
ATOM     16  C5  <0> d           2.937  -2.021  -1.320  0.00  0.00     0.010 A 
ATOM     17  C6  <0> d           3.893  -2.687  -0.577  0.00  0.00     0.001 A 
ATOM     18  C7  <0> d           3.850  -2.635   0.805  0.00  0.00     0.002 A 
BRANCH  12  19
ATOM     19  C10 <0> d           0.478  -0.220   2.545  0.00  0.00     0.127 C 
BRANCH  19  20
ATOM     20  C11 <0> d          -0.472  -1.308   3.051  0.00  0.00    -0.005 C 
ATOM     21  C12 <0> d           0.248  -2.658   3.043  0.00  0.00     0.011 C 
ATOM     22  C13 <0> d          -0.916  -0.975   4.476  0.00  0.00     0.011 C 
ENDBRANCH  19  20
ENDBRANCH  12  19
ENDBRANCH   8   9
ENDBRANCH   1   8
BRANCH   4  23
ATOM     23  C19 <0> d           0.630  -2.027  -7.422  0.00  0.00     0.055 A 
ATOM     24  C22 <0> d           0.929  -0.878  -8.130  0.00  0.00     0.106 A 
ATOM     25  C21 <0> d           0.664  -0.838  -9.506  0.00  0.00     0.263 A 
ATOM     26  N5  <0> d           0.116  -1.911 -10.110  0.00  0.00    -0.244 N 
ATOM     27  O1  <0> d           0.924   0.165 -10.152  0.00  0.00    -0.267 OA
ATOM     28  N4  <0> d          -0.184  -3.063  -9.376  0.00  0.00    -0.182 NA
ATOM     29  H31 <0> d          -0.071  -1.883 -11.061  0.00  0.00     0.192 HD
ATOM     30  C20 <0> d           0.057  -3.127  -8.097  0.00  0.00     0.168 A 
ENDBRANCH   4  23
TORSDOF 5
