REMARK  7 active torsions:
REMARK  status: ('A' for Active; 'I' for Inactive)
REMARK    1  A    between atoms: C2_2  and  C3_3 
REMARK    2  A    between atoms: C2_2  and  N1_10 
REMARK    3  A    between atoms: N1_10  and  S1_11 
REMARK    4  A    between atoms: S1_11  and  C9_14 
REMARK    5  A    between atoms: C12_17  and  C13_19 
REMARK    6  A    between atoms: C13_19  and  C14_20 
REMARK    7  A    between atoms: C14_20  and  N2_21 
ROOT
ATOM      1  S1  <0> d           2.322  -0.861   1.097  0.00  0.00     0.266 S 
ATOM      2  O1  <0> d           2.719  -1.271   2.398  0.00  0.00    -0.200 OA
ATOM      3  O2  <0> d           2.483  -1.690  -0.045  0.00  0.00    -0.200 OA
ENDROOT
BRANCH   1   4
ATOM      4  N1  <0> d           0.711  -0.489   1.189  0.00  0.00    -0.306 N 
ATOM      5  H9  <0> d           0.236  -0.593   2.029  0.00  0.00     0.173 HD
BRANCH   4   6
ATOM      6  C2  <0> d           0.002  -0.004   0.002  0.00  0.00     0.122 C 
ATOM      7  C1  <0> d          -0.019   1.526   0.010  0.00  0.00     0.038 C 
BRANCH   6   8
ATOM      8  C3  <0> d          -1.412  -0.526   0.013  0.00  0.00    -0.034 A 
ATOM      9  C8  <0> d          -1.999  -0.954  -1.163  0.00  0.00     0.033 A 
ATOM     10  C7  <0> d          -3.295  -1.438  -1.152  0.00  0.00     0.034 A 
ATOM     11  C6  <0> d          -4.006  -1.483   0.034  0.00  0.00     0.024 A 
ATOM     12 Cl1  <0> d          -4.031  -1.983  -2.627  0.00  0.00    -0.084 Cl
ATOM     13  C5  <0> d          -3.420  -1.049   1.208  0.00  0.00     0.002 A 
ATOM     14  C4  <0> d          -2.123  -0.571   1.198  0.00  0.00     0.009 A 
ENDBRANCH   6   8
ENDBRANCH   4   6
ENDBRANCH   1   4
BRANCH   1  15
ATOM     15  C9  <0> d           3.183   0.638   0.757  0.00  0.00     0.120 A 
ATOM     16  S2  <0> d           3.603   1.360  -0.821  0.00  0.00    -0.081 SA
ATOM     17  C12 <0> d           4.437   2.818  -0.217  0.00  0.00    -0.015 A 
ATOM     18  C11 <0> d           4.348   2.656   1.126  0.00  0.00     0.017 A 
ATOM     19  C10 <0> d           3.705   1.538   1.625  0.00  0.00     0.034 A 
BRANCH  17  20
ATOM     20  C13 <0> d           5.079   3.936  -0.997  0.00  0.00     0.073 C 
BRANCH  20  21
ATOM     21  C14 <0> d           6.546   3.594  -1.266  0.00  0.00     0.234 C 
BRANCH  21  22
ATOM     22  N2  <0> d           7.171   4.684  -2.026  0.00  0.00    -0.079 N 
ATOM     23  H16 <0> d           6.688   4.803  -2.904  0.00  0.00     0.274 HD
ATOM     24  H17 <0> d           7.117   5.540  -1.494  0.00  0.00     0.274 HD
ATOM     25  H18 <0> d           8.139   4.459  -2.203  0.00  0.00     0.274 HD
ENDBRANCH  21  22
ENDBRANCH  20  21
ENDBRANCH  17  20
ENDBRANCH   1  15
TORSDOF 7
