REMARK  4 active torsions:
REMARK  status: ('A' for Active; 'I' for Inactive)
REMARK    1  A    between atoms: C3_3  and  C6_9 
REMARK    2  A    between atoms: C6_9  and  C7_11 
REMARK    3  A    between atoms: C7_11  and  C8_12 
REMARK    4  A    between atoms: C8_12  and  O3_24 
ROOT
ATOM      1  C8  <0> d           0.908   1.612  -0.066  0.00  0.00     0.175 A 
ATOM      2  C9  <0> d           0.174   2.933  -0.105  0.00  0.00     0.014 A 
ATOM      3  C10 <0> d           0.593   4.231  -0.294  0.00  0.00     0.032 A 
ATOM      4  C11 <0> d          -0.331   5.263  -0.278  0.00  0.00     0.011 A 
ATOM      5  C12 <0> d          -1.671   4.984  -0.074  0.00  0.00     0.021 A 
ATOM      6  C13 <0> d          -2.091   3.684   0.115  0.00  0.00     0.032 A 
ATOM      7  C14 <0> d          -1.168   2.640   0.101  0.00  0.00     0.046 A 
ATOM      8  N3  <0> d          -1.343   1.265   0.259  0.00  0.00    -0.319 N 
ATOM      9  C15 <0> d          -0.183   0.592   0.182  0.00  0.00     0.264 A 
ATOM     10  O2  <0> d          -0.037  -0.608   0.286  0.00  0.00    -0.269 OA
ATOM     11  C16 <0> d          -2.643   0.628   0.487  0.00  0.00     0.159 C 
ATOM     12 Br1  <0> d           0.238   7.048  -0.535  0.00  0.00    -0.051 Br
ENDROOT
BRANCH   1  13
ATOM     13  C7  <0> d           1.927   1.596   1.076  0.00  0.00     0.137 C 
BRANCH  13  14
ATOM     14  C6  <0> d           2.576   0.238   1.151  0.00  0.00     0.167 C 
ATOM     15  O1  <0> d           2.335  -0.597   0.303  0.00  0.00    -0.292 OA
BRANCH  14  16
ATOM     16  C3  <0> d           3.498  -0.075   2.248  0.00  0.00     0.059 A 
ATOM     17  C2  <0> d           4.871   0.099   2.244  0.00  0.00     0.040 A 
ATOM     18  C1  <0> d           5.698   0.647   1.109  0.00  0.00     0.071 C 
ATOM     19  N2  <0> d           5.330  -0.306   3.437  0.00  0.00    -0.281 N 
ATOM     20  N1  <0> d           4.247  -0.750   4.204  0.00  0.00    -0.179 NA
ATOM     21  H1  <0> d           6.286  -0.292   3.730  0.00  0.00     0.189 HD
ATOM     22  C4  <0> d           3.152  -0.619   3.508  0.00  0.00     0.066 A 
ATOM     23  C5  <0> d           1.763  -0.982   3.965  0.00  0.00     0.073 C 
ENDBRANCH  14  16
ENDBRANCH  13  14
ENDBRANCH   1  13
BRANCH   1  24
ATOM     24  O3  <0> d           1.554   1.361  -1.315  0.00  0.00    -0.375 OA
ATOM     25  H16 <0> d           1.991   0.499  -1.366  0.00  0.00     0.211 HD
ENDBRANCH   1  24
TORSDOF 4
