REMARK  5 active torsions:
REMARK  status: ('A' for Active; 'I' for Inactive)
REMARK    1  A    between atoms: O1_2  and  C2_3 
REMARK    2  A    between atoms: C2_3  and  C3_4 
REMARK    3  A    between atoms: C3_4  and  N1_5 
REMARK    4  A    between atoms: N1_5  and  C4_6 
REMARK    5  A    between atoms: N2_8  and  C5_9 
ROOT
ATOM      1  C4  <0> d          -1.069  -3.863  -1.307  0.00  0.00     0.172 C 
ATOM      2  S1  <0> d           0.206  -4.992  -1.475  0.00  0.00    -0.041 SA
ATOM      3  N2  <0> d          -2.333  -4.295  -1.126  0.00  0.00    -0.332 N 
ATOM      4  H9  <0> d          -3.046  -3.657  -0.969  0.00  0.00     0.168 HD
ENDROOT
BRANCH   3   5
ATOM      5  C5  <0> d          -2.616  -5.665  -1.165  0.00  0.00     0.051 A 
ATOM      6  C10 <0> d          -3.688  -6.133  -1.912  0.00  0.00     0.033 A 
ATOM      7  C9  <0> d          -3.962  -7.487  -1.952  0.00  0.00     0.020 A 
ATOM      8  I1  <0> d          -4.885  -4.790  -2.985  0.00  0.00    -0.042 I 
ATOM      9  C8  <0> d          -3.176  -8.374  -1.240  0.00  0.00     0.001 A 
ATOM     10  C7  <0> d          -2.110  -7.910  -0.490  0.00  0.00     0.002 A 
ATOM     11  C6  <0> d          -1.828  -6.559  -0.451  0.00  0.00     0.031 A 
ENDBRANCH   3   5
BRANCH   1  12
ATOM     12  N1  <0> d          -0.810  -2.541  -1.357  0.00  0.00    -0.365 N 
ATOM     13  H8  <0> d          -1.533  -1.901  -1.262  0.00  0.00     0.161 HD
BRANCH  12  14
ATOM     14  C3  <0> d           0.563  -2.071  -1.554  0.00  0.00     0.148 C 
BRANCH  14  15
ATOM     15  C2  <0> d           0.581  -0.541  -1.572  0.00  0.00     0.186 C 
BRANCH  15  16
ATOM     16  O1  <0> d           0.192  -0.045  -0.290  0.00  0.00    -0.394 OA
ATOM     17  C1  <0> d           0.176   1.381  -0.199  0.00  0.00     0.201 C 
ENDBRANCH  15  16
ENDBRANCH  14  15
ENDBRANCH  12  14
ENDBRANCH   1  12
TORSDOF 5
