REMARK  8 active torsions:
REMARK  status: ('A' for Active; 'I' for Inactive)
REMARK    1  A    between atoms: C2_2  and  C4_4 
REMARK    2  A    between atoms: C4_4  and  C5_5 
REMARK    3  A    between atoms: C4_4  and  N5_24 
REMARK    4  A    between atoms: C5_5  and  N1_6 
REMARK       I    between atoms: N1_6  and  C6_7 
REMARK    5  A    between atoms: C6_7  and  C7_9 
REMARK       I    between atoms: C7_9  and  N2_11 
REMARK    6  A    between atoms: N2_11  and  C8_12 
REMARK    7  A    between atoms: C13_17  and  C14_18 
REMARK    8  A    between atoms: C14_18  and  N3_19 
ROOT
ATOM      1  C7  <0> d          -5.752   0.420  -1.371  0.00  0.00     0.313 C 
ATOM      2  O2  <0> d          -6.125   0.371  -0.217  0.00  0.00    -0.262 OA
ATOM      3  N2  <0> d          -6.656   0.477  -2.369  0.00  0.00    -0.318 N 
ATOM      4  H12 <0> d          -6.359   0.472  -3.292  0.00  0.00     0.169 HD
ENDROOT
BRANCH   1   5
ATOM      5  C6  <0> d          -4.292   0.416  -1.685  0.00  0.00     0.309 C 
ATOM      6  N1  <0> d          -3.389   0.359  -0.686  0.00  0.00    -0.351 N 
ATOM      7  H11 <0> d          -3.687   0.320   0.236  0.00  0.00     0.162 HD
ATOM      8  O1  <0> d          -3.919   0.465  -2.838  0.00  0.00    -0.262 OA
BRANCH   6   9
ATOM      9  C5  <0> d          -1.956   0.355  -0.994  0.00  0.00     0.159 C 
BRANCH   9  10
ATOM     10  C4  <0> d          -1.158   0.159   0.296  0.00  0.00     0.244 C 
BRANCH  10  11
ATOM     11  C2  <0> d           0.328   0.014  -0.040  0.00  0.00     0.012 C 
ATOM     12  C1  <0> d           0.793   1.239  -0.830  0.00  0.00     0.012 C 
ATOM     13  C3  <0> d           1.135  -0.096   1.254  0.00  0.00     0.012 C 
ENDBRANCH  10  11
BRANCH  10  14
ATOM     14  N5  <0> d          -1.625  -1.054   0.982  0.00  0.00     0.099 N 
ATOM     15  C21 <0> d          -1.009  -2.257   0.403  0.00  0.00     0.299 C 
ATOM     16  C20 <0> d          -1.567  -3.497   1.104  0.00  0.00     0.198 C 
ATOM     17  O3  <0> d          -1.330  -3.391   2.510  0.00  0.00    -0.388 OA
ATOM     18  C19 <0> d          -1.917  -2.231   3.107  0.00  0.00     0.198 C 
ATOM     19  C18 <0> d          -1.362  -0.977   2.426  0.00  0.00     0.299 C 
ENDBRANCH  10  14
ENDBRANCH   9  10
ENDBRANCH   6   9
ENDBRANCH   1   5
BRANCH   3  20
ATOM     20  C8  <0> d          -8.020   0.544  -2.074  0.00  0.00     0.043 A 
ATOM     21  C13 <0> d          -8.891   1.185  -2.946  0.00  0.00    -0.012 A 
ATOM     22  C12 <0> d         -10.239   1.244  -2.654  0.00  0.00     0.011 A 
ATOM     23  C11 <0> d         -10.721   0.676  -1.489  0.00  0.00     0.001 A 
ATOM     24  C10 <0> d          -9.857   0.043  -0.615  0.00  0.00     0.002 A 
ATOM     25  C9  <0> d          -8.508  -0.025  -0.904  0.00  0.00     0.030 A 
BRANCH  21  26
ATOM     26  C14 <0> d          -8.365   1.809  -4.213  0.00  0.00     0.191 C 
BRANCH  26  27
ATOM     27  N3  <0> d          -8.286   0.791  -5.263  0.00  0.00    -0.277 N 
ATOM     28  N4  <0> d          -7.601  -0.428  -5.179  0.00  0.00    -0.185 NA
ATOM     29  C17 <0> d          -7.763  -1.067  -6.309  0.00  0.00     0.140 A 
ATOM     30  C16 <0> d          -8.547  -0.272  -7.152  0.00  0.00     0.040 A 
ATOM     31  C15 <0> d          -8.855   0.864  -6.485  0.00  0.00     0.114 A 
ENDBRANCH  26  27
ENDBRANCH  21  26
ENDBRANCH   3  20
TORSDOF 8
