REMARK  5 active torsions:
REMARK  status: ('A' for Active; 'I' for Inactive)
REMARK    1  A    between atoms: C2_2  and  C3_3 
REMARK    2  A    between atoms: C3_3  and  C5_5 
REMARK    3  A    between atoms: C5_5  and  N1_6 
REMARK       I    between atoms: N1_6  and  C6_7 
REMARK    4  A    between atoms: C6_7  and  C7_9 
REMARK       I    between atoms: N2_11  and  C15_19 
REMARK    5  A    between atoms: C15_19  and  C16_21 
ROOT
ATOM      1  C7  <0> d          -3.467  -4.319   0.190  0.00  0.00     0.106 C 
ATOM      2  C8  <0> d          -4.722  -4.033  -0.666  0.00  0.00     0.140 C 
ATOM      3  N2  <0> d          -4.764  -5.141  -1.650  0.00  0.00    -0.350 N 
ATOM      4  C9  <0> d          -4.354  -6.337  -0.876  0.00  0.00     0.136 C 
ATOM      5  C10 <0> d          -3.232  -5.832   0.052  0.00  0.00    -0.007 C 
ATOM      6  C11 <0> d          -1.868  -6.100  -0.577  0.00  0.00     0.039 C 
ATOM      7  C12 <0> d          -1.633  -7.611  -0.651  0.00  0.00     0.233 C 
ATOM      8  N3  <0> d          -1.692  -8.184   0.699  0.00  0.00    -0.075 N 
ATOM      9  C13 <0> d          -3.036  -8.003   1.262  0.00  0.00     0.233 C 
ATOM     10  C14 <0> d          -3.330  -6.509   1.416  0.00  0.00     0.039 C 
ATOM     11  C15 <0> d          -5.099  -5.075  -2.954  0.00  0.00     0.223 C 
ATOM     12  O2  <0> d          -5.338  -4.002  -3.465  0.00  0.00    -0.273 OA
ATOM     13  H22 <0> d          -1.477  -9.169   0.655  0.00  0.00     0.277 HD
ATOM     14  H34 <0> d          -1.017  -7.721   1.289  0.00  0.00     0.277 HD
ENDROOT
BRANCH   1  15
ATOM     15  C6  <0> d          -2.284  -3.553  -0.342  0.00  0.00     0.224 C 
ATOM     16  N1  <0> d          -1.298  -3.170   0.494  0.00  0.00    -0.360 N 
ATOM     17  H13 <0> d          -1.351  -3.387   1.438  0.00  0.00     0.162 HD
ATOM     18  O1  <0> d          -2.217  -3.281  -1.522  0.00  0.00    -0.273 OA
BRANCH  16  19
ATOM     19  C5  <0> d          -0.147  -2.425  -0.024  0.00  0.00     0.126 C 
BRANCH  19  20
ATOM     20  C3  <0> d           0.817  -2.116   1.123  0.00  0.00    -0.001 C 
ATOM     21  C4  <0> d           0.139  -1.173   2.119  0.00  0.00     0.011 C 
BRANCH  20  22
ATOM     22  C2  <0> d           2.076  -1.449   0.565  0.00  0.00     0.001 C 
ATOM     23  C1  <0> d           3.092  -1.253   1.693  0.00  0.00     0.005 C 
ENDBRANCH  20  22
ENDBRANCH  19  20
ENDBRANCH  16  19
ENDBRANCH   1  15
BRANCH  11  24
ATOM     24  C16 <0> d          -5.175  -6.335  -3.776  0.00  0.00     0.070 C 
ATOM     25  C17 <0> d          -6.565  -6.958  -3.628  0.00  0.00     0.019 C 
ATOM     26  C18 <0> d          -4.920  -6.001  -5.247  0.00  0.00     0.019 C 
ENDBRANCH  11  24
TORSDOF 5
