REMARK  4 active torsions:
REMARK  status: ('A' for Active; 'I' for Inactive)
REMARK    1  A    between atoms: C2_2  and  C3_3 
REMARK    2  A    between atoms: C2_2  and  N3_14 
REMARK       I    between atoms: C3_3  and  N1_5 
REMARK       I    between atoms: N1_5  and  C4_6 
REMARK       I    between atoms: C4_6  and  N2_8 
REMARK    3  A    between atoms: N2_8  and  C5_9 
REMARK    4  A    between atoms: C5_9  and  C6_10 
ROOT
ATOM      1  C1  <0> d          -0.970   3.465  -0.783  0.00  0.00     0.050 C 
ATOM      2  C2  <0> d          -0.791   1.984  -1.124  0.00  0.00     0.276 C 
ENDROOT
BRANCH   2   3
ATOM      3  C3  <0> d          -2.140   1.312  -1.165  0.00  0.00     0.256 C 
ATOM      4  O1  <0> d          -2.463   0.548  -0.281  0.00  0.00    -0.271 OA
ATOM      5  N1  <0> d          -2.986   1.560  -2.184  0.00  0.00    -0.278 N 
ATOM      6  C4  <0> d          -4.192   0.960  -2.220  0.00  0.00     0.323 C 
ATOM      7  H5  <0> d          -2.693   2.254  -2.986  0.00  0.00     0.173 HD
ATOM      8  O2  <0> d          -4.516   0.194  -1.334  0.00  0.00    -0.247 OA
ATOM      9  N2  <0> d          -5.038   1.208  -3.239  0.00  0.00    -0.334 N 
ATOM     10  H6  <0> d          -4.745   1.901  -4.041  0.00  0.00     0.164 HD
BRANCH   9  11
ATOM     11  C5  <0> d          -6.349   0.554  -3.278  0.00  0.00     0.241 C 
BRANCH  11  12
ATOM     12  C6  <0> d          -7.106   1.005  -4.529  0.00  0.00     0.403 C 
ATOM     13  F1  <0> d          -6.375   0.653  -5.669  0.00  0.00    -0.169 F 
ATOM     14  F2  <0> d          -8.358   0.381  -4.567  0.00  0.00    -0.169 F 
ATOM     15  F3  <0> d          -7.278   2.393  -4.495  0.00  0.00    -0.169 F 
ENDBRANCH  11  12
ENDBRANCH   9  11
ENDBRANCH   2   3
BRANCH   2  16
ATOM     16  N3  <0> d           0.045   1.343  -0.101  0.00  0.00    -0.054 N 
ATOM     17  C15 <0> d           1.447   1.748  -0.238  0.00  0.00     0.275 C 
ATOM     18  C14 <0> d           2.277   1.165   0.875  0.00  0.00    -0.026 A 
ATOM     19  C9  <0> d           1.704   0.678   2.031  0.00  0.00    -0.049 A 
ATOM     20  C13 <0> d           3.655   1.124   0.721  0.00  0.00     0.009 A 
ATOM     21  C8  <0> d           0.211   0.691   2.240  0.00  0.00     0.067 C 
ATOM     22  C10 <0> d           2.508   0.156   3.033  0.00  0.00     0.007 A 
ATOM     23  C7  <0> d          -0.446   1.655   1.252  0.00  0.00     0.241 C 
ATOM     24  C11 <0> d           3.879   0.117   2.878  0.00  0.00     0.001 A 
ATOM     25  C12 <0> d           4.454   0.602   1.717  0.00  0.00     0.001 A 
ATOM     26  H19 <0> d          -0.016   0.256  -0.253  0.00  0.00     0.281 HD
ENDBRANCH   2  16
TORSDOF 4
