REMARK  6 active torsions:
REMARK  status: ('A' for Active; 'I' for Inactive)
REMARK    1  A    between atoms: N1_2  and  S1_3 
REMARK    2  A    between atoms: S1_3  and  C2_6 
REMARK    3  A    between atoms: C2_6  and  C3_7 
REMARK    4  A    between atoms: C3_7  and  N2_8 
REMARK    5  A    between atoms: N2_8  and  S2_9 
REMARK    6  A    between atoms: S2_9  and  C4_12 
ROOT
ATOM      1  S2  <0> d          -0.256  -1.755   6.486  0.00  0.00     0.258 S 
ATOM      2  O3  <0> d          -1.126  -1.194   7.459  0.00  0.00    -0.201 OA
ATOM      3  O4  <0> d          -0.338  -3.116   6.085  0.00  0.00    -0.201 OA
ENDROOT
BRANCH   1   4
ATOM      4  N2  <0> d          -0.431  -0.846   5.113  0.00  0.00    -0.315 N 
ATOM      5  H9  <0> d          -1.058  -0.106   5.099  0.00  0.00     0.172 HD
BRANCH   4   6
ATOM      6  C3  <0> d           0.361  -1.158   3.921  0.00  0.00     0.149 C 
BRANCH   6   7
ATOM      7  C2  <0> d          -0.238  -0.442   2.709  0.00  0.00     0.183 C 
BRANCH   7   8
ATOM      8  S1  <0> d           0.742  -0.829   1.233  0.00  0.00     0.227 S 
ATOM      9  O1  <0> d           0.592  -2.200   0.891  0.00  0.00    -0.206 OA
ATOM     10  O2  <0> d           2.033  -0.245   1.335  0.00  0.00    -0.206 OA
BRANCH   8  11
ATOM     11  N1  <0> d           0.002  -0.004   0.002  0.00  0.00    -0.324 N 
ATOM     12  C1  <0> d          -0.018   1.461   0.010  0.00  0.00     0.159 C 
ATOM     13  H4  <0> d          -0.418  -0.491  -0.724  0.00  0.00     0.171 HD
ENDBRANCH   8  11
ENDBRANCH   7   8
ENDBRANCH   6   7
ENDBRANCH   4   6
ENDBRANCH   1   4
BRANCH   1  14
ATOM     14  C4  <0> d           1.386  -1.502   7.073  0.00  0.00     0.082 A 
ATOM     15  C9  <0> d           1.648  -0.478   7.963  0.00  0.00     0.065 A 
ATOM     16  C8  <0> d           2.938  -0.280   8.429  0.00  0.00     0.109 A 
ATOM     17  C7  <0> d           3.968  -1.111   7.988  0.00  0.00     0.073 A 
ATOM     18  O5  <0> d           3.483   0.616   9.288  0.00  0.00    -0.259 OA
ATOM     19  C6  <0> d           3.699  -2.132   7.090  0.00  0.00     0.034 A 
ATOM     20  N3  <0> d           5.132  -0.671   8.617  0.00  0.00    -0.295 N 
ATOM     21  C5  <0> d           2.409  -2.325   6.635  0.00  0.00     0.028 A 
ATOM     22  C10 <0> d           4.800   0.377   9.397  0.00  0.00     0.372 A 
ATOM     23  C11 <0> d           6.471  -1.242   8.459  0.00  0.00     0.162 C 
ATOM     24  O6  <0> d           5.572   1.008  10.092  0.00  0.00    -0.238 OA
ENDBRANCH   1  14
TORSDOF 6
