REMARK  4 active torsions:
REMARK  status: ('A' for Active; 'I' for Inactive)
REMARK    1  A    between atoms: C2_2  and  C3_3 
REMARK    2  A    between atoms: C2_2  and  N2_9 
REMARK       I    between atoms: N2_9  and  C9_11 
REMARK    3  A    between atoms: C9_11  and  C10_13 
REMARK    4  A    between atoms: C10_13  and  N3_14 
ROOT
ATOM      1  N2  <0> d           0.855  -0.414  -1.203  0.00  0.00    -0.347 N 
ATOM      2  C8  <0> d           0.598   0.110  -2.547  0.00  0.00     0.153 C 
ATOM      3  C9  <0> d           1.875  -1.271  -0.998  0.00  0.00     0.246 C 
ATOM      4  O1  <0> d           2.087  -1.705   0.114  0.00  0.00    -0.272 OA
ENDROOT
BRANCH   3   5
ATOM      5  C10 <0> d           2.751  -1.690  -2.150  0.00  0.00     0.337 C 
BRANCH   5   6
ATOM      6  N3  <0> d           3.781  -2.620  -1.669  0.00  0.00    -0.061 N 
ATOM      7  C15 <0> d           3.159  -3.791  -1.224  0.00  0.00     0.265 C 
ATOM      8  C14 <0> d           4.163  -4.796  -0.627  0.00  0.00     0.297 C 
ATOM      9  N4  <0> d           4.817  -5.501  -1.706  0.00  0.00     0.085 N 
ATOM     10  C13 <0> d           6.106  -4.897  -2.115  0.00  0.00     0.271 C 
ATOM     11  H20 <0> d           4.199  -5.605  -2.497  0.00  0.00     0.315 HD
ATOM     12  C12 <0> d           6.040  -3.360  -2.161  0.00  0.00     0.057 C 
ATOM     13  C11 <0> d           4.747  -2.868  -2.760  0.00  0.00     0.237 C 
ATOM     14  H25 <0> d           4.268  -2.195  -0.895  0.00  0.00     0.280 HD
ENDBRANCH   5   6
ENDBRANCH   3   5
BRANCH   1  15
ATOM     15  C2  <0> d           0.003  -0.007  -0.083  0.00  0.00     0.115 C 
ATOM     16  C1  <0> d          -0.021   1.520   0.011  0.00  0.00     0.037 C 
BRANCH  15  17
ATOM     17  C3  <0> d          -1.397  -0.518  -0.305  0.00  0.00    -0.033 A 
ATOM     18  C7  <0> d          -2.493   0.177   0.184  0.00  0.00     0.028 A 
ATOM     19  C6  <0> d          -3.762  -0.319  -0.045  0.00  0.00     0.116 A 
ATOM     20  N1  <0> d          -3.937  -1.445  -0.709  0.00  0.00    -0.273 NA
ATOM     21  C5  <0> d          -2.919  -2.136  -1.183  0.00  0.00     0.116 A 
ATOM     22  C4  <0> d          -1.621  -1.698  -0.999  0.00  0.00     0.028 A 
ENDBRANCH  15  17
ENDBRANCH   1  15
TORSDOF 4
