REMARK  6 active torsions:
REMARK  status: ('A' for Active; 'I' for Inactive)
REMARK    1  A    between atoms: C7_7  and  O2_32 
REMARK    2  A    between atoms: C9_9  and  C10_11 
REMARK    3  A    between atoms: C10_11  and  N5_35 
REMARK    4  A    between atoms: C14_15  and  C16_17 
REMARK       I    between atoms: C16_17  and  N2_19 
REMARK    5  A    between atoms: N2_19  and  C17_20 
REMARK    6  A    between atoms: C20_23  and  C23_26 
ROOT
ATOM      1  C11 <0> d           2.411  -3.107  -1.232  0.00  0.00     0.235 C 
ATOM      2  C12 <0> d           2.866  -1.672  -1.506  0.00  0.00     0.029 C 
ATOM      3  C13 <0> d           1.671  -0.726  -1.361  0.00  0.00     0.017 C 
ATOM      4  C14 <0> d           1.081  -0.873   0.044  0.00  0.00     0.104 C 
ATOM      5  C15 <0> d           0.678  -2.332   0.273  0.00  0.00     0.249 C 
ATOM      6  N5  <0> d           1.877  -3.187   0.144  0.00  0.00    -0.065 N 
ATOM      7  H26 <0> d           2.594  -2.856   0.799  0.00  0.00     0.280 HD
ENDROOT
BRANCH   4   8
ATOM      8  C16 <0> d          -0.132   0.011   0.176  0.00  0.00     0.228 C 
ATOM      9  O1  <0> d          -1.213  -0.476   0.431  0.00  0.00    -0.273 OA
ATOM     10  N2  <0> d          -0.016   1.344   0.009  0.00  0.00    -0.327 N 
ATOM     11  H18 <0> d           0.859   1.742  -0.121  0.00  0.00     0.169 HD
BRANCH  10  12
ATOM     12  C17 <0> d          -1.158   2.151   0.019  0.00  0.00     0.034 A 
ATOM     13  C22 <0> d          -1.089   3.442   0.529  0.00  0.00     0.030 A 
ATOM     14  C21 <0> d          -2.213   4.241   0.540  0.00  0.00     0.016 A 
ATOM     15  C20 <0> d          -3.419   3.752   0.037  0.00  0.00    -0.008 A 
ATOM     16  C19 <0> d          -3.485   2.455  -0.475  0.00  0.00     0.016 A 
ATOM     17  C18 <0> d          -2.357   1.663  -0.488  0.00  0.00     0.030 A 
BRANCH  15  18
ATOM     18  C23 <0> d          -4.627   4.607   0.046  0.00  0.00     0.061 A 
ATOM     19  N4  <0> d          -4.708   5.886   0.511  0.00  0.00    -0.278 N 
ATOM     20  N3  <0> d          -6.026   6.322   0.331  0.00  0.00    -0.187 NA
ATOM     21  H2  <0> d          -3.960   6.416   0.910  0.00  0.00     0.189 HD
ATOM     22  C25 <0> d          -6.713   5.353  -0.219  0.00  0.00     0.141 A 
ATOM     23  C24 <0> d          -5.866   4.263  -0.417  0.00  0.00     0.053 A 
ENDBRANCH  15  18
ENDBRANCH  10  12
ENDBRANCH   4   8
BRANCH   6  24
ATOM     24  C10 <0> d           1.536  -4.586   0.472  0.00  0.00     0.293 C 
BRANCH  24  25
ATOM     25  C9  <0> d           2.808  -5.390   0.553  0.00  0.00     0.063 A 
ATOM     26  C8  <0> d           3.423  -5.559   1.787  0.00  0.00     0.066 A 
ATOM     27  C7  <0> d           4.588  -6.299   1.877  0.00  0.00     0.080 A 
ATOM     28  C5  <0> d           5.117  -6.849   0.688  0.00  0.00     0.026 A 
ATOM     29  C4  <0> d           4.434  -6.626  -0.533  0.00  0.00     0.070 A 
ATOM     30  C6  <0> d           6.298  -7.606   0.695  0.00  0.00     0.016 A 
ATOM     31  C3  <0> d           4.958  -7.171  -1.718  0.00  0.00     0.032 A 
ATOM     32  N1  <0> d           3.308  -5.905  -0.546  0.00  0.00    -0.251 NA
ATOM     33  C2  <0> d           6.107  -7.901  -1.675  0.00  0.00     0.002 A 
ATOM     34  C1  <0> d           6.776  -8.118  -0.473  0.00  0.00     0.001 A 
BRANCH  27  35
ATOM     35  O2  <0> d           5.207  -6.486   3.069  0.00  0.00    -0.360 OA
ATOM     36  H25 <0> d           5.859  -5.805   3.285  0.00  0.00     0.217 HD
ENDBRANCH  27  35
ENDBRANCH  24  25
ENDBRANCH   6  24
TORSDOF 6
