REMARK  3 active torsions:
REMARK  status: ('A' for Active; 'I' for Inactive)
REMARK    1  A    between atoms: C5_5  and  N1_9 
REMARK    2  A    between atoms: N1_9  and  S1_10 
REMARK    3  A    between atoms: S1_10  and  N2_13 
ROOT
ATOM      1  C1  <0> d           0.198   1.500  -0.167  0.00  0.00     0.048 C 
ATOM      2  C2  <0> d           0.161  -0.006  -0.129  0.00  0.00    -0.061 A 
ATOM      3  C3  <0> d           0.074  -0.725  -1.307  0.00  0.00     0.009 A 
ATOM      4  C4  <0> d           0.040  -2.105  -1.275  0.00  0.00     0.032 A 
ATOM      5  C5  <0> d           0.094  -2.772  -0.058  0.00  0.00     0.061 A 
ATOM      6  C6  <0> d           0.181  -2.047   1.124  0.00  0.00     0.038 A 
ATOM      7  C7  <0> d           0.219  -0.666   1.085  0.00  0.00     0.028 A 
ATOM      8 Br1  <0> d           0.253  -2.949   2.785  0.00  0.00    -0.049 Br
ENDROOT
BRANCH   5   9
ATOM      9  N1  <0> d           0.059  -4.168  -0.023  0.00  0.00    -0.267 N 
ATOM     10  H7  <0> d           0.572  -4.649   0.646  0.00  0.00     0.180 HD
BRANCH   9  11
ATOM     11  S1  <0> d          -0.857  -5.002  -1.121  0.00  0.00     0.319 S 
ATOM     12  O1  <0> d          -0.696  -6.382  -0.821  0.00  0.00    -0.183 OA
ATOM     13  O2  <0> d          -2.130  -4.372  -1.150  0.00  0.00    -0.183 OA
BRANCH  11  14
ATOM     14  N2  <0> d          -0.175  -4.761  -2.611  0.00  0.00    -0.307 N 
ATOM     15  C8  <0> d           1.167  -5.274  -2.895  0.00  0.00     0.161 C 
ATOM     16  H8  <0> d          -0.665  -4.279  -3.296  0.00  0.00     0.173 HD
ENDBRANCH  11  14
ENDBRANCH   9  11
ENDBRANCH   5   9
TORSDOF 3
