REMARK  4 active torsions:
REMARK  status: ('A' for Active; 'I' for Inactive)
REMARK    1  A    between atoms: C3_3  and  C5_6 
REMARK    2  A    between atoms: N1_7  and  C6_8 
REMARK    3  A    between atoms: C9_11  and  S2_14 
REMARK    4  A    between atoms: S2_14  and  N2_17 
ROOT
ATOM      1  C6  <0> d           1.159   2.003   0.002  0.00  0.00     0.056 A 
ATOM      2  C7  <0> d           2.205   1.628   0.848  0.00  0.00     0.033 A 
ATOM      3  C8  <0> d           3.390   2.335   0.831  0.00  0.00     0.027 A 
ATOM      4  C9  <0> d           3.539   3.421  -0.013  0.00  0.00     0.079 A 
ATOM      5  C10 <0> d           2.505   3.802  -0.850  0.00  0.00     0.027 A 
ATOM      6  C11 <0> d           1.317   3.101  -0.848  0.00  0.00     0.033 A 
ENDROOT
BRANCH   1   7
ATOM      7  N1  <0> d          -0.016   1.304   0.009  0.00  0.00    -0.260 NA
ATOM      8  C5  <0> d           0.002  -0.004   0.002  0.00  0.00     0.136 C 
BRANCH   8   9
ATOM      9  C3  <0> d          -1.216  -0.730   0.010  0.00  0.00     0.022 A 
ATOM     10  C2  <0> d          -1.417  -2.103  -0.001  0.00  0.00     0.021 A 
ATOM     11  C1  <0> d          -2.717  -2.544   0.015  0.00  0.00     0.008 A 
ATOM     12  C4  <0> d          -3.726  -1.635   0.029  0.00  0.00     0.050 A 
ATOM     13  S1  <0> d          -2.891  -0.115   0.028  0.00  0.00    -0.101 SA
ENDBRANCH   8   9
ENDBRANCH   1   7
BRANCH   4  14
ATOM     14  S2  <0> d           5.053   4.322  -0.024  0.00  0.00     0.256 S 
ATOM     15  O1  <0> d           6.056   3.436   0.453  0.00  0.00    -0.201 OA
ATOM     16  O2  <0> d           5.138   4.958  -1.291  0.00  0.00    -0.201 OA
BRANCH  14  17
ATOM     17  N2  <0> d           4.912   5.528   1.103  0.00  0.00    -0.324 N 
ATOM     18  H9  <0> d           4.093   5.621   1.614  0.00  0.00     0.169 HD
ATOM     19  H10 <0> d           5.649   6.142   1.251  0.00  0.00     0.169 HD
ENDBRANCH  14  17
ENDBRANCH   4  14
TORSDOF 4
