REMARK  7 active torsions:
REMARK  status: ('A' for Active; 'I' for Inactive)
REMARK    1  A    between atoms: C4_4  and  C8_9 
REMARK    2  A    between atoms: C7_7  and  O1_8 
REMARK    3  A    between atoms: C8_9  and  N1_10 
REMARK    4  A    between atoms: N2_13  and  C13_16 
REMARK    5  A    between atoms: N4_24  and  C20_25 
REMARK    6  A    between atoms: C20_25  and  C21_26 
REMARK    7  A    between atoms: C21_26  and  O2_27 
ROOT
ATOM      1  N1  <0> d           1.391  -3.139  -2.983  0.00  0.00     0.095 N 
ATOM      2  C9  <0> d           2.006  -1.845  -3.308  0.00  0.00     0.293 C 
ATOM      3  C10 <0> d           3.504  -2.045  -3.558  0.00  0.00     0.171 C 
ATOM      4  N2  <0> d           3.672  -3.087  -4.582  0.00  0.00    -0.214 N 
ATOM      5  C11 <0> d           2.972  -4.367  -4.394  0.00  0.00     0.171 C 
ATOM      6  C12 <0> d           1.494  -4.076  -4.110  0.00  0.00     0.293 C 
ENDROOT
BRANCH   4   7
ATOM      7  C13 <0> d           4.464  -2.870  -5.690  0.00  0.00     0.683 A 
ATOM      8  N4  <0> d           5.809  -3.100  -5.750  0.00  0.00    -0.179 N 
ATOM      9  C19 <0> d           6.227  -2.761  -7.027  0.00  0.00     0.079 A 
ATOM     10  C14 <0> d           5.082  -2.317  -7.708  0.00  0.00     0.076 A 
ATOM     11  C18 <0> d           7.453  -2.780  -7.673  0.00  0.00     0.032 A 
ATOM     12  N3  <0> d           4.040  -2.408  -6.840  0.00  0.00    -0.189 N 
ATOM     13  C15 <0> d           5.191  -1.897  -9.036  0.00  0.00     0.032 A 
ATOM     14  H27 <0> d           3.122  -2.167  -7.041  0.00  0.00     0.184 HD
ATOM     15  C16 <0> d           6.417  -1.923  -9.662  0.00  0.00     0.002 A 
ATOM     16  C17 <0> d           7.545  -2.362  -8.985  0.00  0.00     0.002 A 
BRANCH   8  17
ATOM     17  C20 <0> d           6.652  -3.612  -4.667  0.00  0.00     0.174 C 
BRANCH  17  18
ATOM     18  C21 <0> d           6.781  -5.131  -4.796  0.00  0.00     0.185 C 
BRANCH  18  19
ATOM     19  O2  <0> d           7.604  -5.630  -3.739  0.00  0.00    -0.399 OA
ATOM     20  H26 <0> d           7.729  -6.589  -3.758  0.00  0.00     0.209 HD
ENDBRANCH  18  19
ENDBRANCH  17  18
ENDBRANCH   8  17
ENDBRANCH   4   7
BRANCH   1  21
ATOM     21  C8  <0> d          -0.008  -2.968  -2.568  0.00  0.00     0.311 C 
BRANCH  21  22
ATOM     22  C4  <0> d          -0.057  -2.204  -1.270  0.00  0.00    -0.029 A 
ATOM     23  C3  <0> d          -0.134  -0.824  -1.284  0.00  0.00     0.018 A 
ATOM     24  C2  <0> d          -0.180  -0.121  -0.095  0.00  0.00    -0.028 A 
ATOM     25  C1  <0> d          -0.264   1.383  -0.112  0.00  0.00     0.051 C 
ATOM     26  C7  <0> d          -0.142  -0.801   1.113  0.00  0.00     0.071 A 
ATOM     27  C6  <0> d          -0.071  -2.187   1.124  0.00  0.00     0.037 A 
ATOM     28  C5  <0> d          -0.025  -2.885  -0.067  0.00  0.00     0.012 A 
BRANCH  26  29
ATOM     29  O1  <0> d          -0.181  -0.112   2.284  0.00  0.00    -0.360 OA
ATOM     30  H7  <0> d          -1.075   0.038   2.622  0.00  0.00     0.217 HD
ENDBRANCH  26  29
ENDBRANCH  21  22
ENDBRANCH   1  21
TORSDOF 7
