REMARK  4 active torsions:
REMARK  status: ('A' for Active; 'I' for Inactive)
REMARK    1  A    between atoms: C2_2  and  N1_4 
REMARK    2  A    between atoms: C5_6  and  N3_9 
REMARK       I    between atoms: N3_9  and  C7_10 
REMARK       I    between atoms: C7_10  and  N4_12 
REMARK    3  A    between atoms: N4_12  and  C8_13 
REMARK    4  A    between atoms: N5_17  and  C12_18 
ROOT
ATOM      1  C8  <0> d          -7.803  -2.785   1.181  0.00  0.00     0.113 A 
ATOM      2  C9  <0> d          -8.015  -2.987  -0.139  0.00  0.00     0.073 A 
ATOM      3  C10 <0> d          -9.383  -3.502  -0.267  0.00  0.00     0.063 A 
ATOM      4  C11 <0> d          -9.887  -3.567   1.001  0.00  0.00     0.116 A 
ATOM      5  N5  <0> d          -8.931  -3.141   1.866  0.00  0.00    -0.333 N 
ATOM      6  C16 <0> d         -10.056  -3.862  -1.479  0.00  0.00     0.101 C 
ATOM      7  N6  <0> d         -10.589  -4.148  -2.440  0.00  0.00    -0.191 NA
ENDROOT
BRANCH   1   8
ATOM      8  N4  <0> d          -6.625  -2.298   1.751  0.00  0.00    -0.294 N 
ATOM      9  C7  <0> d          -5.577  -1.981   0.964  0.00  0.00     0.326 C 
ATOM     10  N3  <0> d          -4.440  -1.511   1.514  0.00  0.00    -0.306 N 
ATOM     11  O1  <0> d          -5.658  -2.118  -0.241  0.00  0.00    -0.247 OA
ATOM     12  H10 <0> d          -4.375  -1.401   2.476  0.00  0.00     0.171 HD
ATOM     13  H11 <0> d          -6.560  -2.189   2.712  0.00  0.00     0.172 HD
BRANCH  10  14
ATOM     14  C5  <0> d          -3.345  -1.179   0.693  0.00  0.00     0.072 A 
ATOM     15  C4  <0> d          -2.147  -0.699   1.112  0.00  0.00     0.143 A 
ATOM     16  N1  <0> d          -1.372  -0.511   0.012  0.00  0.00    -0.275 N 
ATOM     17  N2  <0> d          -2.123  -0.883  -1.111  0.00  0.00    -0.183 NA
ATOM     18  C6  <0> d          -3.299  -1.288  -0.705  0.00  0.00     0.169 A 
BRANCH  16  19
ATOM     19  C2  <0> d           0.002  -0.004   0.002  0.00  0.00     0.101 C 
ATOM     20  C1  <0> d          -0.019   1.526   0.010  0.00  0.00     0.034 C 
ATOM     21  C3  <0> d           0.742  -0.511   1.242  0.00  0.00     0.034 C 
ENDBRANCH  16  19
ENDBRANCH  10  14
ENDBRANCH   1   8
BRANCH   5  22
ATOM     22  C12 <0> d          -9.086  -3.069   3.321  0.00  0.00     0.027 C 
ATOM     23  C13 <0> d         -10.485  -3.552   3.709  0.00  0.00     0.038 C 
ATOM     24  C14 <0> d          -8.036  -3.958   3.990  0.00  0.00     0.038 C 
ATOM     25  C15 <0> d          -8.899  -1.623   3.783  0.00  0.00     0.038 C 
ENDBRANCH   5  22
TORSDOF 4
