REMARK  5 active torsions:
REMARK  status: ('A' for Active; 'I' for Inactive)
REMARK    1  A    between atoms: C2_2  and  N1_9 
REMARK    2  A    between atoms: N1_9  and  S2_10 
REMARK    3  A    between atoms: S2_10  and  C6_13 
REMARK    4  A    between atoms: C6_13  and  C7_14 
REMARK    5  A    between atoms: C11_18  and  N2_20 
ROOT
ATOM      1  S2  <0> d          -2.486   0.029  -1.057  0.00  0.00     0.231 S 
ATOM      2  O3  <0> d          -3.846  -0.278  -0.783  0.00  0.00    -0.206 OA
ATOM      3  O4  <0> d          -2.020   1.370  -0.999  0.00  0.00    -0.206 OA
ENDROOT
BRANCH   1   4
ATOM      4  N1  <0> d          -1.629  -0.769   0.114  0.00  0.00    -0.309 N 
ATOM      5  H10 <0> d          -2.093  -1.313   0.769  0.00  0.00     0.173 HD
BRANCH   4   6
ATOM      6  C2  <0> d          -0.169  -0.652   0.160  0.00  0.00     0.050 C 
ATOM      7  C1  <0> d           0.201   0.832   0.209  0.00  0.00     0.040 C 
ATOM      8  C5  <0> d           0.340  -1.331   1.447  0.00  0.00     0.171 C 
ATOM      9  S1  <0> d           1.585  -2.535   0.823  0.00  0.00     0.146 S 
ATOM     10  C4  <0> d           1.838  -1.809  -0.856  0.00  0.00     0.143 C 
ATOM     11  O1  <0> d           2.783  -2.402   1.576  0.00  0.00    -0.228 OA
ATOM     12  O2  <0> d           0.976  -3.813   0.692  0.00  0.00    -0.228 OA
ATOM     13  C3  <0> d           0.408  -1.259  -1.118  0.00  0.00     0.047 C 
ENDBRANCH   4   6
ENDBRANCH   1   4
BRANCH   1  14
ATOM     14  C6  <0> d          -1.974  -0.743  -2.617  0.00  0.00     0.201 C 
BRANCH  14  15
ATOM     15  C7  <0> d          -2.847  -0.239  -3.737  0.00  0.00    -0.041 A 
ATOM     16  C12 <0> d          -2.480   0.890  -4.443  0.00  0.00     0.037 A 
ATOM     17  C11 <0> d          -3.283   1.351  -5.479  0.00  0.00     0.026 A 
ATOM     18  C10 <0> d          -4.457   0.680  -5.795  0.00  0.00     0.029 A 
ATOM     19  C9  <0> d          -4.821  -0.446  -5.081  0.00  0.00     0.003 A 
ATOM     20  C8  <0> d          -4.018  -0.904  -4.054  0.00  0.00     0.008 A 
BRANCH  17  21
ATOM     21  N2  <0> d          -2.912   2.489  -6.199  0.00  0.00    -0.399 N 
ATOM     22  H17 <0> d          -3.475   2.812  -6.919  0.00  0.00     0.156 HD
ATOM     23  H18 <0> d          -2.091   2.957  -5.977  0.00  0.00     0.156 HD
ENDBRANCH  17  21
ENDBRANCH  14  15
ENDBRANCH   1  14
TORSDOF 5
