REMARK  5 active torsions:
REMARK  status: ('A' for Active; 'I' for Inactive)
REMARK    1  A    between atoms: C2_2  and  C3_3 
REMARK    2  A    between atoms: C6_9  and  N3_11 
REMARK    3  A    between atoms: C7_12  and  N5_21 
REMARK    4  A    between atoms: C9_14  and  C10_16 
REMARK       I    between atoms: N5_21  and  C14_22 
REMARK    5  A    between atoms: C14_22  and  C15_24 
ROOT
ATOM      1  N3  <0> d           0.487  -2.993   3.897  0.00  0.00    -0.044 N 
ATOM      2  C7  <0> d           0.891  -1.979   3.076  0.00  0.00     0.152 A 
ATOM      3  C8  <0> d           2.069  -1.506   3.554  0.00  0.00     0.086 A 
ATOM      4  C9  <0> d           2.395  -2.247   4.710  0.00  0.00     0.099 A 
ATOM      5  N4  <0> d           1.445  -3.138   4.908  0.00  0.00    -0.150 NA
ENDROOT
BRANCH   1   6
ATOM      6  C6  <0> d          -0.664  -3.743   3.755  0.00  0.00     0.732 A 
ATOM      7  N1  <0> d          -0.933  -4.729   4.652  0.00  0.00    -0.152 N 
ATOM      8  C5  <0> d          -2.058  -5.464   4.524  0.00  0.00     0.261 A 
ATOM      9  H1  <0> d          -0.320  -4.901   5.385  0.00  0.00     0.187 HD
ATOM     10  C4  <0> d          -2.923  -5.193   3.447  0.00  0.00     0.102 A 
ATOM     11  O1  <0> d          -2.317  -6.349   5.322  0.00  0.00    -0.268 OA
ATOM     12  C3  <0> d          -2.597  -4.194   2.576  0.00  0.00     0.058 A 
ATOM     13  N2  <0> d          -1.477  -3.495   2.751  0.00  0.00    -0.067 NA
BRANCH  12  14
ATOM     14  C2  <0> d          -3.505  -3.883   1.415  0.00  0.00     0.055 C 
ATOM     15  C1  <0> d          -4.450  -2.742   1.798  0.00  0.00     0.011 C 
ENDBRANCH  12  14
ENDBRANCH   1   6
BRANCH   2  16
ATOM     16  N5  <0> d           0.217  -1.517   1.947  0.00  0.00    -0.310 N 
ATOM     17  C14 <0> d           0.731  -0.503   1.223  0.00  0.00     0.241 C 
ATOM     18  O2  <0> d           1.780   0.007   1.554  0.00  0.00    -0.271 OA
ATOM     19  H13 <0> d          -0.622  -1.925   1.682  0.00  0.00     0.170 HD
BRANCH  17  20
ATOM     20  C15 <0> d           0.002  -0.004   0.002  0.00  0.00     0.170 C 
ATOM     21  C16 <0> d          -0.019   1.526   0.010  0.00  0.00     0.037 C 
ATOM     22 Cl1  <0> d           0.846  -0.586  -1.481  0.00  0.00    -0.115 Cl
ENDBRANCH  17  20
ENDBRANCH   2  16
BRANCH   4  23
ATOM     23  C10 <0> d           3.597  -2.059   5.549  0.00  0.00     0.035 A 
ATOM     24  S1  <0> d           4.934  -0.892   5.355  0.00  0.00    -0.100 SA
ATOM     25  C13 <0> d           5.899  -1.374   6.778  0.00  0.00     0.050 A 
ATOM     26  C12 <0> d           5.155  -2.384   7.297  0.00  0.00     0.008 A 
ATOM     27  C11 <0> d           3.978  -2.740   6.675  0.00  0.00     0.022 A 
ENDBRANCH   4  23
TORSDOF 5
