REMARK  7 active torsions:
REMARK  status: ('A' for Active; 'I' for Inactive)
REMARK    1  A    between atoms: N1_2  and  C2_3 
REMARK       I    between atoms: N1_2  and  C10_16 
REMARK    2  A    between atoms: C2_3  and  C3_4 
REMARK       I    between atoms: C3_4  and  N2_6 
REMARK    3  A    between atoms: N2_6  and  C4_7 
REMARK    4  A    between atoms: C10_16  and  C11_18 
REMARK    5  A    between atoms: C11_18  and  C12_19 
REMARK    6  A    between atoms: C12_19  and  C13_20 
REMARK    7  A    between atoms: C13_20  and  N3_21 
ROOT
ATOM      1  C1  <0> d           4.398   6.538  -0.909  0.00  0.00     0.153 C 
ATOM      2  N1  <0> d           3.669   6.183   0.312  0.00  0.00    -0.348 N 
ATOM      3  C10 <0> d           4.262   6.320   1.514  0.00  0.00     0.219 C 
ATOM      4  O2  <0> d           3.659   6.027   2.525  0.00  0.00    -0.273 OA
ENDROOT
BRANCH   2   5
ATOM      5  C2  <0> d           2.296   5.679   0.225  0.00  0.00     0.228 C 
BRANCH   5   6
ATOM      6  C3  <0> d           2.319   4.177   0.104  0.00  0.00     0.240 C 
ATOM      7  O1  <0> d           3.378   3.586   0.091  0.00  0.00    -0.271 OA
ATOM      8  N2  <0> d           1.163   3.491   0.009  0.00  0.00    -0.323 N 
ATOM      9  H6  <0> d           0.321   3.967  -0.061  0.00  0.00     0.169 HD
BRANCH   8  10
ATOM     10  C4  <0> d           1.178   2.090   0.013  0.00  0.00     0.077 A 
ATOM     11  C9  <0> d           0.139   1.381  -0.579  0.00  0.00     0.184 A 
ATOM     12  C8  <0> d           0.156  -0.003  -0.574  0.00  0.00     0.195 A 
ATOM     13  F1  <0> d          -0.884   2.043  -1.163  0.00  0.00    -0.200 F 
ATOM     14  C7  <0> d           1.210  -0.680   0.022  0.00  0.00     0.158 A 
ATOM     15  F2  <0> d          -0.852  -0.694  -1.149  0.00  0.00    -0.199 F 
ATOM     16  C6  <0> d           2.244   0.026   0.611  0.00  0.00     0.048 A 
ATOM     17  F3  <0> d           1.226  -2.031   0.026  0.00  0.00    -0.203 F 
ATOM     18  C5  <0> d           2.230   1.407   0.608  0.00  0.00     0.036 A 
ENDBRANCH   8  10
ENDBRANCH   5   6
ENDBRANCH   2   5
BRANCH   3  19
ATOM     19  C11 <0> d           5.674   6.839   1.604  0.00  0.00     0.104 C 
BRANCH  19  20
ATOM     20  C12 <0> d           6.104   6.897   3.071  0.00  0.00     0.029 C 
BRANCH  20  21
ATOM     21  C13 <0> d           7.538   7.424   3.162  0.00  0.00     0.137 C 
BRANCH  21  22
ATOM     22  N3  <0> d           7.950   7.480   4.566  0.00  0.00    -0.269 N 
ATOM     23  C16 <0> d           8.546   6.473   5.216  0.00  0.00     0.325 A 
ATOM     24  N4  <0> d           8.822   6.779   6.496  0.00  0.00    -0.334 N 
ATOM     25  O4  <0> d           8.809   5.402   4.705  0.00  0.00    -0.247 OA
ATOM     26  C15 <0> d           8.347   8.157   6.711  0.00  0.00     0.227 A 
ATOM     27  H17 <0> d           9.250   6.205   7.150  0.00  0.00     0.164 HD
ATOM     28  C14 <0> d           7.780   8.554   5.363  0.00  0.00     0.245 A 
ATOM     29  O3  <0> d           7.277   9.615   5.063  0.00  0.00    -0.271 OA
ENDBRANCH  21  22
ENDBRANCH  20  21
ENDBRANCH  19  20
ENDBRANCH   3  19
TORSDOF 7
