REMARK  4 active torsions:
REMARK  status: ('A' for Active; 'I' for Inactive)
REMARK    1  A    between atoms: C2_2  and  C3_3 
REMARK    2  A    between atoms: C3_3  and  C7_8 
REMARK       I    between atoms: C7_8  and  N2_10 
REMARK    3  A    between atoms: N2_10  and  C8_11 
REMARK    4  A    between atoms: C11_14  and  C14_18 
REMARK       I    between atoms: C14_18  and  N3_20 
ROOT
ATOM      1  C7  <0> d          -1.543   0.181  -1.512  0.00  0.00     0.232 C 
ATOM      2  O1  <0> d          -1.601  -0.554  -2.476  0.00  0.00    -0.272 OA
ATOM      3  N2  <0> d          -2.071   1.419  -1.577  0.00  0.00    -0.326 N 
ATOM      4  H13 <0> d          -2.093   1.979  -0.785  0.00  0.00     0.169 HD
ENDROOT
BRANCH   3   5
ATOM      5  C8  <0> d          -2.585   1.896  -2.782  0.00  0.00     0.036 A 
ATOM      6  C13 <0> d          -2.439   3.238  -3.116  0.00  0.00     0.054 A 
ATOM      7  C12 <0> d          -2.941   3.712  -4.309  0.00  0.00     0.051 A 
ATOM      8  C11 <0> d          -3.608   2.842  -5.179  0.00  0.00     0.053 A 
ATOM      9 Cl1  <0> d          -2.752   5.385  -4.729  0.00  0.00    -0.083 Cl
ATOM     10  C10 <0> d          -3.757   1.495  -4.836  0.00  0.00     0.021 A 
ATOM     11  C9  <0> d          -3.248   1.029  -3.646  0.00  0.00     0.030 A 
BRANCH   8  12
ATOM     12  C14 <0> d          -4.152   3.345  -6.454  0.00  0.00     0.251 C 
ATOM     13  O2  <0> d          -4.021   4.517  -6.751  0.00  0.00    -0.268 OA
ATOM     14  N3  <0> d          -4.794   2.506  -7.291  0.00  0.00    -0.366 N 
ATOM     15  H17 <0> d          -4.898   1.571  -7.054  0.00  0.00     0.159 HD
ATOM     16  H18 <0> d          -5.151   2.837  -8.130  0.00  0.00     0.159 HD
ENDBRANCH   8  12
ENDBRANCH   3   5
BRANCH   1  17
ATOM     17  C3  <0> d          -0.881  -0.291  -0.243  0.00  0.00     0.066 C 
ATOM     18  C6  <0> d          -0.281  -1.695  -0.444  0.00  0.00     0.251 C 
ATOM     19  N1  <0> d          -0.934  -2.590   0.536  0.00  0.00    -0.074 N 
ATOM     20  C5  <0> d          -2.252  -1.971   0.834  0.00  0.00     0.233 C 
ATOM     21  H10 <0> d          -0.380  -2.649   1.377  0.00  0.00     0.277 HD
ATOM     22  H19 <0> d          -1.063  -3.507   0.137  0.00  0.00     0.277 HD
ATOM     23  C4  <0> d          -1.929  -0.457   0.881  0.00  0.00     0.048 C 
BRANCH  17  24
ATOM     24  C2  <0> d           0.206   0.696   0.186  0.00  0.00     0.016 C 
ATOM     25  C1  <0> d           1.219   0.863  -0.949  0.00  0.00     0.006 C 
ENDBRANCH  17  24
ENDBRANCH   1  17
TORSDOF 4
