REMARK  3 active torsions:
REMARK  status: ('A' for Active; 'I' for Inactive)
REMARK    1  A    between atoms: N1_2  and  C2_3 
REMARK    2  A    between atoms: C6_7  and  S1_13 
REMARK    3  A    between atoms: S1_13  and  C10_14 
ROOT
ATOM      1  C2  <0> d           0.696  -0.479  -1.198  0.00  0.00     0.312 A 
ATOM      2  C3  <0> d           0.796  -1.988  -1.195  0.00  0.00     0.008 A 
ATOM      3  C4  <0> d           1.409  -2.883  -0.346  0.00  0.00     0.013 A 
ATOM      4  C5  <0> d           1.332  -4.240  -0.600  0.00  0.00     0.019 A 
ATOM      5  C6  <0> d           0.636  -4.695  -1.714  0.00  0.00     0.010 A 
ATOM      6  C7  <0> d           0.020  -3.794  -2.568  0.00  0.00     0.049 A 
ATOM      7  C8  <0> d           0.096  -2.427  -2.313  0.00  0.00     0.044 A 
ATOM      8  N2  <0> d          -0.430  -1.339  -3.011  0.00  0.00    -0.324 N 
ATOM      9  C9  <0> d          -0.126  -0.164  -2.429  0.00  0.00     0.257 A 
ATOM     10  O1  <0> d          -0.448   0.940  -2.817  0.00  0.00    -0.270 OA
ATOM     11  H9  <0> d          -0.955  -1.421  -3.823  0.00  0.00     0.169 HD
ENDROOT
BRANCH   5  12
ATOM     12  S1  <0> d           0.536  -6.424  -2.041  0.00  0.00    -0.051 SA
BRANCH  12  13
ATOM     13  C10 <0> d          -0.832  -6.963  -1.070  0.00  0.00     0.192 A 
ATOM     14  N4  <0> d          -1.116  -8.256  -1.014  0.00  0.00    -0.235 NA
ATOM     15  C13 <0> d          -2.132  -8.695  -0.290  0.00  0.00     0.121 A 
ATOM     16  C12 <0> d          -2.912  -7.782   0.404  0.00  0.00     0.038 A 
ATOM     17  C11 <0> d          -2.591  -6.436   0.318  0.00  0.00     0.121 A 
ATOM     18  N3  <0> d          -1.558  -6.065  -0.419  0.00  0.00    -0.235 NA
ENDBRANCH  12  13
ENDBRANCH   5  12
BRANCH   1  19
ATOM     19  N1  <0> d           0.011  -0.007   0.013  0.00  0.00    -0.062 N 
ATOM     20  C1  <0> d          -0.008   1.462   0.023  0.00  0.00     0.268 C 
ATOM     21  H5  <0> d           0.500  -0.343   0.829  0.00  0.00     0.278 HD
ATOM     22  H13 <0> d          -0.936  -0.355   0.021  0.00  0.00     0.278 HD
ENDBRANCH   1  19
TORSDOF 3
