REMARK  6 active torsions:
REMARK  status: ('A' for Active; 'I' for Inactive)
REMARK    1  A    between atoms: C2_2  and  C3_3 
REMARK    2  A    between atoms: C2_2  and  N3_14 
REMARK    3  A    between atoms: C6_6  and  N1_9 
REMARK       I    between atoms: N3_14  and  C12_15 
REMARK    4  A    between atoms: C12_15  and  C13_17 
REMARK    5  A    between atoms: C13_17  and  N4_18 
REMARK    6  A    between atoms: C15_20  and  C19_25 
ROOT
ATOM      1  N3  <0> d           5.251  -1.556  -1.724  0.00  0.00    -0.351 N 
ATOM      2  C12 <0> d           4.094  -0.917  -1.463  0.00  0.00     0.236 C 
ATOM      3  O1  <0> d           3.395  -0.530  -2.376  0.00  0.00    -0.272 OA
ATOM      4  H12 <0> d           5.810  -1.865  -0.993  0.00  0.00     0.163 HD
ENDROOT
BRANCH   1   5
ATOM      5  C2  <0> d           5.665  -1.785  -3.110  0.00  0.00     0.113 C 
ATOM      6  C1  <0> d           5.010  -3.065  -3.634  0.00  0.00     0.037 C 
BRANCH   5   7
ATOM      7  C3  <0> d           7.164  -1.928  -3.170  0.00  0.00    -0.036 A 
ATOM      8  C8  <0> d           7.871  -1.354  -4.210  0.00  0.00     0.011 A 
ATOM      9  C7  <0> d           9.245  -1.483  -4.267  0.00  0.00     0.030 A 
ATOM     10  C6  <0> d           9.916  -2.189  -3.279  0.00  0.00     0.039 A 
ATOM     11  C5  <0> d           9.204  -2.764  -2.235  0.00  0.00     0.030 A 
ATOM     12  C4  <0> d           7.831  -2.627  -2.180  0.00  0.00     0.011 A 
BRANCH  10  13
ATOM     13  N1  <0> d          11.312  -2.321  -3.333  0.00  0.00    -0.315 N 
ATOM     14  C11 <0> d          12.133  -1.814  -4.288  0.00  0.00     0.214 A 
ATOM     15  N2  <0> d          13.362  -2.144  -3.998  0.00  0.00    -0.254 NA
ATOM     16  C10 <0> d          13.373  -2.863  -2.865  0.00  0.00     0.135 A 
ATOM     17  C9  <0> d          12.104  -2.981  -2.430  0.00  0.00     0.117 A 
ENDBRANCH  10  13
ENDBRANCH   5   7
ENDBRANCH   1   5
BRANCH   2  18
ATOM     18  C13 <0> d           3.668  -0.681  -0.037  0.00  0.00     0.234 C 
BRANCH  18  19
ATOM     19  N4  <0> d           2.385   0.027  -0.021  0.00  0.00    -0.315 N 
ATOM     20  C18 <0> d           1.237  -0.675  -0.013  0.00  0.00     0.247 A 
ATOM     21  C17 <0> d           0.002  -0.004   0.002  0.00  0.00     0.075 A 
ATOM     22  O2  <0> d           1.268  -1.895  -0.021  0.00  0.00    -0.268 OA
ATOM     23  C16 <0> d          -0.016   1.360   0.009  0.00  0.00     0.023 A 
ATOM     24  C15 <0> d           1.197   2.062   0.002  0.00  0.00     0.063 A 
ATOM     25  C14 <0> d           2.369   1.385  -0.014  0.00  0.00     0.110 A 
BRANCH  24  26
ATOM     26  C19 <0> d           1.197   3.569   0.010  0.00  0.00     0.418 C 
ATOM     27  F1  <0> d           1.069   4.042  -1.300  0.00  0.00    -0.166 F 
ATOM     28  F2  <0> d           0.123   4.031   0.779  0.00  0.00    -0.166 F 
ATOM     29  F3  <0> d           2.397   4.032   0.558  0.00  0.00    -0.166 F 
ENDBRANCH  24  26
ENDBRANCH  18  19
ENDBRANCH   2  18
TORSDOF 6
