REMARK  9 active torsions:
REMARK  status: ('A' for Active; 'I' for Inactive)
REMARK    1  A    between atoms: C7_7  and  O1_8 
REMARK    2  A    between atoms: O1_8  and  C8_9 
REMARK    3  A    between atoms: C8_9  and  C9_10 
REMARK    4  A    between atoms: C9_10  and  C10_11 
REMARK    5  A    between atoms: C9_10  and  O4_28 
REMARK    6  A    between atoms: C10_11  and  N1_12 
REMARK    7  A    between atoms: N1_12  and  C11_13 
REMARK    8  A    between atoms: N1_12  and  C18_21 
REMARK    9  A    between atoms: C11_13  and  C12_14 
ROOT
ATOM      1  N1  <0> d          -0.405   0.124   7.217  0.00  0.00    -0.060 N 
ATOM      2  H27 <0> d          -1.078   0.680   7.723  0.00  0.00     0.280 HD
ENDROOT
BRANCH   1   3
ATOM      3  C10 <0> d          -1.051  -0.481   6.045  0.00  0.00     0.269 C 
BRANCH   3   4
ATOM      4  C9  <0> d          -1.821   0.595   5.276  0.00  0.00     0.168 C 
BRANCH   4   5
ATOM      5  C8  <0> d          -2.717  -0.070   4.228  0.00  0.00     0.209 C 
BRANCH   5   6
ATOM      6  O1  <0> d          -3.522   0.923   3.590  0.00  0.00    -0.348 OA
BRANCH   6   7
ATOM      7  C7  <0> d          -4.380   0.496   2.626  0.00  0.00     0.074 A 
ATOM      8  C2  <0> d          -5.191   1.407   1.965  0.00  0.00    -0.029 A 
ATOM      9  C1  <0> d          -5.122   2.871   2.316  0.00  0.00     0.051 C 
ATOM     10  C3  <0> d          -6.058   0.972   0.982  0.00  0.00     0.009 A 
ATOM     11  C4  <0> d          -6.122  -0.371   0.660  0.00  0.00     0.001 A 
ATOM     12  C5  <0> d          -5.318  -1.282   1.322  0.00  0.00     0.003 A 
ATOM     13  C6  <0> d          -4.450  -0.852   2.305  0.00  0.00     0.037 A 
ENDBRANCH   6   7
ENDBRANCH   5   6
ENDBRANCH   4   5
BRANCH   4  14
ATOM     14  O4  <0> d          -0.897   1.469   4.626  0.00  0.00    -0.392 OA
ATOM     15  H26 <0> d          -0.369   1.042   3.937  0.00  0.00     0.210 HD
ENDBRANCH   4  14
ENDBRANCH   3   4
ENDBRANCH   1   3
BRANCH   1  16
ATOM     16  C11 <0> d           0.112  -0.936   8.092  0.00  0.00     0.274 C 
BRANCH  16  17
ATOM     17  C12 <0> d           0.594  -0.330   9.385  0.00  0.00    -0.032 A 
ATOM     18  C17 <0> d          -0.310  -0.030  10.387  0.00  0.00     0.012 A 
ATOM     19  C16 <0> d           0.131   0.522  11.575  0.00  0.00     0.043 A 
ATOM     20  C15 <0> d           1.478   0.784  11.757  0.00  0.00     0.116 A 
ATOM     21  C14 <0> d           2.383   0.488  10.751  0.00  0.00     0.043 A 
ATOM     22  F1  <0> d           1.911   1.328  12.916  0.00  0.00    -0.206 F 
ATOM     23  C13 <0> d           1.940  -0.068   9.566  0.00  0.00     0.012 A 
ENDBRANCH  16  17
ENDBRANCH   1  16
BRANCH   1  24
ATOM     24  C18 <0> d           0.705   0.980   6.777  0.00  0.00     0.203 C 
ATOM     25  C21 <0> d           1.092   1.966   7.915  0.00  0.00     0.173 C 
ATOM     26  S1  <0> d           2.791   2.443   7.386  0.00  0.00     0.146 S 
ATOM     27  C20 <0> d           3.187   1.009   6.305  0.00  0.00     0.142 C 
ATOM     28  O2  <0> d           2.714   3.616   6.588  0.00  0.00    -0.228 OA
ATOM     29  O3  <0> d           3.652   2.421   8.516  0.00  0.00    -0.228 OA
ATOM     30  C19 <0> d           1.934   0.113   6.456  0.00  0.00     0.049 C 
ENDBRANCH   1  24
TORSDOF 9
