REMARK  7 active torsions:
REMARK  status: ('A' for Active; 'I' for Inactive)
REMARK    1  A    between atoms: C2_2  and  N1_3 
REMARK    2  A    between atoms: N1_3  and  C3_4 
REMARK    3  A    between atoms: C6_8  and  N4_10 
REMARK    4  A    between atoms: N4_10  and  C7_11 
REMARK    5  A    between atoms: C10_14  and  N5_17 
REMARK    6  A    between atoms: N5_17  and  S1_18 
REMARK    7  A    between atoms: S1_18  and  C13_21 
ROOT
ATOM      1  C7  <0> d           2.608  -5.516   3.669  0.00  0.00     0.033 A 
ATOM      2  C8  <0> d           2.114  -6.562   2.902  0.00  0.00     0.032 A 
ATOM      3  C9  <0> d           2.162  -7.855   3.385  0.00  0.00     0.032 A 
ATOM      4  C10 <0> d           2.704  -8.108   4.638  0.00  0.00     0.042 A 
ATOM      5  C11 <0> d           3.199  -7.061   5.405  0.00  0.00     0.032 A 
ATOM      6  C12 <0> d           3.155  -5.769   4.920  0.00  0.00     0.032 A 
ENDROOT
BRANCH   1   7
ATOM      7  N4  <0> d           2.559  -4.204   3.179  0.00  0.00    -0.340 N 
ATOM      8  H8  <0> d           3.260  -3.574   3.410  0.00  0.00     0.167 HD
BRANCH   7   9
ATOM      9  C6  <0> d           1.511  -3.808   2.364  0.00  0.00     0.149 A 
ATOM     10  C5  <0> d           1.515  -2.544   1.770  0.00  0.00     0.076 A 
ATOM     11  C4  <0> d           0.449  -2.191   0.965  0.00  0.00     0.026 A 
ATOM     12  N2  <0> d          -0.539  -3.055   0.781  0.00  0.00    -0.194 N 
ATOM     13  C19 <0> d           0.410  -0.838   0.302  0.00  0.00     0.069 C 
ATOM     14  C3  <0> d          -0.516  -4.248   1.358  0.00  0.00     0.702 A 
ATOM     15  H21 <0> d          -1.289  -2.812   0.216  0.00  0.00     0.184 HD
ATOM     16  N3  <0> d           0.485  -4.623   2.140  0.00  0.00    -0.047 NA
BRANCH  14  17
ATOM     17  N1  <0> d          -1.567  -5.122   1.141  0.00  0.00    -0.225 N 
ATOM     18  H6  <0> d          -1.564  -5.997   1.560  0.00  0.00     0.177 HD
BRANCH  17  19
ATOM     19  C2  <0> d          -2.683  -4.727   0.278  0.00  0.00     0.134 C 
ATOM     20  C1  <0> d          -3.701  -5.866   0.207  0.00  0.00     0.027 C 
ENDBRANCH  17  19
ENDBRANCH  14  17
ENDBRANCH   7   9
ENDBRANCH   1   7
BRANCH   4  21
ATOM     21  N5  <0> d           2.753  -9.418   5.128  0.00  0.00    -0.281 N 
ATOM     22  H13 <0> d           1.979  -9.997   5.042  0.00  0.00     0.179 HD
BRANCH  21  23
ATOM     23  S1  <0> d           4.130  -9.980   5.854  0.00  0.00     0.263 S 
ATOM     24  O1  <0> d           4.472  -9.038   6.861  0.00  0.00    -0.200 OA
ATOM     25  O2  <0> d           3.907 -11.354   6.141  0.00  0.00    -0.200 OA
BRANCH  23  26
ATOM     26  C13 <0> d           5.416  -9.920   4.651  0.00  0.00     0.082 A 
ATOM     27  C18 <0> d           6.262  -8.829   4.599  0.00  0.00     0.067 A 
ATOM     28  C17 <0> d           7.276  -8.784   3.657  0.00  0.00     0.117 A 
ATOM     29  C16 <0> d           7.433  -9.828   2.760  0.00  0.00     0.042 A 
ATOM     30  F1  <0> d           8.108  -7.721   3.609  0.00  0.00    -0.206 F 
ATOM     31  C15 <0> d           6.582 -10.915   2.810  0.00  0.00     0.005 A 
ATOM     32  C14 <0> d           5.574 -10.961   3.755  0.00  0.00     0.025 A 
ENDBRANCH  23  26
ENDBRANCH  21  23
ENDBRANCH   4  21
TORSDOF 7
