REMARK  6 active torsions:
REMARK  status: ('A' for Active; 'I' for Inactive)
REMARK    1  A    between atoms: C5_5  and  C7_7 
REMARK    2  A    between atoms: C8_8  and  C10_11 
REMARK    3  A    between atoms: C12_13  and  N4_19 
REMARK    4  A    between atoms: N2_14  and  C13_16 
REMARK    5  A    between atoms: C13_16  and  C14_17 
REMARK    6  A    between atoms: C14_17  and  O1_18 
ROOT
ATOM      1  C7  <0> d           1.255  -2.152  -0.023  0.00  0.00     0.038 C 
ATOM      2  C8  <0> d           0.096  -2.857   0.087  0.00  0.00     0.077 C 
ATOM      3  C9  <0> d          -1.160  -2.170   0.104  0.00  0.00     0.102 C 
ATOM      4  N1  <0> d          -2.157  -1.625   0.117  0.00  0.00    -0.191 NA
ENDROOT
BRANCH   2   5
ATOM      5  C10 <0> d           0.134  -4.332   0.190  0.00  0.00     0.122 A 
ATOM      6  N3  <0> d           1.209  -5.088   0.186  0.00  0.00    -0.168 NA
ATOM      7  N2  <0> d           0.834  -6.428   0.304  0.00  0.00    -0.250 N 
ATOM      8  C12 <0> d          -0.510  -6.519   0.374  0.00  0.00     0.141 A 
ATOM      9  C11 <0> d          -1.023  -5.228   0.307  0.00  0.00     0.121 A 
ATOM     10  C15 <0> d          -2.403  -4.849   0.345  0.00  0.00     0.106 C 
ATOM     11  N5  <0> d          -3.498  -4.548   0.376  0.00  0.00    -0.191 NA
BRANCH   7  12
ATOM     12  C13 <0> d           1.760  -7.563   0.341  0.00  0.00     0.179 C 
BRANCH  12  13
ATOM     13  C14 <0> d           2.014  -8.060  -1.083  0.00  0.00     0.186 C 
BRANCH  13  14
ATOM     14  O1  <0> d           2.917  -9.167  -1.047  0.00  0.00    -0.399 OA
ATOM     15  H10 <0> d           3.124  -9.534  -1.917  0.00  0.00     0.209 HD
ENDBRANCH  13  14
ENDBRANCH  12  13
ENDBRANCH   7  12
BRANCH   8  16
ATOM     16  N4  <0> d          -1.243  -7.684   0.491  0.00  0.00    -0.383 N 
ATOM     17  H11 <0> d          -2.212  -7.645   0.534  0.00  0.00     0.157 HD
ATOM     18  H12 <0> d          -0.790  -8.541   0.530  0.00  0.00     0.157 HD
ENDBRANCH   8  16
ENDBRANCH   2   5
BRANCH   1  19
ATOM     19  C5  <0> d           1.230  -0.684   0.025  0.00  0.00    -0.017 A 
ATOM     20  C4  <0> d           2.149   0.061  -0.724  0.00  0.00     0.021 A 
ATOM     21  C3  <0> d           2.117   1.439  -0.673  0.00  0.00     0.020 A 
ATOM     22 Br1  <0> d           3.428  -0.820  -1.804  0.00  0.00    -0.050 Br
ATOM     23  C2  <0> d           1.181   2.085   0.115  0.00  0.00     0.001 A 
ATOM     24  C1  <0> d           0.270   1.355   0.859  0.00  0.00     0.001 A 
ATOM     25  C6  <0> d           0.287  -0.022   0.820  0.00  0.00     0.013 A 
ENDBRANCH   1  19
TORSDOF 6
