REMARK  4 active torsions:
REMARK  status: ('A' for Active; 'I' for Inactive)
REMARK    1  A    between atoms: C3_3  and  C7_9 
REMARK    2  A    between atoms: C7_9  and  N3_11 
REMARK       I    between atoms: N3_11  and  C9_12 
REMARK       I    between atoms: C9_12  and  N4_14 
REMARK    3  A    between atoms: N4_14  and  C11_16 
REMARK    4  A    between atoms: C11_16  and  C12_17 
ROOT
ATOM      1  N3  <0> d          -0.616   0.845  -2.745  0.00  0.00    -0.335 N 
ATOM      2  C9  <0> d          -1.168   1.100  -3.947  0.00  0.00     0.318 C 
ATOM      3  O1  <0> d          -0.975   0.342  -4.878  0.00  0.00    -0.247 OA
ATOM      4  N4  <0> d          -1.935   2.195  -4.118  0.00  0.00    -0.334 N 
ATOM      5  C10 <0> d          -2.167   3.109  -2.996  0.00  0.00     0.154 C 
ATOM      6  H14 <0> d          -0.769   1.450  -2.002  0.00  0.00     0.165 HD
ENDROOT
BRANCH   1   7
ATOM      7  C7  <0> d           0.218  -0.346  -2.559  0.00  0.00     0.119 C 
ATOM      8  C8  <0> d           1.647  -0.043  -3.012  0.00  0.00     0.037 C 
BRANCH   7   9
ATOM      9  C3  <0> d           0.223  -0.733  -1.103  0.00  0.00     0.014 A 
ATOM     10  C2  <0> d           0.047  -2.024  -0.594  0.00  0.00     0.061 A 
ATOM     11  C1  <0> d          -0.183  -3.271  -1.407  0.00  0.00     0.073 C 
ATOM     12  N2  <0> d           0.111  -1.960   0.712  0.00  0.00    -0.177 NA
ATOM     13  N1  <0> d           0.339  -0.627   1.075  0.00  0.00    -0.278 N 
ATOM     14  C4  <0> d           0.401   0.107  -0.056  0.00  0.00     0.036 A 
ATOM     15  C5  <0> d           0.480  -0.117   2.441  0.00  0.00     0.179 C 
ATOM     16  C6  <0> d           0.627   1.594  -0.139  0.00  0.00     0.070 C 
ENDBRANCH   7   9
ENDBRANCH   1   7
BRANCH   4  17
ATOM     17  C11 <0> d          -2.535   2.473  -5.425  0.00  0.00     0.174 C 
BRANCH  17  18
ATOM     18  C12 <0> d          -3.892   1.821  -5.503  0.00  0.00     0.020 A 
ATOM     19  S1  <0> d          -4.341   0.188  -6.069  0.00  0.00    -0.077 SA
ATOM     20  C14 <0> d          -6.001   0.303  -5.813  0.00  0.00     0.071 A 
ATOM     21  N5  <0> d          -6.146   1.516  -5.339  0.00  0.00    -0.257 NA
ATOM     22  C15 <0> d          -7.062  -0.735  -6.071  0.00  0.00     0.078 C 
ATOM     23  C13 <0> d          -5.112   2.313  -5.167  0.00  0.00     0.133 A 
ENDBRANCH  17  18
ENDBRANCH   4  17
TORSDOF 4
