REMARK  5 active torsions:
REMARK  status: ('A' for Active; 'I' for Inactive)
REMARK    1  A    between atoms: C3_3  and  C13_17 
REMARK    2  A    between atoms: N3_6  and  C4_7 
REMARK       I    between atoms: C13_17  and  N5_19 
REMARK    3  A    between atoms: N5_19  and  C14_20 
REMARK    4  A    between atoms: C18_24  and  C20_26 
REMARK    5  A    between atoms: C20_26  and  N6_27 
ROOT
ATOM      1  C1  <0> d          -0.892   1.420   0.199  0.00  0.00     0.073 C 
ATOM      2  C2  <0> d          -0.460  -0.019   0.084  0.00  0.00     0.070 A 
ATOM      3  C3  <0> d          -0.326  -0.741  -1.069  0.00  0.00     0.172 A 
ATOM      4  N1  <0> d           0.079  -1.982  -0.750  0.00  0.00    -0.124 NA
ATOM      5  N2  <0> d           0.206  -2.080   0.528  0.00  0.00    -0.060 NA
ATOM      6  N3  <0> d          -0.124  -0.844   1.101  0.00  0.00    -0.217 N 
ENDROOT
BRANCH   3   7
ATOM      7  C13 <0> d          -0.583  -0.241  -2.432  0.00  0.00     0.278 C 
ATOM      8  O1  <0> d          -0.948   0.906  -2.601  0.00  0.00    -0.265 OA
ATOM      9  N5  <0> d          -0.413  -1.057  -3.492  0.00  0.00    -0.322 N 
ATOM     10  H10 <0> d          -0.193  -1.992  -3.354  0.00  0.00     0.169 HD
BRANCH   9  11
ATOM     11  C14 <0> d          -0.553  -0.556  -4.790  0.00  0.00     0.035 A 
ATOM     12  C19 <0> d          -1.070  -1.363  -5.795  0.00  0.00     0.038 A 
ATOM     13  C18 <0> d          -1.213  -0.863  -7.075  0.00  0.00    -0.030 A 
ATOM     14  C17 <0> d          -0.831   0.435  -7.358  0.00  0.00     0.009 A 
ATOM     15  C16 <0> d          -0.311   1.240  -6.361  0.00  0.00     0.003 A 
ATOM     16  C15 <0> d          -0.171   0.748  -5.078  0.00  0.00     0.029 A 
BRANCH  13  17
ATOM     17  C20 <0> d          -1.779  -1.736  -8.165  0.00  0.00     0.272 C 
BRANCH  17  18
ATOM     18  N6  <0> d          -0.687  -2.462  -8.828  0.00  0.00    -0.075 N 
ATOM     19  C21 <0> d          -1.248  -3.401  -9.809  0.00  0.00     0.269 C 
ATOM     20  C22 <0> d           0.191  -1.505  -9.514  0.00  0.00     0.269 C 
ATOM     21  H23 <0> d          -0.156  -2.972  -8.139  0.00  0.00     0.279 HD
ENDBRANCH  17  18
ENDBRANCH  13  17
ENDBRANCH   9  11
ENDBRANCH   3   7
BRANCH   6  22
ATOM     22  C4  <0> d          -0.111  -0.525   2.463  0.00  0.00     0.072 A 
ATOM     23  C9  <0> d          -0.718  -1.386   3.401  0.00  0.00     0.021 A 
ATOM     24  C8  <0> d          -0.690  -1.051   4.777  0.00  0.00     0.069 A 
ATOM     25  C10 <0> d          -1.347  -2.577   3.000  0.00  0.00     0.017 A 
ATOM     26  C7  <0> d          -0.066   0.142   5.181  0.00  0.00     0.032 A 
ATOM     27  N4  <0> d          -1.259  -1.867   5.671  0.00  0.00    -0.260 NA
ATOM     28  C6  <0> d           0.507   0.958   4.254  0.00  0.00     0.005 A 
ATOM     29  C5  <0> d           0.490   0.635   2.901  0.00  0.00     0.032 A 
ATOM     30  C12 <0> d          -1.857  -2.973   5.300  0.00  0.00     0.117 A 
ATOM     31  C11 <0> d          -1.914  -3.363   3.964  0.00  0.00     0.020 A 
ENDBRANCH   6  22
TORSDOF 5
