REMARK  7 active torsions:
REMARK  status: ('A' for Active; 'I' for Inactive)
REMARK    1  A    between atoms: C2_2  and  N1_5 
REMARK       I    between atoms: N1_5  and  C5_6 
REMARK       I    between atoms: C5_6  and  N2_8 
REMARK       I    between atoms: N2_8  and  C6_9 
REMARK    2  A    between atoms: C6_9  and  C7_11 
REMARK    3  A    between atoms: C7_11  and  S1_12 
REMARK    4  A    between atoms: S1_12  and  C8_13 
REMARK    5  A    between atoms: C9_16  and  C12_21 
REMARK    6  A    between atoms: N5_17  and  C10_18 
REMARK    7  A    between atoms: C10_18  and  C11_19 
ROOT
ATOM      1  C8  <0> d           2.172   6.907  -0.142  0.00  0.00     0.192 A 
ATOM      2  N3  <0> d           0.953   7.246   0.210  0.00  0.00    -0.122 NA
ATOM      3  N4  <0> d           0.212   6.201   0.307  0.00  0.00    -0.128 NA
ATOM      4  C9  <0> d           0.914   5.126   0.021  0.00  0.00     0.171 A 
ATOM      5  N5  <0> d           2.193   5.545  -0.271  0.00  0.00    -0.297 N 
ENDROOT
BRANCH   1   6
ATOM      6  S1  <0> d           3.530   8.001  -0.397  0.00  0.00    -0.081 SA
BRANCH   6   7
ATOM      7  C7  <0> d           2.729   9.584  -0.036  0.00  0.00     0.185 C 
BRANCH   7   8
ATOM      8  C6  <0> d           3.730  10.700  -0.194  0.00  0.00     0.235 C 
ATOM      9  N2  <0> d           3.356  11.976   0.025  0.00  0.00    -0.279 N 
ATOM     10  C5  <0> d           4.250  12.974  -0.116  0.00  0.00     0.323 C 
ATOM     11  H11 <0> d           2.443  12.176   0.284  0.00  0.00     0.173 HD
ATOM     12  N1  <0> d           3.876  14.250   0.103  0.00  0.00    -0.335 N 
ATOM     13  O1  <0> d           5.394  12.723  -0.442  0.00  0.00    -0.247 OA
ATOM     14  H10 <0> d           2.963  14.450   0.362  0.00  0.00     0.165 HD
ATOM     15  O2  <0> d           4.871  10.450  -0.518  0.00  0.00    -0.272 OA
BRANCH  12  16
ATOM     16  C2  <0> d           4.848  15.335  -0.051  0.00  0.00     0.023 C 
ATOM     17  C1  <0> d           5.377  15.346  -1.486  0.00  0.00     0.037 C 
ATOM     18  C3  <0> d           4.172  16.673   0.254  0.00  0.00     0.037 C 
ATOM     19  C4  <0> d           6.011  15.119   0.919  0.00  0.00     0.037 C 
ENDBRANCH  12  16
ENDBRANCH   7   8
ENDBRANCH   6   7
ENDBRANCH   1   6
BRANCH   5  20
ATOM     20  C10 <0> d           3.336   4.708  -0.643  0.00  0.00     0.246 C 
BRANCH  20  21
ATOM     21  C11 <0> d           3.374   4.548  -2.141  0.00  0.00     0.192 C 
ATOM     22  O3  <0> d           2.533   5.079  -2.827  0.00  0.00    -0.647 OA
ATOM     23  O4  <0> d           4.343   3.816  -2.713  0.00  0.00    -0.647 OA
ENDBRANCH  20  21
ENDBRANCH   5  20
BRANCH   4  24
ATOM     24  C12 <0> d           0.426   3.737   0.018  0.00  0.00     0.052 A 
ATOM     25  S2  <0> d           1.361   2.216   0.001  0.00  0.00    -0.098 SA
ATOM     26  C15 <0> d          -0.013   1.076   0.008  0.00  0.00     0.050 A 
ATOM     27  C14 <0> d          -1.081   1.915   0.017  0.00  0.00     0.009 A 
ATOM     28  C13 <0> d          -0.866   3.275   0.028  0.00  0.00     0.023 A 
ENDBRANCH   4  24
TORSDOF 7
