REMARK  4 active torsions:
REMARK  status: ('A' for Active; 'I' for Inactive)
REMARK    1  A    between atoms: C6_9  and  C7_10 
REMARK       I    between atoms: N3_13  and  C12_16 
REMARK    2  A    between atoms: C12_16  and  C13_18 
REMARK    3  A    between atoms: C13_18  and  N4_20 
REMARK    4  A    between atoms: N4_20  and  C15_21 
ROOT
ATOM      1  C7  <0> d           1.079   3.108  -0.098  0.00  0.00     0.041 C 
ATOM      2  C8  <0> d           0.684   3.846   1.183  0.00  0.00     0.030 C 
ATOM      3  C9  <0> d           1.369   5.217   1.209  0.00  0.00     0.126 C 
ATOM      4  N3  <0> d           1.035   5.935  -0.028  0.00  0.00    -0.350 N 
ATOM      5  C10 <0> d           1.290   5.278  -1.317  0.00  0.00     0.126 C 
ATOM      6  C11 <0> d           0.607   3.906  -1.315  0.00  0.00     0.030 C 
ATOM      7  C12 <0> d           0.506   7.174   0.018  0.00  0.00     0.250 C 
ATOM      8  O1  <0> d           0.393   7.746   1.081  0.00  0.00    -0.271 OA
ENDROOT
BRANCH   7   9
ATOM      9  C13 <0> d           0.055   7.848  -1.252  0.00  0.00     0.273 C 
ATOM     10  C14 <0> d           1.278   8.322  -2.040  0.00  0.00     0.050 C 
BRANCH   9  11
ATOM     11  N4  <0> d          -0.791   9.003  -0.919  0.00  0.00    -0.058 N 
ATOM     12  H18 <0> d          -1.387   8.774  -0.023  0.00  0.00     0.278 HD
ATOM     13  H31 <0> d          -0.155   9.879  -0.724  0.00  0.00     0.278 HD
BRANCH  11  14
ATOM     14  C15 <0> d          -1.705   9.321  -2.024  0.00  0.00     0.201 C 
ATOM     15  C18 <0> d          -2.102  10.815  -1.949  0.00  0.00     0.173 C 
ATOM     16  S2  <0> d          -3.812  10.814  -2.626  0.00  0.00     0.146 S 
ATOM     17  C17 <0> d          -4.032   9.005  -2.894  0.00  0.00     0.142 C 
ATOM     18  O2  <0> d          -4.710  11.244  -1.613  0.00  0.00    -0.228 OA
ATOM     19  O3  <0> d          -3.811  11.471  -3.885  0.00  0.00    -0.228 OA
ATOM     20  C16 <0> d          -2.960   8.440  -1.919  0.00  0.00     0.049 C 
ENDBRANCH  11  14
ENDBRANCH   9  11
ENDBRANCH   7   9
BRANCH   1  21
ATOM     21  C6  <0> d           0.435   1.745  -0.110  0.00  0.00     0.049 A 
ATOM     22  C4  <0> d           1.075   0.568  -0.158  0.00  0.00     0.105 A 
ATOM     23  S1  <0> d           2.612  -0.317  -0.227  0.00  0.00    -0.073 SA
ATOM     24  N1  <0> d           0.139  -0.445  -0.154  0.00  0.00    -0.297 N 
ATOM     25  C3  <0> d           1.935  -1.970  -0.246  0.00  0.00     0.004 A 
ATOM     26  C2  <0> d           0.625  -1.735  -0.201  0.00  0.00     0.028 A 
ATOM     27  C20 <0> d           2.659  -3.290  -0.299  0.00  0.00     0.058 C 
ATOM     28  C1  <0> d          -0.339  -2.893  -0.199  0.00  0.00     0.070 C 
ATOM     29  C5  <0> d          -1.077   0.203  -0.101  0.00  0.00     0.085 A 
ATOM     30  N2  <0> d          -0.881   1.492  -0.076  0.00  0.00    -0.346 N 
ATOM     31  C19 <0> d          -2.423  -0.473  -0.075  0.00  0.00     0.089 C 
ATOM     32  H32 <0> d          -1.740   2.178  -0.033  0.00  0.00     0.167 HD
ENDBRANCH   1  21
TORSDOF 4
