REMARK  7 active torsions:
REMARK  status: ('A' for Active; 'I' for Inactive)
REMARK    1  A    between atoms: O1_2  and  C2_3 
REMARK    2  A    between atoms: N1_5  and  C6_9 
REMARK    3  A    between atoms: C6_9  and  C7_10 
REMARK    4  A    between atoms: C6_9  and  C8_13 
REMARK    5  A    between atoms: C7_10  and  N3_11 
REMARK    6  A    between atoms: N3_11  and  O2_12 
REMARK    7  A    between atoms: C11_16  and  C14_19 
ROOT
ATOM      1  C6  <0> d           1.676  -4.101  -1.896  0.00  0.00     0.236 C 
ENDROOT
BRANCH   1   2
ATOM      2  N1  <0> d           1.862  -2.645  -1.948  0.00  0.00    -0.056 N 
ATOM      3  C3  <0> d           1.461  -2.054  -0.664  0.00  0.00     0.299 C 
ATOM      4  C2  <0> d           1.673  -0.539  -0.711  0.00  0.00     0.381 C 
ATOM      5  N2  <0> d           0.873   0.031  -1.804  0.00  0.00     0.115 N 
ATOM      6  C5  <0> d           1.246  -0.569  -3.092  0.00  0.00     0.300 C 
ATOM      7  H12 <0> d          -0.114  -0.080  -1.625  0.00  0.00     0.319 HD
ATOM      8  C4  <0> d           1.038  -2.084  -3.026  0.00  0.00     0.266 C 
ATOM      9  H26 <0> d           2.834  -2.437  -2.124  0.00  0.00     0.281 HD
BRANCH   4  10
ATOM     10  O1  <0> d           1.265   0.038   0.531  0.00  0.00    -0.361 OA
ATOM     11  C1  <0> d           1.627   1.412   0.680  0.00  0.00     0.204 C 
ENDBRANCH   4  10
ENDBRANCH   1   2
BRANCH   1  12
ATOM     12  C7  <0> d           2.237  -4.733  -3.171  0.00  0.00     0.155 C 
BRANCH  12  13
ATOM     13  N3  <0> d           1.423  -4.320  -4.322  0.00  0.00    -0.206 NA
ATOM     14  H15 <0> d           0.452  -4.557  -4.181  0.00  0.00     0.153 HD
BRANCH  13  15
ATOM     15  O2  <0> d           1.932  -4.907  -5.562  0.00  0.00    -0.316 OA
ATOM     16  H16 <0> d           1.426  -4.663  -6.349  0.00  0.00     0.236 HD
ENDBRANCH  13  15
ENDBRANCH  12  13
ENDBRANCH   1  12
BRANCH   1  17
ATOM     17  C8  <0> d           2.401  -4.658  -0.698  0.00  0.00    -0.026 A 
ATOM     18  C13 <0> d           1.818  -5.662   0.054  0.00  0.00     0.010 A 
ATOM     19  C12 <0> d           2.480  -6.180   1.149  0.00  0.00     0.013 A 
ATOM     20  C11 <0> d           3.732  -5.682   1.503  0.00  0.00    -0.026 A 
ATOM     21  C10 <0> d           4.312  -4.666   0.745  0.00  0.00     0.013 A 
ATOM     22  C9  <0> d           3.643  -4.160  -0.351  0.00  0.00     0.010 A 
BRANCH  20  23
ATOM     23  C14 <0> d           4.446  -6.231   2.682  0.00  0.00    -0.026 A 
ATOM     24  C19 <0> d           3.867  -7.246   3.440  0.00  0.00     0.012 A 
ATOM     25  C18 <0> d           4.538  -7.757   4.533  0.00  0.00     0.001 A 
ATOM     26  C17 <0> d           5.778  -7.255   4.883  0.00  0.00     0.000 A 
ATOM     27  C16 <0> d           6.355  -6.242   4.137  0.00  0.00     0.001 A 
ATOM     28  C15 <0> d           5.696  -5.729   3.039  0.00  0.00     0.012 A 
ENDBRANCH  20  23
ENDBRANCH   1  17
TORSDOF 7
