REMARK  4 active torsions:
REMARK  status: ('A' for Active; 'I' for Inactive)
REMARK    1  A    between atoms: C2_2  and  C3_3 
REMARK    2  A    between atoms: C2_2  and  N2_8 
REMARK       I    between atoms: C3_3  and  N1_5 
REMARK    3  A    between atoms: N2_8  and  C6_9 
REMARK    4  A    between atoms: C6_9  and  C15_19 
ROOT
ATOM      1  C6  <0> d          -1.394   0.334  -1.647  0.00  0.00     0.242 C 
ATOM      2  C7  <0> d          -2.888   0.165  -1.862  0.00  0.00     0.066 C 
ATOM      3  C8  <0> d          -3.218  -1.333  -1.944  0.00  0.00     0.083 C 
ATOM      4  S1  <0> d          -2.583  -1.933  -3.538  0.00  0.00    -0.129 SA
ATOM      5  C9  <0> d          -0.968  -1.226  -3.624  0.00  0.00     0.009 A 
ATOM      6  C10 <0> d          -0.555  -0.234  -2.753  0.00  0.00     0.005 A 
ATOM      7  C11 <0> d           0.729   0.287  -2.891  0.00  0.00     0.011 A 
ATOM      8  C12 <0> d           1.582  -0.176  -3.869  0.00  0.00     0.001 A 
ATOM      9  C13 <0> d           1.170  -1.175  -4.732  0.00  0.00     0.001 A 
ATOM     10  C14 <0> d          -0.100  -1.696  -4.610  0.00  0.00     0.019 A 
ENDROOT
BRANCH   1  11
ATOM     11  N2  <0> d          -1.024  -0.330  -0.389  0.00  0.00    -0.039 N 
ATOM     12  H11 <0> d          -1.276  -1.306  -0.437  0.00  0.00     0.280 HD
ATOM     13  H20 <0> d          -1.514   0.106   0.378  0.00  0.00     0.280 HD
BRANCH  11  14
ATOM     14  C2  <0> d           0.424  -0.208  -0.179  0.00  0.00     0.275 C 
ATOM     15  C1  <0> d           0.740  -0.376   1.309  0.00  0.00     0.050 C 
BRANCH  14  16
ATOM     16  C3  <0> d           1.139  -1.274  -0.968  0.00  0.00     0.249 C 
ATOM     17  O1  <0> d           0.519  -2.219  -1.409  0.00  0.00    -0.271 OA
ATOM     18  N1  <0> d           2.466  -1.179  -1.184  0.00  0.00    -0.359 N 
ATOM     19  C4  <0> d           3.183  -2.277  -1.837  0.00  0.00     0.152 C 
ATOM     20  C5  <0> d           3.191   0.023  -0.765  0.00  0.00     0.152 C 
ENDBRANCH  14  16
ENDBRANCH  11  14
ENDBRANCH   1  11
BRANCH   1  21
ATOM     21  C15 <0> d          -1.092   1.805  -1.520  0.00  0.00     0.215 C 
ATOM     22  O2  <0> d          -0.681   2.254  -0.463  0.00  0.00    -0.646 OA
ATOM     23  O3  <0> d          -1.259   2.546  -2.474  0.00  0.00    -0.646 OA
ENDBRANCH   1  21
TORSDOF 4
