REMARK  4 active torsions:
REMARK  status: ('A' for Active; 'I' for Inactive)
REMARK    1  A    between atoms: C2_2  and  C3_3 
REMARK    2  A    between atoms: C2_2  and  N3_16 
REMARK       I    between atoms: C3_3  and  N1_5 
REMARK    3  A    between atoms: N1_5  and  C4_6 
REMARK    4  A    between atoms: N4_19  and  C17_22 
ROOT
ATOM      1  N3  <0> d          -5.893   2.502   0.044  0.00  0.00    -0.056 N 
ATOM      2  C13 <0> d          -5.769   3.406   1.195  0.00  0.00     0.251 C 
ATOM      3  C14 <0> d          -6.900   4.437   1.155  0.00  0.00     0.125 C 
ATOM      4  N4  <0> d          -8.194   3.741   1.174  0.00  0.00    -0.264 NA
ATOM      5  C15 <0> d          -8.319   2.836   0.022  0.00  0.00     0.125 C 
ATOM      6  C16 <0> d          -7.187   1.806   0.062  0.00  0.00     0.251 C 
ATOM      7  H25 <0> d          -5.847   3.109  -0.872  0.00  0.00     0.281 HD
ENDROOT
BRANCH   1   8
ATOM      8  C2  <0> d          -4.781   1.543   0.005  0.00  0.00     0.275 C 
ATOM      9  C1  <0> d          -4.997   0.467   1.070  0.00  0.00     0.050 C 
BRANCH   8  10
ATOM     10  C3  <0> d          -4.721   0.898  -1.356  0.00  0.00     0.253 C 
ATOM     11  O1  <0> d          -5.657   1.004  -2.119  0.00  0.00    -0.271 OA
ATOM     12  N1  <0> d          -3.626   0.204  -1.725  0.00  0.00    -0.325 N 
ATOM     13  H5  <0> d          -2.806   0.049  -1.009  0.00  0.00     0.169 HD
BRANCH  12  14
ATOM     14  C4  <0> d          -3.533  -0.317  -3.016  0.00  0.00     0.047 A 
ATOM     15  C9  <0> d          -2.273  -0.490  -3.625  0.00  0.00     0.019 A 
ATOM     16  C8  <0> d          -2.197  -1.016  -4.938  0.00  0.00     0.069 A 
ATOM     17  C10 <0> d          -1.085  -0.146  -2.958  0.00  0.00     0.017 A 
ATOM     18  C7  <0> d          -3.383  -1.361  -5.608  0.00  0.00     0.032 A 
ATOM     19  N2  <0> d          -1.005  -1.177  -5.522  0.00  0.00    -0.260 NA
ATOM     20  C6  <0> d          -4.587  -1.189  -4.996  0.00  0.00     0.005 A 
ATOM     21  C5  <0> d          -4.672  -0.674  -3.707  0.00  0.00     0.030 A 
ATOM     22  C12 <0> d           0.106  -0.857  -4.903  0.00  0.00     0.117 A 
ATOM     23  C11 <0> d           0.101  -0.336  -3.611  0.00  0.00     0.020 A 
ENDBRANCH  12  14
ENDBRANCH   8  10
ENDBRANCH   1   8
BRANCH   4  24
ATOM     24  C17 <0> d          -9.240   4.642   1.210  0.00  0.00     0.122 A 
ATOM     25  N8  <0> d         -10.188   4.622   0.280  0.00  0.00    -0.229 NA
ATOM     26  C21 <0> d         -11.194   5.478   0.310  0.00  0.00     0.237 A 
ATOM     27  N7  <0> d         -11.317   6.396   1.243  0.00  0.00    -0.222 NA
ATOM     28  C20 <0> d         -10.414   6.500   2.218  0.00  0.00     0.162 A 
ATOM     29  C18 <0> d          -9.325   5.607   2.232  0.00  0.00     0.071 A 
ATOM     30  N6  <0> d         -10.261   7.317   3.298  0.00  0.00    -0.256 N 
ATOM     31  C19 <0> d          -8.536   5.935   3.356  0.00  0.00     0.157 A 
ATOM     32  N5  <0> d          -9.094   6.938   3.973  0.00  0.00    -0.182 NA
ATOM     33  C22 <0> d         -11.162   8.406   3.685  0.00  0.00     0.182 C 
ENDBRANCH   4  24
TORSDOF 4
