REMARK  1 active torsions:
REMARK  status: ('A' for Active; 'I' for Inactive)
REMARK    1  A    between atoms: C10_13  and  C11_16 
ROOT
ATOM      1  C1  <0> d          -0.017   1.377   0.010  0.00  0.00     0.071 A 
ATOM      2  C2  <0> d           1.181   2.080   0.002  0.00  0.00     0.065 A 
ATOM      3  C3  <0> d           2.404   1.390  -0.015  0.00  0.00     0.088 A 
ATOM      4  C4  <0> d           2.408  -0.009  -0.025  0.00  0.00     0.073 A 
ATOM      5  C5  <0> d           1.212  -0.694  -0.016  0.00  0.00     0.104 A 
ATOM      6  C6  <0> d           0.002  -0.004   0.002  0.00  0.00     0.104 A 
ATOM      7  O1  <0> d          -1.171  -0.703   0.013  0.00  0.00    -0.348 OA
ATOM      8  C7  <0> d          -1.480  -1.426  -1.180  0.00  0.00     0.178 C 
ATOM      9  C8  <0> d          -0.801  -2.787  -1.176  0.00  0.00     0.053 C 
ATOM     10  C9  <0> d           0.715  -2.678  -1.212  0.00  0.00     0.178 C 
ATOM     11  O2  <0> d           1.208  -2.060  -0.023  0.00  0.00    -0.348 OA
ATOM     12  N1  <0> d           3.388   2.326  -0.018  0.00  0.00    -0.230 NA
ATOM     13  C10 <0> d           2.861   3.515  -0.004  0.00  0.00     0.136 A 
ATOM     14  N2  <0> d           1.503   3.425   0.008  0.00  0.00    -0.340 N 
ATOM     15  H1  <0> d           0.877   4.166   0.019  0.00  0.00     0.167 HD
ENDROOT
BRANCH  13  16
ATOM     16  C11 <0> d           3.640   4.805  -0.002  0.00  0.00     0.214 C 
ATOM     17  O4  <0> d           4.366   4.928  -1.228  0.00  0.00    -0.374 OA
ATOM     18  C14 <0> d           5.179   6.103  -1.298  0.00  0.00     0.195 C 
ATOM     19  C13 <0> d           6.166   6.103  -0.126  0.00  0.00     0.193 C 
ATOM     20  O3  <0> d           5.439   5.981   1.100  0.00  0.00    -0.386 OA
ATOM     21  C12 <0> d           4.627   4.805   1.170  0.00  0.00     0.207 C 
ENDBRANCH  13  16
TORSDOF 1
