REMARK  2 active torsions:
REMARK  status: ('A' for Active; 'I' for Inactive)
REMARK    1  A    between atoms: C6_6  and  N1_7 
REMARK       I    between atoms: N2_8  and  C9_12 
REMARK    2  A    between atoms: C9_12  and  C10_14 
ROOT
ATOM      1  C1  <0> d           0.028   1.432   0.021  0.00  0.00     0.030 A 
ATOM      2  C2  <0> d           1.207   2.123   0.221  0.00  0.00     0.023 A 
ATOM      3  C3  <0> d           2.419   1.445   0.262  0.00  0.00     0.027 A 
ATOM      4  C4  <0> d           2.452   0.063   0.104  0.00  0.00     0.056 A 
ATOM      5  C5  <0> d           1.261  -0.627  -0.103  0.00  0.00     0.060 A 
ATOM      6  C6  <0> d           0.054   0.054  -0.144  0.00  0.00     0.028 A 
ATOM      7  N2  <0> d           3.637  -0.675   0.159  0.00  0.00    -0.314 N 
ATOM      8  C7  <0> d           4.956  -0.078  -0.028  0.00  0.00     0.142 C 
ATOM      9  C8  <0> d           5.116   1.086   0.962  0.00  0.00     0.100 C 
ATOM     10  S1  <0> d           3.905   2.364   0.510  0.00  0.00    -0.126 SA
ATOM     11  C9  <0> d           3.559  -2.000   0.395  0.00  0.00     0.255 C 
ATOM     12  O1  <0> d           2.492  -2.505   0.673  0.00  0.00    -0.270 OA
ENDROOT
BRANCH  11  13
ATOM     13  C10 <0> d           4.798  -2.854   0.314  0.00  0.00     0.237 C 
ATOM     14  O3  <0> d           4.501  -4.173   0.782  0.00  0.00    -0.372 OA
ATOM     15  C13 <0> d           5.609  -5.074   0.695  0.00  0.00     0.195 C 
ATOM     16  C12 <0> d           6.083  -5.151  -0.759  0.00  0.00     0.193 C 
ATOM     17  O2  <0> d           6.381  -3.831  -1.226  0.00  0.00    -0.386 OA
ATOM     18  C11 <0> d           5.273  -2.930  -1.141  0.00  0.00     0.209 C 
ENDBRANCH  11  13
BRANCH   6  19
ATOM     19  N1  <0> d          -1.138  -0.649  -0.352  0.00  0.00    -0.399 N 
ATOM     20  H5  <0> d          -1.983  -0.173  -0.380  0.00  0.00     0.156 HD
ATOM     21  H6  <0> d          -1.120  -1.612  -0.467  0.00  0.00     0.156 HD
ENDBRANCH   6  19
TORSDOF 2
