REMARK  7 active torsions:
REMARK  status: ('A' for Active; 'I' for Inactive)
REMARK    1  A    between atoms: C2_2  and  C4_4 
REMARK    2  A    between atoms: C4_4  and  C5_5 
REMARK       I    between atoms: C5_5  and  N1_7 
REMARK    3  A    between atoms: N1_7  and  C6_8 
REMARK    4  A    between atoms: C9_11  and  C12_14 
REMARK    5  A    between atoms: C13_17  and  N4_20 
REMARK    6  A    between atoms: N4_20  and  C15_21 
REMARK    7  A    between atoms: C15_21  and  C16_22 
ROOT
ATOM      1  C6  <0> d          -2.617  -4.105  -0.343  0.00  0.00     0.034 A 
ATOM      2  C7  <0> d          -1.433  -4.828  -0.442  0.00  0.00     0.030 A 
ATOM      3  C8  <0> d          -1.469  -6.189  -0.648  0.00  0.00     0.016 A 
ATOM      4  C9  <0> d          -2.700  -6.845  -0.759  0.00  0.00    -0.009 A 
ATOM      5  C10 <0> d          -3.889  -6.113  -0.659  0.00  0.00     0.016 A 
ATOM      6  C11 <0> d          -3.842  -4.753  -0.447  0.00  0.00     0.030 A 
ENDROOT
BRANCH   4   7
ATOM      7  C12 <0> d          -2.745  -8.298  -0.980  0.00  0.00     0.074 C 
ATOM      8  C14 <0> d          -4.090  -8.978  -1.095  0.00  0.00     0.144 C 
ATOM      9  S1  <0> d          -3.899 -10.357  -2.277  0.00  0.00    -0.087 SA
ATOM     10  C13 <0> d          -2.321 -11.008  -1.806  0.00  0.00     0.157 C 
ATOM     11  N3  <0> d          -1.442 -10.184  -1.275  0.00  0.00    -0.257 N 
ATOM     12  N2  <0> d          -1.636  -8.948  -1.064  0.00  0.00    -0.176 NA
ATOM     13  H20 <0> d          -0.579 -10.550  -1.026  0.00  0.00     0.191 HD
BRANCH  10  14
ATOM     14  N4  <0> d          -2.022 -12.336  -1.990  0.00  0.00    -0.361 N 
ATOM     15  H17 <0> d          -1.153 -12.678  -1.727  0.00  0.00     0.161 HD
BRANCH  14  16
ATOM     16  C15 <0> d          -3.015 -13.236  -2.583  0.00  0.00     0.239 C 
BRANCH  16  17
ATOM     17  C16 <0> d          -2.433 -14.648  -2.675  0.00  0.00     0.403 C 
ATOM     18  F1  <0> d          -2.100 -15.100  -1.393  0.00  0.00    -0.169 F 
ATOM     19  F2  <0> d          -3.381 -15.507  -3.241  0.00  0.00    -0.169 F 
ATOM     20  F3  <0> d          -1.285 -14.628  -3.475  0.00  0.00    -0.169 F 
ENDBRANCH  16  17
ENDBRANCH  14  16
ENDBRANCH  10  14
ENDBRANCH   4   7
BRANCH   1  21
ATOM     21  N1  <0> d          -2.574  -2.724  -0.133  0.00  0.00    -0.327 N 
ATOM     22  C5  <0> d          -1.597  -1.986  -0.696  0.00  0.00     0.222 C 
ATOM     23  O1  <0> d          -0.706  -2.530  -1.314  0.00  0.00    -0.273 OA
ATOM     24  H10 <0> d          -3.249  -2.296   0.417  0.00  0.00     0.169 HD
BRANCH  22  25
ATOM     25  C4  <0> d          -1.609  -0.485  -0.556  0.00  0.00     0.107 C 
BRANCH  25  26
ATOM     26  C2  <0> d          -0.398   0.104  -1.281  0.00  0.00    -0.014 C 
ATOM     27  C1  <0> d          -0.477   1.632  -1.247  0.00  0.00     0.010 C 
ATOM     28  C3  <0> d           0.886  -0.356  -0.588  0.00  0.00     0.010 C 
ENDBRANCH  25  26
ENDBRANCH  22  25
ENDBRANCH   1  21
TORSDOF 7
