REMARK  3 active torsions:
REMARK  status: ('A' for Active; 'I' for Inactive)
REMARK    1  A    between atoms: C2_2  and  N1_3 
REMARK    2  A    between atoms: C10_12  and  C11_14 
REMARK       I    between atoms: C11_14  and  N3_16 
REMARK    3  A    between atoms: N3_16  and  C12_17 
ROOT
ATOM      1  N1  <0> d          -1.383  -0.481   0.013  0.00  0.00    -0.269 N 
ATOM      2  C3  <0> d          -2.005  -0.701  -1.192  0.00  0.00     0.067 A 
ATOM      3  C4  <0> d          -1.359  -0.446  -2.399  0.00  0.00     0.035 A 
ATOM      4  C5  <0> d          -2.013  -0.678  -3.588  0.00  0.00     0.044 A 
ATOM      5  C6  <0> d          -3.315  -1.166  -3.603  0.00  0.00     0.117 A 
ATOM      6  C7  <0> d          -3.975  -1.425  -2.419  0.00  0.00     0.060 A 
ATOM      7  C8  <0> d          -3.324  -1.194  -1.210  0.00  0.00     0.048 A 
ATOM      8  C9  <0> d          -3.972  -1.451   0.090  0.00  0.00     0.220 A 
ATOM      9  O1  <0> d          -5.111  -1.878   0.169  0.00  0.00    -0.285 OA
ATOM     10  C10 <0> d          -3.164  -1.160   1.288  0.00  0.00     0.195 A 
ATOM     11  N2  <0> d          -1.938  -0.707   1.144  0.00  0.00    -0.162 NA
ATOM     12  F1  <0> d          -3.937  -1.386  -4.782  0.00  0.00    -0.206 F 
ENDROOT
BRANCH  10  13
ATOM     13  C11 <0> d          -3.721  -1.383   2.635  0.00  0.00     0.280 C 
ATOM     14  O2  <0> d          -4.854  -1.808   2.761  0.00  0.00    -0.265 OA
ATOM     15  N3  <0> d          -2.976  -1.115   3.725  0.00  0.00    -0.321 N 
ATOM     16  H9  <0> d          -2.047  -0.853   3.626  0.00  0.00     0.169 HD
BRANCH  15  17
ATOM     17  C12 <0> d          -3.542  -1.216   5.000  0.00  0.00     0.041 A 
ATOM     18  C17 <0> d          -2.733  -1.461   6.103  0.00  0.00    -0.035 A 
ATOM     19  C16 <0> d          -3.295  -1.554   7.362  0.00  0.00     0.015 A 
ATOM     20  C18 <0> d          -1.245  -1.619   5.927  0.00  0.00     0.050 C 
ATOM     21  C15 <0> d          -4.661  -1.415   7.523  0.00  0.00    -0.061 A 
ATOM     22  C14 <0> d          -5.469  -1.176   6.426  0.00  0.00     0.009 A 
ATOM     23  C19 <0> d          -5.270  -1.523   8.897  0.00  0.00     0.048 C 
ATOM     24  C13 <0> d          -4.914  -1.076   5.166  0.00  0.00     0.030 A 
ENDBRANCH  15  17
ENDBRANCH  10  13
BRANCH   1  25
ATOM     25  C2  <0> d          -0.011   0.033   0.003  0.00  0.00     0.147 C 
ATOM     26  C1  <0> d          -0.039   1.563   0.021  0.00  0.00     0.028 C 
ENDBRANCH   1  25
TORSDOF 3
