REMARK  6 active torsions:
REMARK  status: ('A' for Active; 'I' for Inactive)
REMARK    1  A    between atoms: N1_2  and  C3_4 
REMARK    2  A    between atoms: C3_4  and  C4_5 
REMARK    3  A    between atoms: C3_4  and  C13_19 
REMARK    4  A    between atoms: C4_5  and  N2_6 
REMARK       I    between atoms: N2_6  and  C5_7 
REMARK    5  A    between atoms: C5_7  and  C6_9 
REMARK       I    between atoms: C6_9  and  N3_11 
REMARK    6  A    between atoms: N3_11  and  C7_12 
ROOT
ATOM      1  N2  <0> d          -0.172  -3.017   0.797  0.00  0.00    -0.351 N 
ATOM      2  C5  <0> d           0.054  -4.346   0.803  0.00  0.00     0.309 C 
ATOM      3  O1  <0> d          -0.467  -5.053  -0.034  0.00  0.00    -0.262 OA
ATOM      4  H10 <0> d           0.244  -2.451   1.466  0.00  0.00     0.162 HD
ENDROOT
BRANCH   1   5
ATOM      5  C4  <0> d          -1.047  -2.427  -0.220  0.00  0.00     0.161 C 
BRANCH   5   6
ATOM      6  C3  <0> d          -1.235  -0.937   0.072  0.00  0.00     0.244 C 
BRANCH   6   7
ATOM      7  N1  <0> d          -2.082  -0.338  -0.968  0.00  0.00    -0.068 N 
ATOM      8  C1  <0> d          -2.181   1.110  -0.745  0.00  0.00     0.270 C 
ATOM      9  C2  <0> d          -1.490  -0.591  -2.288  0.00  0.00     0.270 C 
ATOM     10  H19 <0> d          -3.003  -0.748  -0.928  0.00  0.00     0.279 HD
ENDBRANCH   6   7
BRANCH   6  11
ATOM     11  C13 <0> d          -1.893  -0.767   1.416  0.00  0.00     0.015 A 
ATOM     12  S1  <0> d          -3.619  -0.917   1.850  0.00  0.00    -0.104 SA
ATOM     13  C16 <0> d          -3.472  -0.562   3.594  0.00  0.00     0.050 A 
ATOM     14  C15 <0> d          -2.139  -0.350   3.725  0.00  0.00     0.008 A 
ATOM     15  C14 <0> d          -1.331  -0.455   2.609  0.00  0.00     0.017 A 
ENDBRANCH   6  11
ENDBRANCH   5   6
ENDBRANCH   1   5
BRANCH   2  16
ATOM     16  C6  <0> d           0.945  -4.947   1.839  0.00  0.00     0.314 C 
ATOM     17  O2  <0> d           1.466  -4.239   2.677  0.00  0.00    -0.262 OA
ATOM     18  N3  <0> d           1.172  -6.276   1.845  0.00  0.00    -0.318 N 
ATOM     19  H11 <0> d           0.827  -6.829   1.127  0.00  0.00     0.169 HD
BRANCH  18  20
ATOM     20  C7  <0> d           1.903  -6.855   2.885  0.00  0.00     0.052 A 
ATOM     21  C12 <0> d           2.718  -7.953   2.636  0.00  0.00     0.037 A 
ATOM     22  C11 <0> d           3.445  -8.520   3.666  0.00  0.00     0.021 A 
ATOM     23 Br1  <0> d           2.839  -8.665   0.889  0.00  0.00    -0.049 Br
ATOM     24  C10 <0> d           3.352  -8.003   4.945  0.00  0.00     0.002 A 
ATOM     25  C9  <0> d           2.537  -6.914   5.197  0.00  0.00     0.002 A 
ATOM     26  C8  <0> d           1.813  -6.339   4.172  0.00  0.00     0.031 A 
ENDBRANCH  18  20
ENDBRANCH   2  16
TORSDOF 6
