REMARK  5 active torsions:
REMARK  status: ('A' for Active; 'I' for Inactive)
REMARK    1  A    between atoms: C2_2  and  N1_3 
REMARK    2  A    between atoms: N1_3  and  C3_4 
REMARK    3  A    between atoms: N1_3  and  C7_10 
REMARK    4  A    between atoms: C3_4  and  C4_5 
REMARK       I    between atoms: C4_5  and  N2_7 
REMARK    5  A    between atoms: C11_14  and  N3_16 
ROOT
ATOM      1  C7  <0> d          -0.038  -0.713  -2.373  0.00  0.00     0.032 A 
ATOM      2  C8  <0> d           0.610  -1.166  -3.515  0.00  0.00     0.029 A 
ATOM      3  C9  <0> d          -0.107  -1.400  -4.672  0.00  0.00     0.004 A 
ATOM      4  C10 <0> d          -1.472  -1.184  -4.698  0.00  0.00     0.029 A 
ATOM      5  C11 <0> d          -2.127  -0.730  -3.560  0.00  0.00     0.027 A 
ATOM      6  C12 <0> d          -1.409  -0.500  -2.394  0.00  0.00     0.058 A 
ENDROOT
BRANCH   1   7
ATOM      7  N1  <0> d           0.688  -0.476  -1.203  0.00  0.00    -0.372 N 
BRANCH   7   8
ATOM      8  C2  <0> d           0.002  -0.004   0.002  0.00  0.00     0.119 C 
ATOM      9  C1  <0> d          -0.019   1.526   0.010  0.00  0.00     0.026 C 
ENDBRANCH   7   8
BRANCH   7  10
ATOM     10  C3  <0> d           2.135  -0.701  -1.182  0.00  0.00     0.225 C 
BRANCH  10  11
ATOM     11  C4  <0> d           2.417  -2.123  -0.770  0.00  0.00     0.236 C 
ATOM     12  O1  <0> d           1.499  -2.875  -0.518  0.00  0.00    -0.272 OA
ATOM     13  N2  <0> d           3.689  -2.559  -0.680  0.00  0.00    -0.359 N 
ATOM     14  C5  <0> d           3.963  -3.942  -0.280  0.00  0.00     0.152 C 
ATOM     15  C6  <0> d           4.798  -1.651  -0.984  0.00  0.00     0.152 C 
ENDBRANCH  10  11
ENDBRANCH   7  10
ENDBRANCH   1   7
BRANCH   5  16
ATOM     16  N3  <0> d          -3.506  -0.511  -3.587  0.00  0.00    -0.399 N 
ATOM     17  H18 <0> d          -4.007  -0.676  -4.401  0.00  0.00     0.156 HD
ATOM     18  H19 <0> d          -3.962  -0.195  -2.792  0.00  0.00     0.156 HD
ENDBRANCH   5  16
TORSDOF 5
