REMARK  3 active torsions:
REMARK  status: ('A' for Active; 'I' for Inactive)
REMARK    1  A    between atoms: C4_4  and  C5_7 
REMARK    2  A    between atoms: C5_7  and  N2_8 
REMARK    3  A    between atoms: C7_11  and  C10_16 
ROOT
ATOM      1  N2  <0> d          -3.943   0.944  -1.762  0.00  0.00    -0.262 N 
ATOM      2  C6  <0> d          -3.591   1.737  -0.726  0.00  0.00     0.261 A 
ATOM      3  O2  <0> d          -4.039   2.829  -0.450  0.00  0.00    -0.270 OA
ATOM      4  C7  <0> d          -2.513   0.975   0.019  0.00  0.00     0.140 A 
ATOM      5  N3  <0> d          -2.372  -0.274  -0.750  0.00  0.00    -0.321 N 
ATOM      6  C8  <0> d          -3.247  -0.199  -1.769  0.00  0.00     0.326 A 
ATOM      7  O3  <0> d          -3.390  -1.071  -2.603  0.00  0.00    -0.247 OA
ATOM      8  C9  <0> d          -2.958   0.677   1.452  0.00  0.00     0.054 C 
ATOM      9  H7  <0> d          -1.766  -1.007  -0.559  0.00  0.00     0.165 HD
ENDROOT
BRANCH   4  10
ATOM     10  C10 <0> d          -1.219   1.748   0.017  0.00  0.00    -0.021 A 
ATOM     11  C15 <0> d          -0.013   1.076   0.008  0.00  0.00     0.017 A 
ATOM     12  C14 <0> d           1.179   1.782   0.000  0.00  0.00    -0.051 A 
ATOM     13  C13 <0> d           1.159   3.164   0.008  0.00  0.00    -0.052 A 
ATOM     14  C16 <0> d           2.610   1.291  -0.016  0.00  0.00     0.039 C 
ATOM     15  C12 <0> d          -0.052   3.836   0.022  0.00  0.00     0.008 A 
ATOM     16  C18 <0> d           2.576   3.696  -0.004  0.00  0.00     0.039 C 
ATOM     17  C11 <0> d          -1.239   3.130   0.030  0.00  0.00     0.011 A 
ATOM     18  C17 <0> d           3.450   2.509  -0.459  0.00  0.00     0.009 C 
ENDBRANCH   4  10
BRANCH   1  19
ATOM     19  C5  <0> d          -4.963   1.292  -2.754  0.00  0.00     0.198 C 
BRANCH  19  20
ATOM     20  C4  <0> d          -6.309   0.801  -2.284  0.00  0.00     0.083 A 
ATOM     21  C3  <0> d          -7.282   1.543  -1.577  0.00  0.00     0.065 A 
ATOM     22  C2  <0> d          -8.296   0.663  -1.394  0.00  0.00     0.077 A 
ATOM     23  C1  <0> d          -9.602   0.926  -0.691  0.00  0.00     0.079 C 
ATOM     24  O1  <0> d          -7.907  -0.487  -1.963  0.00  0.00    -0.218 OA
ATOM     25  N1  <0> d          -6.807  -0.390  -2.455  0.00  0.00    -0.131 NA
ENDBRANCH  19  20
ENDBRANCH   1  19
TORSDOF 3
