REMARK  4 active torsions:
REMARK  status: ('A' for Active; 'I' for Inactive)
REMARK    1  A    between atoms: C3_4  and  O4_15 
REMARK    2  A    between atoms: N1_11  and  C9_12 
REMARK    3  A    between atoms: C9_12  and  C10_13 
REMARK    4  A    between atoms: C10_13  and  O3_14 
ROOT
ATOM      1  C1  <0> d           0.660  -0.692  -1.334  0.00  0.00     0.149 C 
ATOM      2  C2  <0> d          -0.069  -0.287  -0.049  0.00  0.00     0.192 C 
ATOM      3  O1  <0> d          -0.184   1.138   0.014  0.00  0.00    -0.345 OA
ATOM      4  C3  <0> d           1.077   1.810   0.059  0.00  0.00     0.226 C 
ATOM      5  C4  <0> d           0.903   3.289   0.140  0.00  0.00     0.051 C 
ATOM      6  C5  <0> d           1.538   4.138  -0.652  0.00  0.00     0.056 C 
ATOM      7  C6  <0> d           2.459   3.640  -1.690  0.00  0.00     0.173 C 
ATOM      8  O2  <0> d           3.119   4.419  -2.354  0.00  0.00    -0.288 OA
ATOM      9  C7  <0> d           2.566   2.246  -1.902  0.00  0.00     0.085 C 
ATOM     10  C8  <0> d           1.897   1.381  -1.125  0.00  0.00     0.078 C 
ATOM     11  N1  <0> d           1.945   0.029  -1.395  0.00  0.00    -0.375 N 
ENDROOT
BRANCH  11  12
ATOM     12  C9  <0> d           3.200  -0.651  -1.725  0.00  0.00     0.149 C 
BRANCH  12  13
ATOM     13  C10 <0> d           3.920  -1.047  -0.434  0.00  0.00     0.183 C 
BRANCH  13  14
ATOM     14  O3  <0> d           3.144  -2.022   0.264  0.00  0.00    -0.399 OA
ATOM     15  H12 <0> d           3.541  -2.320   1.094  0.00  0.00     0.209 HD
ENDBRANCH  13  14
ENDBRANCH  12  13
ENDBRANCH  11  12
BRANCH   4  16
ATOM     16  O4  <0> d           1.758   1.392   1.244  0.00  0.00    -0.357 OA
ATOM     17  H13 <0> d           1.283   1.593   2.062  0.00  0.00     0.213 HD
ENDBRANCH   4  16
TORSDOF 4
