REMARK  7 active torsions:
REMARK  status: ('A' for Active; 'I' for Inactive)
REMARK    1  A    between atoms: C2_2  and  C3_3 
REMARK    2  A    between atoms: C2_2  and  N3_17 
REMARK       I    between atoms: C3_3  and  N1_5 
REMARK    3  A    between atoms: N1_5  and  C4_6 
REMARK    4  A    between atoms: C4_6  and  C5_7 
REMARK    5  A    between atoms: C5_7  and  C6_8 
REMARK       I    between atoms: N3_17  and  C14_18 
REMARK    6  A    between atoms: C14_18  and  C15_20 
REMARK    7  A    between atoms: C22_28  and  O3_29 
ROOT
ATOM      1  C1  <0> d          -0.019   1.526   0.010  0.00  0.00     0.042 C 
ATOM      2  C2  <0> d           0.002  -0.004   0.002  0.00  0.00     0.172 C 
ENDROOT
BRANCH   2   3
ATOM      3  C3  <0> d           0.707  -0.490  -1.238  0.00  0.00     0.240 C 
ATOM      4  O1  <0> d           1.704  -1.174  -1.140  0.00  0.00    -0.271 OA
ATOM      5  N1  <0> d           0.231  -0.164  -2.456  0.00  0.00    -0.359 N 
ATOM      6  H7  <0> d          -0.566   0.383  -2.534  0.00  0.00     0.162 HD
BRANCH   5   7
ATOM      7  C4  <0> d           0.917  -0.637  -3.661  0.00  0.00     0.127 C 
BRANCH   7   8
ATOM      8  C5  <0> d           0.177  -0.130  -4.901  0.00  0.00     0.056 C 
BRANCH   8   9
ATOM      9  C6  <0> d           0.882  -0.616  -6.141  0.00  0.00    -0.048 A 
ATOM     10  C13 <0> d           2.060   0.035  -6.830  0.00  0.00     0.155 A 
ATOM     11  N2  <0> d           2.375  -0.820  -7.981  0.00  0.00    -0.385 N 
ATOM     12  C12 <0> d           1.529  -1.821  -8.002  0.00  0.00     0.038 A 
ATOM     13  H27 <0> d           3.088  -0.668  -8.621  0.00  0.00     0.160 HD
ATOM     14  C7  <0> d           0.586  -1.719  -6.865  0.00  0.00    -0.006 A 
ATOM     15  C11 <0> d           1.386  -2.921  -8.891  0.00  0.00     0.030 A 
ATOM     16  C8  <0> d          -0.442  -2.757  -6.721  0.00  0.00     0.014 A 
ATOM     17  C9  <0> d          -0.490  -3.762  -7.624  0.00  0.00     0.001 A 
ATOM     18  C10 <0> d           0.414  -3.837  -8.692  0.00  0.00     0.002 A 
ENDBRANCH   8   9
ENDBRANCH   7   8
ENDBRANCH   5   7
ENDBRANCH   2   3
BRANCH   2  19
ATOM     19  N3  <0> d           0.711  -0.489   1.189  0.00  0.00    -0.346 N 
ATOM     20  C14 <0> d           0.051  -0.633   2.355  0.00  0.00     0.243 C 
ATOM     21  O2  <0> d          -1.129  -0.361   2.423  0.00  0.00    -0.271 OA
ATOM     22  H18 <0> d           1.654  -0.707   1.135  0.00  0.00     0.163 HD
BRANCH  20  23
ATOM     23  C15 <0> d           0.780  -1.133   3.576  0.00  0.00     0.201 C 
ATOM     24  N4  <0> d           0.009  -0.830   4.792  0.00  0.00    -0.279 NA
ATOM     25  C18 <0> d          -0.038  -1.839   5.600  0.00  0.00     0.040 C 
ATOM     26  C17 <0> d           0.787  -2.989   5.042  0.00  0.00     0.096 C 
ATOM     27  C19 <0> d          -0.768  -2.130   6.779  0.00  0.00     0.027 C 
ATOM     28  C16 <0> d           0.891  -2.681   3.543  0.00  0.00     0.054 C 
ATOM     29  C22 <0> d           0.252  -4.378   5.267  0.00  0.00     0.056 C 
ATOM     30  C21 <0> d          -0.647  -4.513   6.282  0.00  0.00     0.033 C 
ATOM     31  C20 <0> d          -1.035  -3.424   7.082  0.00  0.00     0.004 C 
BRANCH  29  32
ATOM     32  O3  <0> d           0.636  -5.421   4.499  0.00  0.00    -0.359 OA
ATOM     33  C23 <0> d           0.065  -6.695   4.802  0.00  0.00     0.209 C 
ENDBRANCH  29  32
ENDBRANCH  20  23
ENDBRANCH   2  19
TORSDOF 7
