REMARK  3 active torsions:
REMARK  status: ('A' for Active; 'I' for Inactive)
REMARK    1  A    between atoms: C4_4  and  C13_14 
REMARK    2  A    between atoms: N1_6  and  C6_7 
REMARK    3  A    between atoms: C18_24  and  N6_26 
ROOT
ATOM      1  C13 <0> d           0.041  -3.340  -1.427  0.00  0.00     0.034 C 
ATOM      2  C14 <0> d          -0.070  -3.241  -2.799  0.00  0.00     0.082 C 
ATOM      3  C15 <0> d          -0.178  -4.446  -3.667  0.00  0.00     0.162 C 
ATOM      4  N2  <0> d          -0.778  -5.547  -3.295  0.00  0.00    -0.281 NA
ATOM      5  N3  <0> d           0.429  -4.284  -4.929  0.00  0.00    -0.188 N 
ATOM      6  C16 <0> d           0.582  -2.999  -5.400  0.00  0.00     0.202 A 
ATOM      7  N4  <0> d           0.316  -1.881  -4.772  0.00  0.00    -0.182 NA
ATOM      8  C17 <0> d          -0.095  -1.928  -3.487  0.00  0.00     0.283 C 
ATOM      9  O1  <0> d          -0.470  -0.921  -2.908  0.00  0.00    -0.265 OA
ATOM     10  S1  <0> d           1.237  -3.272  -7.026  0.00  0.00    -0.010 SA
ATOM     11  C18 <0> d           1.358  -5.053  -6.934  0.00  0.00     0.192 A 
ATOM     12  N5  <0> d           0.876  -5.303  -5.742  0.00  0.00    -0.138 NA
ATOM     13  H14 <0> d          -0.821  -6.304  -3.899  0.00  0.00     0.188 HD
ENDROOT
BRANCH   1  14
ATOM     14  C4  <0> d           0.307  -2.183  -0.651  0.00  0.00    -0.011 A 
ATOM     15  C3  <0> d           1.129  -1.027  -1.038  0.00  0.00     0.038 A 
ATOM     16  C2  <0> d           1.100  -0.176   0.001  0.00  0.00     0.014 A 
ATOM     17  C1  <0> d           1.805   1.155   0.059  0.00  0.00     0.068 C 
ATOM     18  N1  <0> d           0.335  -0.711   1.000  0.00  0.00    -0.319 N 
ATOM     19  C5  <0> d          -0.154  -1.910   0.626  0.00  0.00     0.023 A 
ATOM     20  C12 <0> d          -1.042  -2.802   1.456  0.00  0.00     0.069 C 
BRANCH  18  21
ATOM     21  C6  <0> d           0.090  -0.097   2.236  0.00  0.00     0.039 A 
ATOM     22  C11 <0> d          -0.630   1.089   2.293  0.00  0.00     0.030 A 
ATOM     23  C10 <0> d          -0.875   1.688   3.513  0.00  0.00     0.002 A 
ATOM     24  C9  <0> d          -0.394   1.114   4.676  0.00  0.00     0.000 A 
ATOM     25  C8  <0> d           0.328  -0.064   4.622  0.00  0.00     0.002 A 
ATOM     26  C7  <0> d           0.571  -0.671   3.405  0.00  0.00     0.030 A 
ENDBRANCH  18  21
ENDBRANCH   1  14
BRANCH  11  27
ATOM     27  N6  <0> d           1.839  -5.942  -7.882  0.00  0.00    -0.355 N 
ATOM     28  C22 <0> d           2.346  -5.466  -9.179  0.00  0.00     0.151 C 
ATOM     29  C21 <0> d           1.670  -6.269 -10.291  0.00  0.00     0.187 C 
ATOM     30  O2  <0> d           1.821  -7.665 -10.023  0.00  0.00    -0.388 OA
ATOM     31  C20 <0> d           1.196  -8.100  -8.813  0.00  0.00     0.187 C 
ATOM     32  C19 <0> d           1.853  -7.391  -7.623  0.00  0.00     0.151 C 
ENDBRANCH  11  27
TORSDOF 3
