REMARK  6 active torsions:
REMARK  status: ('A' for Active; 'I' for Inactive)
REMARK    1  A    between atoms: C5_5  and  C7_8 
REMARK    2  A    between atoms: C7_8  and  O2_10 
REMARK    3  A    between atoms: O2_10  and  C8_11 
REMARK    4  A    between atoms: C8_11  and  C9_12 
REMARK       I    between atoms: C9_12  and  N2_14 
REMARK    5  A    between atoms: N2_14  and  N3_15 
REMARK       I    between atoms: N3_15  and  C10_16 
REMARK    6  A    between atoms: C10_16  and  C11_18 
ROOT
ATOM      1  C9  <0> d           0.106  -6.787   2.657  0.00  0.00     0.260 C 
ATOM      2  O3  <0> d           0.100  -6.014   3.591  0.00  0.00    -0.269 OA
ATOM      3  N2  <0> d           0.125  -8.116   2.882  0.00  0.00    -0.266 N 
ATOM      4  H10 <0> d           0.129  -8.735   2.135  0.00  0.00     0.190 HD
ENDROOT
BRANCH   3   5
ATOM      5  N3  <0> d           0.138  -8.603   4.196  0.00  0.00    -0.265 N 
ATOM      6  C10 <0> d           0.156  -9.932   4.421  0.00  0.00     0.267 C 
ATOM      7  O4  <0> d           0.162 -10.706   3.488  0.00  0.00    -0.269 OA
ATOM      8  H11 <0> d           0.133  -7.984   4.943  0.00  0.00     0.190 HD
BRANCH   6   9
ATOM      9  C11 <0> d           0.170 -10.456   5.834  0.00  0.00     0.246 C 
ATOM     10  O6  <0> d           0.085 -11.885   5.820  0.00  0.00    -0.331 OA
ATOM     11  C18 <0> d           0.383 -12.527   6.983  0.00  0.00     0.103 A 
ATOM     12  C13 <0> d           1.078 -11.879   7.996  0.00  0.00     0.102 A 
ATOM     13  C17 <0> d          -0.011 -13.847   7.152  0.00  0.00     0.040 A 
ATOM     14  O5  <0> d           1.470 -10.583   7.853  0.00  0.00    -0.345 OA
ATOM     15  C14 <0> d           1.379 -12.555   9.169  0.00  0.00     0.039 A 
ATOM     16  C12 <0> d           1.484 -10.059   6.521  0.00  0.00     0.218 C 
ATOM     17  C15 <0> d           0.985 -13.870   9.330  0.00  0.00     0.003 A 
ATOM     18  C16 <0> d           0.290 -14.514   8.323  0.00  0.00     0.003 A 
ENDBRANCH   6   9
ENDBRANCH   3   5
BRANCH   1  19
ATOM     19  C8  <0> d           0.092  -6.263   1.244  0.00  0.00     0.283 C 
BRANCH  19  20
ATOM     20  O2  <0> d           0.073  -4.834   1.266  0.00  0.00    -0.308 OA
BRANCH  20  21
ATOM     21  C7  <0> d           0.059  -4.204   0.075  0.00  0.00     0.295 C 
ATOM     22  O1  <0> d           0.062  -4.850  -0.954  0.00  0.00    -0.259 OA
BRANCH  21  23
ATOM     23  C5  <0> d           0.039  -2.728   0.021  0.00  0.00     0.057 A 
ATOM     24  C4  <0> d           0.024  -2.061  -1.211  0.00  0.00     0.021 A 
ATOM     25  C3  <0> d           0.005  -0.678  -1.206  0.00  0.00     0.028 A 
ATOM     26  C2  <0> d           0.002  -0.004   0.002  0.00  0.00     0.030 A 
ATOM     27  C1  <0> d          -0.018   1.503   0.010  0.00  0.00     0.070 C 
ATOM     28  N1  <0> d           0.022  -0.659   1.147  0.00  0.00    -0.265 NA
ATOM     29  C6  <0> d           0.035  -1.975   1.196  0.00  0.00     0.134 A 
ENDBRANCH  21  23
ENDBRANCH  20  21
ENDBRANCH  19  20
ENDBRANCH   1  19
TORSDOF 6
