REMARK  3 active torsions:
REMARK  status: ('A' for Active; 'I' for Inactive)
REMARK    1  A    between atoms: C9_10  and  C10_11 
REMARK    2  A    between atoms: C13_15  and  C18_24 
REMARK    3  A    between atoms: C14_16  and  N2_19 
ROOT
ATOM      1  C10 <0> d          -0.013   1.086   0.008  0.00  0.00     0.164 C 
ATOM      2  C11 <0> d           1.478   1.309   0.166  0.00  0.00     0.141 C 
ATOM      3  O1  <0> d           2.225   0.383   0.375  0.00  0.00    -0.297 OA
ATOM      4  C12 <0> d           2.002   2.723   0.055  0.00  0.00     0.093 C 
ATOM      5  C13 <0> d           1.545   3.322  -1.277  0.00  0.00     0.082 C 
ATOM      6  C14 <0> d           0.016   3.296  -1.354  0.00  0.00     0.192 C 
ATOM      7  C15 <0> d          -0.461   1.868  -1.210  0.00  0.00     0.166 C 
ATOM      8  O2  <0> d          -1.179   1.366  -2.041  0.00  0.00    -0.295 OA
ENDROOT
BRANCH   1   9
ATOM      9  C9  <0> d          -0.749   1.589   1.252  0.00  0.00     0.272 C 
ATOM     10  C4  <0> d          -0.099   1.012   2.481  0.00  0.00    -0.018 A 
ATOM     11  C3  <0> d           0.280  -0.323   2.464  0.00  0.00     0.010 A 
ATOM     12  C5  <0> d           0.125   1.770   3.610  0.00  0.00    -0.048 A 
ATOM     13  C2  <0> d           0.876  -0.894   3.570  0.00  0.00     0.001 A 
ATOM     14  C1  <0> d           1.097  -0.133   4.703  0.00  0.00     0.001 A 
ATOM     15  C6  <0> d           0.722   1.195   4.722  0.00  0.00     0.008 A 
ATOM     16  C7  <0> d          -0.259   3.227   3.673  0.00  0.00     0.069 C 
ATOM     17  C8  <0> d          -1.248   3.554   2.554  0.00  0.00     0.275 C 
ATOM     18  N1  <0> d          -0.698   3.054   1.284  0.00  0.00     0.093 N 
ATOM     19  H12 <0> d          -1.288   3.453   0.447  0.00  0.00     0.316 HD
ENDBRANCH   1   9
BRANCH   6  20
ATOM     20  N2  <0> d          -0.419   3.829  -2.648  0.00  0.00    -0.249 N 
ATOM     21  N4  <0> d          -0.807   5.150  -2.926  0.00  0.00    -0.164 NA
ATOM     22  C17 <0> d          -1.114   5.194  -4.196  0.00  0.00     0.256 A 
ATOM     23  N3  <0> d          -0.949   3.981  -4.723  0.00  0.00    -0.234 NA
ATOM     24  C16 <0> d          -0.531   3.150  -3.803  0.00  0.00     0.230 A 
ENDBRANCH   6  20
BRANCH   5  25
ATOM     25  C18 <0> d           2.028   4.745  -1.379  0.00  0.00     0.059 A 
ATOM     26  O3  <0> d           1.718   5.742  -0.535  0.00  0.00    -0.327 OA
ATOM     27  C21 <0> d           2.326   6.872  -0.933  0.00  0.00     0.142 A 
ATOM     28  C20 <0> d           3.035   6.604  -2.044  0.00  0.00     0.027 A 
ATOM     29  C19 <0> d           2.847   5.232  -2.329  0.00  0.00     0.035 A 
ENDBRANCH   5  25
TORSDOF 3
