REMARK  2 active torsions:
REMARK  status: ('A' for Active; 'I' for Inactive)
REMARK    1  A    between atoms: C4_4  and  O2_22 
REMARK    2  A    between atoms: C5_5  and  C7_7 
ROOT
ATOM      1  C7  <0> d           1.227  -2.187  -0.021  0.00  0.00     0.159 C 
ATOM      2  C8  <0> d           1.517  -2.685   1.378  0.00  0.00     0.061 A 
ATOM      3  C9  <0> d           0.677  -3.312   2.216  0.00  0.00     0.042 A 
ATOM      4  C10 <0> d           1.454  -3.593   3.488  0.00  0.00     0.180 A 
ATOM      5  N1  <0> d           2.793  -3.054   3.235  0.00  0.00    -0.351 N 
ATOM      6  C11 <0> d           2.784  -2.538   1.996  0.00  0.00     0.252 A 
ATOM      7  O1  <0> d           3.746  -2.008   1.469  0.00  0.00    -0.268 OA
ATOM      8  N2  <0> d          -0.629  -3.657   2.024  0.00  0.00    -0.356 N 
ATOM      9  C12 <0> d          -1.525  -2.770   1.415  0.00  0.00     0.059 A 
ATOM     10  C13 <0> d          -2.686  -2.379   2.059  0.00  0.00     0.032 A 
ATOM     11  C14 <0> d          -3.598  -1.575   1.398  0.00  0.00     0.002 A 
ATOM     12  C15 <0> d          -3.345  -1.163   0.102  0.00  0.00     0.002 A 
ATOM     13  C16 <0> d          -2.178  -1.536  -0.537  0.00  0.00     0.031 A 
ATOM     14  C17 <0> d          -1.250  -2.332   0.125  0.00  0.00     0.055 A 
ATOM     15  N3  <0> d          -0.056  -2.677  -0.501  0.00  0.00    -0.375 N 
ATOM     16  H8  <0> d           3.545  -3.069   3.847  0.00  0.00     0.163 HD
ATOM     17  H9  <0> d          -0.941  -4.529   2.313  0.00  0.00     0.166 HD
ATOM     18  H14 <0> d          -0.079  -3.259  -1.277  0.00  0.00     0.160 HD
ENDROOT
BRANCH   1  19
ATOM     19  C5  <0> d           1.207  -0.680  -0.013  0.00  0.00     0.002 A 
ATOM     20  C4  <0> d           1.347   0.022  -1.201  0.00  0.00     0.074 A 
ATOM     21  C3  <0> d           1.329   1.410  -1.191  0.00  0.00     0.037 A 
ATOM     22  C2  <0> d           1.172   2.088   0.002  0.00  0.00     0.003 A 
ATOM     23  C1  <0> d           1.032   1.386   1.185  0.00  0.00     0.001 A 
ATOM     24  C6  <0> d           1.050   0.004   1.177  0.00  0.00     0.012 A 
BRANCH  20  25
ATOM     25  O2  <0> d           1.502  -0.647  -2.373  0.00  0.00    -0.360 OA
ATOM     26  H15 <0> d           0.670  -0.852  -2.822  0.00  0.00     0.217 HD
ENDBRANCH  20  25
ENDBRANCH   1  19
TORSDOF 2
