REMARK  4 active torsions:
REMARK  status: ('A' for Active; 'I' for Inactive)
REMARK    1  A    between atoms: N1_3  and  C6_8 
REMARK    2  A    between atoms: C4_5  and  C5_6 
REMARK    3  A    between atoms: C5_6  and  N2_7 
REMARK    4  A    between atoms: C6_8  and  C7_9 
ROOT
ATOM      1  C1  <0> d          -0.019   1.538   0.011  0.00  0.00     0.038 C 
ATOM      2  C2  <0> d           1.466   1.960  -0.001  0.00  0.00     0.273 C 
ATOM      3  N1  <0> d           2.191   0.794   0.567  0.00  0.00     0.094 N 
ATOM      4  C3  <0> d           1.498  -0.385  -0.014  0.00  0.00     0.279 C 
ATOM      5  C4  <0> d           0.002  -0.004   0.002  0.00  0.00     0.041 C 
ENDROOT
BRANCH   3   6
ATOM      6  C6  <0> d           3.608   0.815   0.180  0.00  0.00     0.335 C 
BRANCH   6   7
ATOM      7  C7  <0> d           4.305   1.947   0.890  0.00  0.00     0.115 A 
ATOM      8  N4  <0> d           4.873   1.800   2.069  0.00  0.00    -0.143 NA
ATOM      9  N3  <0> d           5.454   2.812   2.611  0.00  0.00    -0.109 NA
ATOM     10  S1  <0> d           5.247   4.018   1.552  0.00  0.00     0.049 SA
ATOM     11  C8  <0> d           4.390   3.197   0.364  0.00  0.00     0.122 A 
ATOM     12 Cl1  <0> d           3.773   3.792  -1.145  0.00  0.00    -0.072 Cl
ENDBRANCH   6   7
ENDBRANCH   3   6
BRANCH   5  13
ATOM     13  C5  <0> d          -0.696  -0.538  -1.250  0.00  0.00     0.236 C 
BRANCH  13  14
ATOM     14  N2  <0> d          -2.126  -0.209  -1.192  0.00  0.00    -0.079 N 
ATOM     15  H10 <0> d          -2.535  -0.632  -0.372  0.00  0.00     0.274 HD
ATOM     16  H11 <0> d          -2.239   0.792  -1.145  0.00  0.00     0.274 HD
ATOM     17  H14 <0> d          -2.587  -0.561  -2.018  0.00  0.00     0.274 HD
ENDBRANCH  13  14
ENDBRANCH   5  13
TORSDOF 4
