REMARK  7 active torsions:
REMARK  status: ('A' for Active; 'I' for Inactive)
REMARK    1  A    between atoms: C2_2  and  C3_3 
REMARK    2  A    between atoms: C3_3  and  N1_4 
REMARK    3  A    between atoms: C6_7  and  C9_10 
REMARK    4  A    between atoms: C9_10  and  N2_11 
REMARK       I    between atoms: N2_11  and  C10_12 
REMARK       I    between atoms: C10_12  and  N3_14 
REMARK    5  A    between atoms: N3_14  and  C11_15 
REMARK    6  A    between atoms: C11_15  and  C12_16 
REMARK    7  A    between atoms: C12_16  and  O2_26 
ROOT
ATOM      1  N2  <0> d          -3.401  -6.682   0.530  0.00  0.00    -0.343 N 
ATOM      2  C10 <0> d          -3.548  -8.020   0.607  0.00  0.00     0.316 C 
ATOM      3  O1  <0> d          -2.567  -8.736   0.667  0.00  0.00    -0.247 OA
ATOM      4  N3  <0> d          -4.781  -8.563   0.618  0.00  0.00    -0.340 N 
ATOM      5  H19 <0> d          -4.183  -6.111   0.483  0.00  0.00     0.164 HD
ATOM      6  H20 <0> d          -5.563  -7.991   0.571  0.00  0.00     0.164 HD
ENDROOT
BRANCH   1   7
ATOM      7  C9  <0> d          -2.060  -6.092   0.518  0.00  0.00     0.129 C 
BRANCH   7   8
ATOM      8  C6  <0> d          -2.174  -4.569   0.426  0.00  0.00     0.007 C 
ATOM      9  C5  <0> d          -0.781  -3.943   0.539  0.00  0.00     0.034 C 
ATOM     10  C4  <0> d          -0.894  -2.427   0.366  0.00  0.00     0.235 C 
ATOM     11  N1  <0> d          -1.463  -2.122  -0.952  0.00  0.00    -0.071 N 
ATOM     12  C8  <0> d          -2.827  -2.657  -1.041  0.00  0.00     0.235 C 
ATOM     13  H34 <0> d          -0.891  -2.542  -1.669  0.00  0.00     0.279 HD
ATOM     14  C7  <0> d          -2.789  -4.183  -0.922  0.00  0.00     0.034 C 
BRANCH  11  15
ATOM     15  C3  <0> d          -1.497  -0.666  -1.144  0.00  0.00     0.234 C 
BRANCH  15  16
ATOM     16  C2  <0> d          -0.067  -0.123  -1.176  0.00  0.00     0.023 C 
ATOM     17  C1  <0> d          -0.102   1.394  -1.376  0.00  0.00     0.007 C 
ENDBRANCH  15  16
ENDBRANCH  11  15
ENDBRANCH   7   8
ENDBRANCH   1   7
BRANCH   4  18
ATOM     18  C11 <0> d          -4.941 -10.017   0.702  0.00  0.00     0.167 C 
BRANCH  18  19
ATOM     19  C12 <0> d          -6.426 -10.360   0.830  0.00  0.00     0.101 C 
ATOM     20  C17 <0> d          -6.581 -11.853   0.965  0.00  0.00    -0.016 A 
ATOM     21  C16 <0> d          -7.458 -12.429   1.856  0.00  0.00    -0.049 A 
ATOM     22  C18 <0> d          -5.799 -12.660   0.149  0.00  0.00     0.011 A 
ATOM     23  C15 <0> d          -8.331 -11.616   2.776  0.00  0.00     0.039 C 
ATOM     24  C21 <0> d          -7.558 -13.813   1.926  0.00  0.00     0.007 A 
ATOM     25  C14 <0> d          -8.426 -10.172   2.288  0.00  0.00     0.008 C 
ATOM     26  C13 <0> d          -7.004  -9.648   2.051  0.00  0.00     0.045 C 
ATOM     27  C20 <0> d          -6.782 -14.613   1.113  0.00  0.00     0.001 A 
ATOM     28  C19 <0> d          -5.898 -14.035   0.222  0.00  0.00     0.001 A 
BRANCH  19  29
ATOM     29  O2  <0> d          -7.114  -9.920  -0.342  0.00  0.00    -0.383 OA
ATOM     30  H33 <0> d          -6.795 -10.324  -1.161  0.00  0.00     0.211 HD
ENDBRANCH  19  29
ENDBRANCH  18  19
ENDBRANCH   4  18
TORSDOF 7
