REMARK  2 active torsions:
REMARK  status: ('A' for Active; 'I' for Inactive)
REMARK    1  A    between atoms: O1_2  and  C2_3 
REMARK    2  A    between atoms: C15_17  and  O3_19 
ROOT
ATOM      1  C2  <0> d           1.655   5.593   1.520  0.00  0.00     0.102 A 
ATOM      2  C3  <0> d           2.597   4.601   1.765  0.00  0.00     0.040 A 
ATOM      3  C4  <0> d           2.470   3.339   1.237  0.00  0.00     0.012 A 
ATOM      4  C5  <0> d           1.382   2.981   0.425  0.00  0.00    -0.022 A 
ATOM      5  C6  <0> d           0.480   3.962   0.152  0.00  0.00     0.001 A 
ATOM      6  C7  <0> d           0.583   5.254   0.685  0.00  0.00     0.110 A 
ATOM      7  O2  <0> d          -0.413   6.064   0.265  0.00  0.00    -0.341 OA
ATOM      8  C8  <0> d          -1.434   5.268  -0.351  0.00  0.00     0.148 C 
ATOM      9  C9  <0> d          -0.697   4.006  -0.806  0.00  0.00     0.036 C 
ATOM     10  C10 <0> d          -1.591   2.795  -0.635  0.00  0.00     0.048 C 
ATOM     11  C11 <0> d          -0.900   1.513  -1.001  0.00  0.00     0.234 C 
ATOM     12  C12 <0> d           1.335   1.543  -0.002  0.00  0.00     0.271 C 
ATOM     13  C13 <0> d          -0.182   4.111  -2.204  0.00  0.00    -0.011 C 
ATOM     14  C14 <0> d          -0.426   5.084  -3.017  0.00  0.00     0.002 C 
ATOM     15  C15 <0> d          -1.266   6.270  -2.667  0.00  0.00     0.143 C 
ATOM     16  C16 <0> d          -2.139   6.005  -1.457  0.00  0.00     0.069 C 
ATOM     17  N1  <0> d          -0.025   0.974   0.038  0.00  0.00    -0.071 N 
ATOM     18  H19 <0> d           0.042  -0.043  -0.086  0.00  0.00     0.277 HD
ATOM     19  H20 <0> d          -0.439   1.180   0.955  0.00  0.00     0.277 HD
ENDROOT
BRANCH   1  20
ATOM     20  O1  <0> d           1.768   6.834   2.065  0.00  0.00    -0.353 OA
ATOM     21  C1  <0> d           2.901   7.074   2.902  0.00  0.00     0.210 C 
ENDBRANCH   1  20
BRANCH  15  22
ATOM     22  O3  <0> d          -0.410   7.380  -2.387  0.00  0.00    -0.392 OA
ATOM     23  H18 <0> d           0.157   7.635  -3.127  0.00  0.00     0.210 HD
ENDBRANCH  15  22
TORSDOF 2
