REMARK  4 active torsions:
REMARK  status: ('A' for Active; 'I' for Inactive)
REMARK    1  A    between atoms: C7_7  and  O1_8 
REMARK    2  A    between atoms: O1_8  and  C8_9 
REMARK    3  A    between atoms: C8_9  and  C9_10 
REMARK    4  A    between atoms: C14_15  and  N1_16 
ROOT
ATOM      1  C9  <0> d           4.049   0.699   2.403  0.00  0.00    -0.005 A 
ATOM      2  C10 <0> d           4.592   0.916   1.151  0.00  0.00     0.051 A 
ATOM      3  C11 <0> d           5.887   1.396   1.028  0.00  0.00     0.102 A 
ATOM      4  C12 <0> d           6.641   1.661   2.165  0.00  0.00     0.104 A 
ATOM      5  C13 <0> d           6.096   1.441   3.421  0.00  0.00     0.069 A 
ATOM      6  C14 <0> d           4.798   0.965   3.541  0.00  0.00     0.037 A 
ATOM      7  O2  <0> d           7.911   2.139   2.064  0.00  0.00    -0.346 OA
ATOM      8  C15 <0> d           8.554   1.994   0.793  0.00  0.00     0.202 C 
ATOM      9  C16 <0> d           7.568   2.434  -0.298  0.00  0.00     0.202 C 
ATOM     10  O3  <0> d           6.407   1.600  -0.215  0.00  0.00    -0.346 OA
ENDROOT
BRANCH   1  11
ATOM     11  C8  <0> d           2.640   0.178   2.533  0.00  0.00     0.209 C 
BRANCH  11  12
ATOM     12  O1  <0> d           2.083  -0.016   1.231  0.00  0.00    -0.381 OA
BRANCH  12  13
ATOM     13  C7  <0> d           0.742  -0.511   1.242  0.00  0.00     0.125 C 
ATOM     14  C2  <0> d           0.002  -0.004   0.002  0.00  0.00     0.011 C 
ATOM     15  C1  <0> d          -0.019   1.526   0.010  0.00  0.00     0.012 C 
ATOM     16  C3  <0> d           0.718  -0.497  -1.257  0.00  0.00     0.007 C 
ATOM     17  C4  <0> d           0.739  -2.027  -1.265  0.00  0.00     0.001 C 
ATOM     18  C5  <0> d           1.479  -2.534  -0.026  0.00  0.00     0.002 C 
ATOM     19  C6  <0> d           0.763  -2.041   1.233  0.00  0.00     0.032 C 
ENDBRANCH  12  13
ENDBRANCH  11  12
ENDBRANCH   1  11
BRANCH   6  20
ATOM     20  N1  <0> d           4.246   0.748   4.809  0.00  0.00    -0.399 N 
ATOM     21  H18 <0> d           3.340   0.411   4.892  0.00  0.00     0.156 HD
ATOM     22  H19 <0> d           4.769   0.934   5.604  0.00  0.00     0.156 HD
ENDBRANCH   6  20
TORSDOF 4
