REMARK  6 active torsions:
REMARK  status: ('A' for Active; 'I' for Inactive)
REMARK    1  A    between atoms: O1_2  and  C2_3 
REMARK    2  A    between atoms: C2_3  and  C3_4 
REMARK    3  A    between atoms: C3_4  and  N1_5 
REMARK       I    between atoms: N1_5  and  C4_6 
REMARK    4  A    between atoms: C4_6  and  C5_8 
REMARK    5  A    between atoms: N4_19  and  C15_22 
REMARK    6  A    between atoms: C14_20  and  N5_21 
ROOT
ATOM      1  C5  <0> d          -2.443   0.876   0.018  0.00  0.00     0.108 A 
ATOM      2  C6  <0> d          -3.205   0.432  -1.160  0.00  0.00     0.123 A 
ATOM      3  C7  <0> d          -4.375  -0.270  -0.625  0.00  0.00     0.167 A 
ATOM      4  N2  <0> d          -5.255  -0.787  -1.455  0.00  0.00    -0.226 NA
ATOM      5  C8  <0> d          -5.076  -0.668  -2.776  0.00  0.00     0.088 A 
ATOM      6  C9  <0> d          -6.012  -1.218  -3.671  0.00  0.00     0.034 A 
ATOM      7  C10 <0> d          -5.822  -1.092  -5.013  0.00  0.00     0.002 A 
ATOM      8  C11 <0> d          -4.708  -0.424  -5.519  0.00  0.00     0.002 A 
ATOM      9  C12 <0> d          -3.781   0.120  -4.686  0.00  0.00     0.034 A 
ATOM     10  C13 <0> d          -3.944   0.011  -3.292  0.00  0.00     0.086 A 
ATOM     11  N3  <0> d          -3.038   0.543  -2.463  0.00  0.00    -0.242 NA
ATOM     12  N4  <0> d          -4.277  -0.224   0.753  0.00  0.00    -0.279 N 
ATOM     13  C14 <0> d          -3.149   0.439   1.134  0.00  0.00     0.126 A 
ENDROOT
BRANCH   1  14
ATOM     14  C4  <0> d          -1.187   1.624   0.017  0.00  0.00     0.257 C 
ATOM     15  N1  <0> d          -0.011   0.966   0.007  0.00  0.00    -0.355 N 
ATOM     16  H8  <0> d           0.002  -0.004   0.002  0.00  0.00     0.162 HD
ATOM     17  O2  <0> d          -1.204   2.841   0.023  0.00  0.00    -0.267 OA
BRANCH  15  18
ATOM     18  C3  <0> d           1.248   1.716  -0.001  0.00  0.00     0.149 C 
BRANCH  18  19
ATOM     19  C2  <0> d           2.424   0.737  -0.017  0.00  0.00     0.186 C 
BRANCH  19  20
ATOM     20  O1  <0> d           2.414   0.001  -1.242  0.00  0.00    -0.394 OA
ATOM     21  C1  <0> d           3.478  -0.946  -1.360  0.00  0.00     0.201 C 
ENDBRANCH  19  20
ENDBRANCH  18  19
ENDBRANCH  15  18
ENDBRANCH   1  14
BRANCH  13  22
ATOM     22  N5  <0> d          -2.766   0.648   2.433  0.00  0.00    -0.384 N 
ATOM     23  H13 <0> d          -1.948   1.133   2.626  0.00  0.00     0.157 HD
ATOM     24  H14 <0> d          -3.313   0.311   3.160  0.00  0.00     0.157 HD
ENDBRANCH  13  22
BRANCH  12  25
ATOM     25  C15 <0> d          -5.208  -0.787   1.637  0.00  0.00     0.043 A 
ATOM     26  C20 <0> d          -4.836  -1.840   2.462  0.00  0.00     0.033 A 
ATOM     27  C19 <0> d          -5.754  -2.392   3.332  0.00  0.00     0.044 A 
ATOM     28  C18 <0> d          -7.046  -1.897   3.383  0.00  0.00     0.116 A 
ATOM     29  C17 <0> d          -7.420  -0.846   2.562  0.00  0.00     0.044 A 
ATOM     30  F1  <0> d          -7.944  -2.439   4.235  0.00  0.00    -0.206 F 
ATOM     31  C16 <0> d          -6.503  -0.287   1.694  0.00  0.00     0.033 A 
ENDBRANCH  12  25
TORSDOF 6
