REMARK  3 active torsions:
REMARK  status: ('A' for Active; 'I' for Inactive)
REMARK    1  A    between atoms: C7_7  and  N4_14 
REMARK    2  A    between atoms: C8_8  and  C10_11 
REMARK    3  A    between atoms: C10_11  and  N2_12 
ROOT
ATOM      1  C1  <0> d           0.173   1.480   0.442  0.00  0.00     0.001 A 
ATOM      2  C2  <0> d           1.409   2.116   0.534  0.00  0.00     0.002 A 
ATOM      3  C3  <0> d           2.571   1.416   0.416  0.00  0.00     0.032 A 
ATOM      4  C4  <0> d           2.530   0.028   0.199  0.00  0.00     0.069 A 
ATOM      5  C5  <0> d           1.273  -0.616   0.107  0.00  0.00     0.022 A 
ATOM      6  C6  <0> d           0.095   0.136   0.232  0.00  0.00     0.016 A 
ATOM      7  C7  <0> d           1.231  -2.012  -0.111  0.00  0.00     0.086 A 
ATOM      8  C8  <0> d           2.448  -2.691  -0.226  0.00  0.00     0.054 A 
ATOM      9  C9  <0> d           3.650  -1.972  -0.122  0.00  0.00     0.135 A 
ATOM     10  N1  <0> d           3.661  -0.680   0.081  0.00  0.00    -0.259 NA
ENDROOT
BRANCH   8  11
ATOM     11  C10 <0> d           2.470  -4.149  -0.454  0.00  0.00     0.106 C 
ATOM     12  N3  <0> d           3.134  -4.945   0.383  0.00  0.00    -0.385 N 
ATOM     13  H7  <0> d           3.604  -4.566   1.143  0.00  0.00     0.157 HD
ATOM     14  H8  <0> d           3.148  -5.903   0.234  0.00  0.00     0.157 HD
BRANCH  11  15
ATOM     15  N2  <0> d           1.824  -4.670  -1.498  0.00  0.00    -0.385 N 
ATOM     16  H6  <0> d           1.405  -4.086  -2.150  0.00  0.00     0.157 HD
ATOM     17  H11 <0> d           1.773  -5.633  -1.605  0.00  0.00     0.157 HD
ENDBRANCH  11  15
ENDBRANCH   8  11
BRANCH   7  18
ATOM     18  N4  <0> d           0.020  -2.687  -0.208  0.00  0.00    -0.242 N 
ATOM     19  N5  <0> d          -1.064  -2.327  -1.020  0.00  0.00    -0.179 NA
ATOM     20  C13 <0> d          -2.018  -3.203  -0.843  0.00  0.00     0.159 A 
ATOM     21  C12 <0> d          -1.582  -4.148   0.095  0.00  0.00     0.047 A 
ATOM     22  C11 <0> d          -0.327  -3.813   0.472  0.00  0.00     0.139 A 
ATOM     23 Br1  <0> d          -2.572  -5.632   0.722  0.00  0.00    -0.048 Br
ENDBRANCH   7  18
TORSDOF 3
