REMARK  5 active torsions:
REMARK  status: ('A' for Active; 'I' for Inactive)
REMARK    1  A    between atoms: C2_2  and  N1_5 
REMARK       I    between atoms: N1_5  and  C5_6 
REMARK    2  A    between atoms: C5_6  and  C6_8 
REMARK    3  A    between atoms: C6_8  and  S1_9 
REMARK    4  A    between atoms: S1_9  and  C7_10 
REMARK    5  A    between atoms: C8_12  and  C12_21 
ROOT
ATOM      1  C7  <0> d          -3.664   5.881   0.067  0.00  0.00     0.192 A 
ATOM      2  N2  <0> d          -2.526   5.204   0.053  0.00  0.00    -0.202 NA
ATOM      3  C8  <0> d          -2.525   3.868   0.046  0.00  0.00     0.167 A 
ATOM      4  N3  <0> d          -3.661   3.181   0.049  0.00  0.00    -0.209 NA
ATOM      5  C9  <0> d          -4.832   3.824   0.068  0.00  0.00     0.159 A 
ATOM      6  N4  <0> d          -4.849   5.203   0.075  0.00  0.00    -0.211 N 
ATOM      7  N5  <0> d          -6.184   5.617   0.090  0.00  0.00    -0.256 N 
ATOM      8  H1  <0> d          -6.493   6.536   0.098  0.00  0.00     0.191 HD
ATOM      9  C10 <0> d          -6.970   4.522   0.092  0.00  0.00     0.264 A 
ATOM     10  O2  <0> d          -8.190   4.520   0.104  0.00  0.00    -0.267 OA
ATOM     11  C11 <0> d          -6.152   3.391   0.079  0.00  0.00     0.128 A 
ENDROOT
BRANCH   1  12
ATOM     12  S1  <0> d          -3.648   7.643   0.075  0.00  0.00    -0.081 SA
BRANCH  12  13
ATOM     13  C6  <0> d          -1.863   7.942   0.060  0.00  0.00     0.185 C 
BRANCH  13  14
ATOM     14  C5  <0> d          -1.602   9.426   0.064  0.00  0.00     0.228 C 
ATOM     15  N1  <0> d          -0.336   9.888   0.054  0.00  0.00    -0.352 N 
ATOM     16  H11 <0> d           0.407   9.264   0.044  0.00  0.00     0.163 HD
ATOM     17  O1  <0> d          -2.532  10.205   0.077  0.00  0.00    -0.273 OA
BRANCH  15  18
ATOM     18  C2  <0> d          -0.082  11.331   0.059  0.00  0.00     0.022 C 
ATOM     19  C1  <0> d          -0.693  11.952   1.317  0.00  0.00     0.037 C 
ATOM     20  C3  <0> d           1.427  11.583   0.046  0.00  0.00     0.037 C 
ATOM     21  C4  <0> d          -0.716  11.963  -1.181  0.00  0.00     0.037 C 
ENDBRANCH  15  18
ENDBRANCH  13  14
ENDBRANCH  12  13
ENDBRANCH   1  12
BRANCH   3  22
ATOM     22  C12 <0> d          -1.236   3.142   0.030  0.00  0.00     0.050 A 
ATOM     23  C17 <0> d          -0.031   3.850   0.022  0.00  0.00     0.130 A 
ATOM     24  C16 <0> d           1.169   3.164   0.007  0.00  0.00     0.043 A 
ATOM     25  F1  <0> d          -0.040   5.202   0.029  0.00  0.00    -0.205 F 
ATOM     26  C15 <0> d           1.178   1.782   0.000  0.00  0.00     0.003 A 
ATOM     27  C14 <0> d          -0.013   1.076   0.008  0.00  0.00     0.001 A 
ATOM     28  C13 <0> d          -1.217   1.747   0.017  0.00  0.00     0.018 A 
ENDBRANCH   3  22
TORSDOF 5
