REMARK  4 active torsions:
REMARK  status: ('A' for Active; 'I' for Inactive)
REMARK    1  A    between atoms: C2_2  and  C3_3 
REMARK    2  A    between atoms: C3_3  and  C4_4 
REMARK    3  A    between atoms: C3_3  and  N3_16 
REMARK    4  A    between atoms: C4_4  and  N1_5 
ROOT
ATOM      1  N1  <0> d          -2.784  -2.564   0.011  0.00  0.00    -0.300 N 
ATOM      2  C5  <0> d          -3.230  -3.003   1.205  0.00  0.00     0.105 A 
ATOM      3  N2  <0> d          -4.436  -3.480   1.350  0.00  0.00    -0.239 NA
ATOM      4  C6  <0> d          -5.290  -3.557   0.322  0.00  0.00     0.048 A 
ATOM      5  C7  <0> d          -4.899  -3.130  -0.909  0.00  0.00     0.035 A 
ATOM      6  C8  <0> d          -3.597  -2.609  -1.065  0.00  0.00     0.257 A 
ATOM      7  O1  <0> d          -3.212  -2.211  -2.153  0.00  0.00    -0.267 OA
ATOM      8  C9  <0> d          -6.018  -3.313  -1.907  0.00  0.00     0.047 C 
ATOM      9  C10 <0> d          -6.997  -4.301  -1.236  0.00  0.00     0.011 C 
ATOM     10  C11 <0> d          -6.714  -4.067   0.264  0.00  0.00     0.060 C 
ATOM     11  C12 <0> d          -2.314  -2.942   2.400  0.00  0.00     0.091 C 
ENDROOT
BRANCH   1  12
ATOM     12  C4  <0> d          -1.424  -2.034  -0.116  0.00  0.00     0.166 C 
BRANCH  12  13
ATOM     13  C3  <0> d          -0.445  -3.189  -0.335  0.00  0.00     0.201 C 
BRANCH  13  14
ATOM     14  C2  <0> d           0.955  -2.630  -0.592  0.00  0.00     0.030 C 
ATOM     15  C1  <0> d           1.956  -3.783  -0.688  0.00  0.00     0.007 C 
ENDBRANCH  13  14
BRANCH  13  16
ATOM     16  N3  <0> d          -0.876  -3.982  -1.495  0.00  0.00    -0.073 N 
ATOM     17  H18 <0> d          -0.231  -4.744  -1.639  0.00  0.00     0.274 HD
ATOM     18  H19 <0> d          -1.800  -4.352  -1.325  0.00  0.00     0.274 HD
ATOM     19  H20 <0> d          -0.894  -3.396  -2.316  0.00  0.00     0.274 HD
ENDBRANCH  13  16
ENDBRANCH  12  13
ENDBRANCH   1  12
TORSDOF 4
