REMARK  2 active torsions:
REMARK  status: ('A' for Active; 'I' for Inactive)
REMARK    1  A    between atoms: C3_3  and  N2_10 
REMARK    2  A    between atoms: C6_6  and  C7_7 
ROOT
ATOM      1  C1  <0> d           0.804   0.034   1.147  0.00  0.00     0.017 A 
ATOM      2  C2  <0> d           1.985   0.741   1.135  0.00  0.00     0.031 A 
ATOM      3  C3  <0> d           2.381   1.418  -0.013  0.00  0.00     0.045 A 
ATOM      4  C4  <0> d           1.586   1.383  -1.154  0.00  0.00     0.031 A 
ATOM      5  C5  <0> d           0.403   0.678  -1.150  0.00  0.00     0.017 A 
ATOM      6  C6  <0> d           0.002  -0.004   0.003  0.00  0.00     0.002 A 
ENDROOT
BRANCH   3   7
ATOM      7  N2  <0> d           3.581   2.135  -0.022  0.00  0.00    -0.252 N 
ATOM      8  C11 <0> d           4.782   1.543   0.062  0.00  0.00     0.240 A 
ATOM      9  C10 <0> d           5.850   2.603   0.023  0.00  0.00     0.050 A 
ATOM     10  O2  <0> d           4.976   0.350   0.151  0.00  0.00    -0.272 OA
ATOM     11  C9  <0> d           5.075   3.921  -0.089  0.00  0.00     0.123 A 
ATOM     12  C15 <0> d           6.792   2.413  -1.168  0.00  0.00     0.020 C 
ATOM     13  C12 <0> d           6.704   2.575   1.297  0.00  0.00     0.020 C 
ATOM     14  C8  <0> d           3.627   3.472  -0.107  0.00  0.00     0.232 A 
ATOM     15  O1  <0> d           2.665   4.205  -0.186  0.00  0.00    -0.273 OA
ATOM     16  C14 <0> d           8.214   2.280  -0.577  0.00  0.00     0.001 C 
ATOM     17  C13 <0> d           7.978   1.797   0.877  0.00  0.00     0.001 C 
ENDBRANCH   3   7
BRANCH   6  18
ATOM     18  C7  <0> d          -1.264  -0.760   0.011  0.00  0.00     0.104 C 
ATOM     19  S1  <0> d          -2.210  -0.829   1.436  0.00  0.00    -0.060 SA
ATOM     20  N1  <0> d          -1.675  -1.397  -1.103  0.00  0.00    -0.390 N 
ATOM     21  H5  <0> d          -1.139  -1.358  -1.910  0.00  0.00     0.157 HD
ATOM     22  H6  <0> d          -2.508  -1.895  -1.097  0.00  0.00     0.157 HD
ENDBRANCH   6  18
TORSDOF 2
