REMARK  3 active torsions:
REMARK  status: ('A' for Active; 'I' for Inactive)
REMARK    1  A    between atoms: C2_2  and  N1_3 
REMARK    2  A    between atoms: C3_4  and  C11_14 
REMARK    3  A    between atoms: N4_17  and  C14_19 
ROOT
ATOM      1  N1  <0> d           0.633  -0.395  -1.203  0.00  0.00    -0.316 N 
ATOM      2  C3  <0> d           0.028  -0.854  -2.460  0.00  0.00     0.362 C 
ATOM      3  N2  <0> d           1.056  -1.681  -3.135  0.00  0.00     0.130 N 
ATOM      4  C4  <0> d           2.324  -1.131  -2.610  0.00  0.00     0.240 C 
ATOM      5  C5  <0> d           1.974  -0.533  -1.270  0.00  0.00     0.261 C 
ATOM      6  O1  <0> d           2.763  -0.228  -0.401  0.00  0.00    -0.270 OA
ATOM      7  C6  <0> d           3.350  -2.249  -2.447  0.00  0.00     0.052 C 
ATOM      8  C7  <0> d           4.654  -1.671  -1.892  0.00  0.00     0.003 C 
ATOM      9  C8  <0> d           5.188  -0.606  -2.852  0.00  0.00     0.000 C 
ATOM     10  C9  <0> d           4.159   0.519  -2.989  0.00  0.00     0.003 C 
ATOM     11  C10 <0> d           2.853  -0.051  -3.548  0.00  0.00     0.052 C 
ATOM     12  H7  <0> d           0.955  -2.654  -2.890  0.00  0.00     0.320 HD
ENDROOT
BRANCH   2  13
ATOM     13  C11 <0> d          -1.198  -1.681  -2.173  0.00  0.00     0.031 A 
ATOM     14  C13 <0> d          -2.454  -1.418  -2.602  0.00  0.00     0.131 A 
ATOM     15  N4  <0> d          -3.262  -2.397  -2.134  0.00  0.00    -0.245 N 
ATOM     16  N3  <0> d          -2.476  -3.284  -1.388  0.00  0.00    -0.179 NA
ATOM     17  C12 <0> d          -1.240  -2.855  -1.412  0.00  0.00     0.151 A 
BRANCH  15  18
ATOM     18  C14 <0> d          -4.643  -2.502  -2.354  0.00  0.00     0.058 A 
ATOM     19  C19 <0> d          -5.355  -3.561  -1.807  0.00  0.00     0.034 A 
ATOM     20  C18 <0> d          -6.716  -3.660  -2.020  0.00  0.00     0.044 A 
ATOM     21  C17 <0> d          -7.369  -2.710  -2.788  0.00  0.00     0.116 A 
ATOM     22  C16 <0> d          -6.660  -1.656  -3.338  0.00  0.00     0.044 A 
ATOM     23  F1  <0> d          -8.699  -2.812  -3.000  0.00  0.00    -0.206 F 
ATOM     24  C15 <0> d          -5.299  -1.550  -3.123  0.00  0.00     0.034 A 
ENDBRANCH  15  18
ENDBRANCH   2  13
BRANCH   1  25
ATOM     25  C2  <0> d          -0.105   0.135  -0.054  0.00  0.00     0.124 C 
ATOM     26  C1  <0> d          -0.233   1.654  -0.188  0.00  0.00     0.026 C 
ENDBRANCH   1  25
TORSDOF 3
