REMARK  3 active torsions:
REMARK  status: ('A' for Active; 'I' for Inactive)
REMARK    1  A    between atoms: N1_2  and  C3_4 
REMARK    2  A    between atoms: C6_7  and  N3_10 
REMARK       I    between atoms: N3_10  and  C8_11 
REMARK    3  A    between atoms: C8_11  and  C9_13 
ROOT
ATOM      1  N3  <0> d           2.502  -2.762  -0.036  0.00  0.00    -0.322 N 
ATOM      2  C8  <0> d           3.474  -2.039  -0.625  0.00  0.00     0.256 C 
ATOM      3  O1  <0> d           4.406  -2.601  -1.168  0.00  0.00    -0.267 OA
ATOM      4  H10 <0> d           1.700  -2.255   0.521  0.00  0.00     0.169 HD
ENDROOT
BRANCH   1   5
ATOM      5  C6  <0> d           2.511  -4.160  -0.134  0.00  0.00     0.052 A 
ATOM      6  C5  <0> d           3.718  -4.858  -0.144  0.00  0.00     0.035 A 
ATOM      7  C4  <0> d           3.680  -6.237  -0.241  0.00  0.00     0.052 A 
ATOM      8  C3  <0> d           2.448  -6.877  -0.325  0.00  0.00     0.124 A 
ATOM      9  N2  <0> d           1.322  -6.182  -0.313  0.00  0.00    -0.241 NA
ATOM     10  C7  <0> d           1.321  -4.866  -0.216  0.00  0.00     0.148 A 
BRANCH   8  11
ATOM     11  N1  <0> d           2.399  -8.265  -0.423  0.00  0.00    -0.374 N 
ATOM     12  C1  <0> d           3.632  -9.050  -0.328  0.00  0.00     0.150 C 
ATOM     13  C2  <0> d           1.114  -8.940  -0.623  0.00  0.00     0.150 C 
ENDBRANCH   8  11
ENDBRANCH   1   5
BRANCH   2  14
ATOM     14  C9  <0> d           3.409  -0.561  -0.611  0.00  0.00     0.035 A 
ATOM     15  C13 <0> d           2.345   0.106   0.008  0.00  0.00     0.037 A 
ATOM     16  C12 <0> d           2.323   1.486  -0.003  0.00  0.00     0.126 A 
ATOM     17  N4  <0> d           3.287   2.174  -0.586  0.00  0.00    -0.211 N 
ATOM     18  C11 <0> d           4.307   1.585  -1.180  0.00  0.00     0.126 A 
ATOM     19  O2  <0> d           3.224   3.589  -0.573  0.00  0.00    -0.082 OA
ATOM     20  C10 <0> d           4.408   0.209  -1.216  0.00  0.00     0.037 A 
ENDBRANCH   2  14
TORSDOF 3
