REMARK  5 active torsions:
REMARK  status: ('A' for Active; 'I' for Inactive)
REMARK    1  A    between atoms: C2_2  and  C4_4 
REMARK    2  A    between atoms: C8_12  and  S1_15 
REMARK    3  A    between atoms: S1_15  and  C9_16 
REMARK    4  A    between atoms: C9_16  and  C10_17 
REMARK       I    between atoms: C10_17  and  N5_19 
REMARK    5  A    between atoms: N5_19  and  C11_20 
ROOT
ATOM      1  C4  <0> d           1.825  -1.655   0.282  0.00  0.00     0.045 A 
ATOM      2  C5  <0> d           3.168  -1.722   0.292  0.00  0.00     0.101 A 
ATOM      3  C6  <0> d           3.932  -0.563   0.579  0.00  0.00     0.261 A 
ATOM      4  O1  <0> d           5.149  -0.619   0.589  0.00  0.00    -0.268 OA
ATOM      5  N1  <0> d           3.307   0.603   0.841  0.00  0.00    -0.152 N 
ATOM      6  H1  <0> d           3.825   1.399   1.038  0.00  0.00     0.187 HD
ATOM      7  C7  <0> d           1.923   0.661   0.829  0.00  0.00     0.734 A 
ATOM      8  N2  <0> d           1.190  -0.465   0.550  0.00  0.00    -0.122 N 
ATOM      9  C8  <0> d          -0.136  -0.127   0.605  0.00  0.00     0.211 A 
ATOM     10  N3  <0> d          -0.217   1.147   0.903  0.00  0.00    -0.107 NA
ATOM     11  N4  <0> d           1.085   1.645   1.044  0.00  0.00     0.045 NA
ENDROOT
BRANCH   9  12
ATOM     12  S1  <0> d          -1.494  -1.213   0.324  0.00  0.00    -0.080 SA
BRANCH  12  13
ATOM     13  C9  <0> d          -2.953  -0.158   0.544  0.00  0.00     0.185 C 
BRANCH  13  14
ATOM     14  C10 <0> d          -4.201  -0.974   0.328  0.00  0.00     0.228 C 
ATOM     15  O2  <0> d          -4.115  -2.152   0.053  0.00  0.00    -0.273 OA
ATOM     16  N5  <0> d          -5.413  -0.395   0.441  0.00  0.00    -0.352 N 
ATOM     17  H12 <0> d          -5.482   0.547   0.661  0.00  0.00     0.163 HD
BRANCH  16  18
ATOM     18  C11 <0> d          -6.626  -1.189   0.231  0.00  0.00     0.022 C 
ATOM     19  C12 <0> d          -6.668  -2.335   1.245  0.00  0.00     0.037 C 
ATOM     20  C13 <0> d          -7.857  -0.299   0.417  0.00  0.00     0.037 C 
ATOM     21  C14 <0> d          -6.621  -1.764  -1.187  0.00  0.00     0.037 C 
ENDBRANCH  16  18
ENDBRANCH  13  14
ENDBRANCH  12  13
ENDBRANCH   9  12
BRANCH   1  22
ATOM     22  C2  <0> d           1.014  -2.888  -0.023  0.00  0.00     0.029 C 
ATOM     23  C1  <0> d           0.504  -2.820  -1.464  0.00  0.00     0.016 C 
ATOM     24  C3  <0> d           1.890  -4.131   0.150  0.00  0.00     0.016 C 
ENDBRANCH   1  22
TORSDOF 5
