REMARK  8 active torsions:
REMARK  status: ('A' for Active; 'I' for Inactive)
REMARK    1  A    between atoms: N1_9  and  C9_14 
REMARK    2  A    between atoms: C9_14  and  C10_15 
REMARK       I    between atoms: C10_15  and  N3_17 
REMARK    3  A    between atoms: N3_17  and  C11_18 
REMARK    4  A    between atoms: C11_18  and  C12_19 
REMARK    5  A    between atoms: C12_19  and  C13_20 
REMARK    6  A    between atoms: C12_19  and  O5_29 
REMARK    7  A    between atoms: C13_20  and  O4_21 
REMARK    8  A    between atoms: O4_21  and  C14_22 
ROOT
ATOM      1  C10 <0> d           2.649  -4.678  -1.467  0.00  0.00     0.236 C 
ATOM      2  O3  <0> d           2.584  -3.887  -2.385  0.00  0.00    -0.272 OA
ATOM      3  N3  <0> d           2.741  -5.998  -1.720  0.00  0.00    -0.357 N 
ATOM      4  H9  <0> d           2.794  -6.630  -0.987  0.00  0.00     0.162 HD
ENDROOT
BRANCH   1   5
ATOM      5  C9  <0> d           2.627  -4.183  -0.044  0.00  0.00     0.239 C 
BRANCH   5   6
ATOM      6  N1  <0> d           2.522  -2.722  -0.036  0.00  0.00    -0.257 N 
ATOM      7  C7  <0> d           1.301  -2.145  -0.021  0.00  0.00     0.264 A 
ATOM      8  C5  <0> d           1.223  -0.673  -0.013  0.00  0.00     0.059 A 
ATOM      9  O1  <0> d           0.291  -2.823  -0.016  0.00  0.00    -0.267 OA
ATOM     10  C4  <0> d           2.425   0.056  -0.021  0.00  0.00     0.052 A 
ATOM     11  C6  <0> d           0.002  -0.004   0.002  0.00  0.00     0.019 A 
ATOM     12  C3  <0> d           2.386   1.442  -0.013  0.00  0.00     0.030 A 
ATOM     13  N2  <0> d           3.627  -0.638  -0.036  0.00  0.00    -0.307 N 
ATOM     14  C2  <0> d           1.169   2.093   0.002  0.00  0.00     0.002 A 
ATOM     15  C1  <0> d          -0.017   1.375   0.010  0.00  0.00     0.001 A 
ATOM     16  C8  <0> d           3.642  -1.982  -0.043  0.00  0.00     0.330 A 
ATOM     17  H1  <0> d           4.464  -0.148  -0.041  0.00  0.00     0.170 HD
ATOM     18  O2  <0> d           4.716  -2.551  -0.056  0.00  0.00    -0.246 OA
ENDBRANCH   5   6
ENDBRANCH   1   5
BRANCH   3  19
ATOM     19  C11 <0> d           2.763  -6.479  -3.104  0.00  0.00     0.156 C 
BRANCH  19  20
ATOM     20  C12 <0> d           2.873  -8.005  -3.112  0.00  0.00     0.160 C 
BRANCH  20  21
ATOM     21  C13 <0> d           2.895  -8.507  -4.558  0.00  0.00     0.209 C 
BRANCH  21  22
ATOM     22  O4  <0> d           2.880  -9.935  -4.566  0.00  0.00    -0.349 OA
BRANCH  22  23
ATOM     23  C14 <0> d           2.897 -10.546  -5.780  0.00  0.00     0.069 A 
ATOM     24  C19 <0> d           2.883 -11.931  -5.862  0.00  0.00     0.040 A 
ATOM     25  C18 <0> d           2.894 -12.549  -7.097  0.00  0.00     0.045 A 
ATOM     26  C17 <0> d           2.931 -11.788  -8.253  0.00  0.00     0.116 A 
ATOM     27  C16 <0> d           2.951 -10.406  -8.173  0.00  0.00     0.045 A 
ATOM     28  F1  <0> d           2.947 -12.395  -9.460  0.00  0.00    -0.206 F 
ATOM     29  C15 <0> d           2.933  -9.785  -6.939  0.00  0.00     0.040 A 
ENDBRANCH  22  23
ENDBRANCH  21  22
ENDBRANCH  20  21
BRANCH  20  30
ATOM     30  O5  <0> d           4.077  -8.400  -2.452  0.00  0.00    -0.392 OA
ATOM     31  H18 <0> d           4.881  -8.054  -2.862  0.00  0.00     0.210 HD
ENDBRANCH  20  30
ENDBRANCH  19  20
ENDBRANCH   3  19
TORSDOF 8
