REMARK  4 active torsions:
REMARK  status: ('A' for Active; 'I' for Inactive)
REMARK    1  A    between atoms: C5_7  and  C6_8 
REMARK       I    between atoms: C6_8  and  N2_10 
REMARK    2  A    between atoms: N2_10  and  C7_11 
REMARK    3  A    between atoms: N3_19  and  C15_20 
REMARK    4  A    between atoms: C15_20  and  C16_21 
REMARK       I    between atoms: C16_21  and  N4_23 
ROOT
ATOM      1  C6  <0> d           0.621  -0.534   2.536  0.00  0.00     0.273 C 
ATOM      2  O1  <0> d           1.145   0.520   2.843  0.00  0.00    -0.266 OA
ATOM      3  N2  <0> d           0.055  -1.306   3.486  0.00  0.00    -0.322 N 
ATOM      4  H5  <0> d          -0.421  -2.113   3.234  0.00  0.00     0.169 HD
ENDROOT
BRANCH   3   5
ATOM      5  C7  <0> d           0.155  -0.944   4.835  0.00  0.00     0.035 A 
ATOM      6  C12 <0> d           0.273  -1.922   5.804  0.00  0.00     0.043 A 
ATOM      7  C11 <0> d           0.378  -1.553   7.147  0.00  0.00    -0.006 A 
ATOM      8  C10 <0> d           0.352  -0.194   7.506  0.00  0.00     0.045 A 
ATOM      9  C13 <0> d           0.516  -2.301   8.398  0.00  0.00     0.031 A 
ATOM     10  C9  <0> d           0.226   0.776   6.517  0.00  0.00     0.033 A 
ATOM     11  N3  <0> d           0.467  -0.135   8.879  0.00  0.00    -0.347 N 
ATOM     12  C8  <0> d           0.129   0.403   5.196  0.00  0.00     0.032 A 
ATOM     13  C14 <0> d           0.564  -1.400   9.392  0.00  0.00     0.092 A 
BRANCH  11  14
ATOM     14  C15 <0> d           0.483   1.098   9.671  0.00  0.00     0.231 C 
BRANCH  14  15
ATOM     15  C16 <0> d          -0.931   1.529   9.959  0.00  0.00     0.237 C 
ATOM     16  O2  <0> d          -1.862   0.871   9.544  0.00  0.00    -0.272 OA
ATOM     17  N4  <0> d          -1.163   2.645  10.678  0.00  0.00    -0.359 N 
ATOM     18  C17 <0> d          -2.538   3.064  10.958  0.00  0.00     0.152 C 
ATOM     19  C18 <0> d          -0.038   3.440  11.179  0.00  0.00     0.152 C 
ENDBRANCH  14  15
ENDBRANCH  11  14
ENDBRANCH   3   5
BRANCH   1  20
ATOM     20  C5  <0> d           0.604  -0.966   1.133  0.00  0.00     0.108 A 
ATOM     21  C2  <0> d           1.140  -0.279   0.080  0.00  0.00    -0.014 A 
ATOM     22  C1  <0> d           1.850   1.050   0.139  0.00  0.00     0.052 C 
ATOM     23  C3  <0> d           0.906  -1.052  -1.064  0.00  0.00     0.041 A 
ATOM     24  C22 <0> d           1.266  -0.817  -2.471  0.00  0.00     0.162 C 
ATOM     25  C4  <0> d           0.218  -2.198  -0.666  0.00  0.00     0.024 A 
ATOM     26  C21 <0> d           1.081  -2.013  -3.393  0.00  0.00     0.084 C 
ATOM     27  O3  <0> d           1.680   0.252  -2.867  0.00  0.00    -0.292 OA
ATOM     28  C20 <0> d          -0.251  -2.687  -3.050  0.00  0.00     0.014 C 
ATOM     29  C19 <0> d          -0.214  -3.270  -1.634  0.00  0.00     0.058 C 
ATOM     30  N1  <0> d           0.042  -2.134   0.654  0.00  0.00    -0.354 N 
ATOM     31  H1  <0> d          -0.407  -2.803   1.194  0.00  0.00     0.166 HD
ENDBRANCH   1  20
TORSDOF 4
