REMARK  2 active torsions:
REMARK  status: ('A' for Active; 'I' for Inactive)
REMARK    1  A    between atoms: C10_14  and  N5_15 
REMARK    2  A    between atoms: C14_19  and  C16_21 
ROOT
ATOM      1  C1  <0> d          -0.019   1.523   0.010  0.00  0.00     0.002 C 
ATOM      2  C2  <0> d           1.403   2.076  -0.000  0.00  0.00     0.008 C 
ATOM      3  C3  <0> d           2.308   1.143  -0.810  0.00  0.00     0.079 C 
ATOM      4  C4  <0> d           2.867   0.078   0.101  0.00  0.00     0.108 A 
ATOM      5  N1  <0> d           4.121  -0.298   0.160  0.00  0.00    -0.232 NA
ATOM      6  C5  <0> d           4.247  -1.263   1.058  0.00  0.00     0.132 A 
ATOM      7  C6  <0> d           3.010  -1.509   1.602  0.00  0.00     0.161 A 
ATOM      8  N2  <0> d           2.143  -0.651   0.998  0.00  0.00    -0.318 N 
ATOM      9  C7  <0> d           0.707  -0.518   1.259  0.00  0.00     0.132 C 
ATOM     10  C8  <0> d           0.002  -0.004   0.002  0.00  0.00     0.020 C 
ATOM     11  N3  <0> d           2.820  -2.461   2.561  0.00  0.00    -0.224 NA
ATOM     12  C9  <0> d           3.784  -3.314   2.794  0.00  0.00     0.207 C 
ATOM     13  N4  <0> d           4.953  -3.303   2.080  0.00  0.00    -0.352 N 
ATOM     14  C10 <0> d           5.461  -2.042   1.507  0.00  0.00     0.344 C 
ATOM     15  H14 <0> d           5.448  -4.127   1.952  0.00  0.00     0.162 HD
ENDROOT
BRANCH  14  16
ATOM     16  N5  <0> d           6.198  -1.286   2.527  0.00  0.00    -0.044 N 
ATOM     17  C15 <0> d           7.373  -2.056   2.952  0.00  0.00     0.253 C 
ATOM     18  C14 <0> d           8.099  -1.309   4.073  0.00  0.00     0.113 C 
ATOM     19  C13 <0> d           8.545   0.063   3.559  0.00  0.00     0.019 C 
ATOM     20  C12 <0> d           7.320   0.829   3.050  0.00  0.00     0.029 C 
ATOM     21  C11 <0> d           6.623   0.003   1.967  0.00  0.00     0.238 C 
ATOM     22  H23 <0> d           5.598  -1.123   3.322  0.00  0.00     0.282 HD
BRANCH  18  23
ATOM     23  C16 <0> d           9.306  -2.100   4.506  0.00  0.00     0.178 C 
ATOM     24  O1  <0> d          10.028  -1.675   5.392  0.00  0.00    -0.648 OA
ATOM     25  O2  <0> d           9.560  -3.166   3.972  0.00  0.00    -0.648 OA
ENDBRANCH  18  23
ENDBRANCH  14  16
TORSDOF 2
