REMARK  4 active torsions:
REMARK  status: ('A' for Active; 'I' for Inactive)
REMARK    1  A    between atoms: C3_4  and  N3_14 
REMARK    2  A    between atoms: N3_14  and  C11_15 
REMARK    3  A    between atoms: C15_19  and  C17_21 
REMARK    4  A    between atoms: C17_21  and  O1_23 
ROOT
ATOM      1  C1  <0> d           1.660   5.361  -0.896  0.00  0.00     0.093 C 
ATOM      2  C2  <0> d           1.930   3.907  -0.605  0.00  0.00     0.125 A 
ATOM      3  N1  <0> d           0.911   3.084  -0.430  0.00  0.00    -0.215 NA
ATOM      4  C3  <0> d           1.081   1.797  -0.171  0.00  0.00     0.143 A 
ATOM      5  C4  <0> d           2.403   1.283  -0.072  0.00  0.00     0.053 A 
ATOM      6  C5  <0> d           2.830  -0.099   0.200  0.00  0.00    -0.028 A 
ATOM      7  C6  <0> d           4.152  -0.331   0.232  0.00  0.00    -0.008 A 
ATOM      8  S1  <0> d           4.907   1.245  -0.096  0.00  0.00    -0.073 SA
ATOM      9  C7  <0> d           3.436   2.216  -0.277  0.00  0.00     0.114 A 
ATOM     10  N2  <0> d           3.178   3.485  -0.531  0.00  0.00    -0.226 NA
ATOM     11  C8  <0> d           4.468  -1.774   0.519  0.00  0.00     0.047 C 
ATOM     12  C9  <0> d           3.148  -2.524   0.239  0.00  0.00     0.010 C 
ATOM     13  C10 <0> d           2.102  -1.418   0.479  0.00  0.00     0.041 C 
ENDROOT
BRANCH   4  14
ATOM     14  N3  <0> d          -0.011   0.966   0.007  0.00  0.00    -0.340 N 
ATOM     15  H11 <0> d           0.137  -0.117   0.136  0.00  0.00     0.167 HD
BRANCH  14  16
ATOM     16  C11 <0> d          -1.302   1.502   0.024  0.00  0.00     0.034 A 
ATOM     17  C16 <0> d          -2.369   0.763  -0.471  0.00  0.00     0.039 A 
ATOM     18  C15 <0> d          -3.643   1.295  -0.454  0.00  0.00    -0.028 A 
ATOM     19  C14 <0> d          -3.857   2.562   0.056  0.00  0.00     0.010 A 
ATOM     20  C13 <0> d          -2.797   3.301   0.550  0.00  0.00     0.003 A 
ATOM     21  C12 <0> d          -1.522   2.772   0.540  0.00  0.00     0.029 A 
BRANCH  18  22
ATOM     22  C17 <0> d          -4.801   0.494  -0.991  0.00  0.00     0.147 C 
ATOM     23  C18 <0> d          -5.054   0.880  -2.450  0.00  0.00     0.044 C 
BRANCH  22  24
ATOM     24  O1  <0> d          -5.970   0.768  -0.216  0.00  0.00    -0.391 OA
ATOM     25  H19 <0> d          -6.921   0.272  -0.461  0.00  0.00     0.210 HD
ENDBRANCH  22  24
ENDBRANCH  18  22
ENDBRANCH  14  16
ENDBRANCH   4  14
TORSDOF 4
