REMARK  5 active torsions:
REMARK  status: ('A' for Active; 'I' for Inactive)
REMARK    1  A    between atoms: C2_2  and  N1_3 
REMARK    2  A    between atoms: N1_3  and  C3_4 
REMARK       I    between atoms: N1_3  and  C7_10 
REMARK    3  A    between atoms: C3_4  and  C4_5 
REMARK    4  A    between atoms: C4_5  and  C6_7 
REMARK    5  A    between atoms: C7_10  and  C8_12 
ROOT
ATOM      1  N1  <0> d          -1.068  -0.954   0.009  0.00  0.00    -0.347 N 
ATOM      2  C7  <0> d          -1.710  -0.801   1.184  0.00  0.00     0.256 C 
ATOM      3  O1  <0> d          -1.183  -0.181   2.088  0.00  0.00    -0.267 OA
ENDROOT
BRANCH   1   4
ATOM      4  C2  <0> d           0.312  -0.485  -0.139  0.00  0.00     0.121 C 
ATOM      5  C1  <0> d           0.310   1.007  -0.476  0.00  0.00     0.026 C 
ENDBRANCH   1   4
BRANCH   1   6
ATOM      6  C3  <0> d          -1.751  -1.589  -1.121  0.00  0.00     0.137 C 
BRANCH   6   7
ATOM      7  C4  <0> d          -1.399  -3.078  -1.158  0.00  0.00     0.060 C 
ATOM      8  C5  <0> d           0.102  -3.241  -1.403  0.00  0.00     0.019 C 
BRANCH   7   9
ATOM      9  C6  <0> d          -2.166  -3.748  -2.269  0.00  0.00     0.076 C 
ATOM     10  S1  <0> d          -2.970  -2.864  -3.331  0.00  0.00    -0.065 SA
ATOM     11  N2  <0> d          -2.174  -5.092  -2.367  0.00  0.00    -0.393 N 
ATOM     12  H12 <0> d          -1.685  -5.628  -1.722  0.00  0.00     0.156 HD
ATOM     13  H13 <0> d          -2.667  -5.523  -3.082  0.00  0.00     0.156 HD
ENDBRANCH   7   9
ENDBRANCH   6   7
ENDBRANCH   1   6
BRANCH   2  14
ATOM     14  C8  <0> d          -3.050  -1.384   1.374  0.00  0.00     0.068 A 
ATOM     15  C10 <0> d          -3.909  -1.140   2.427  0.00  0.00     0.130 A 
ATOM     16  N4  <0> d          -5.020  -1.864   2.216  0.00  0.00    -0.285 N 
ATOM     17  N3  <0> d          -4.863  -2.581   1.024  0.00  0.00    -0.185 NA
ATOM     18  C11 <0> d          -6.196  -1.901   3.088  0.00  0.00     0.179 C 
ATOM     19  C9  <0> d          -3.694  -2.303   0.515  0.00  0.00     0.157 A 
ENDBRANCH   2  14
TORSDOF 5
