REMARK  4 active torsions:
REMARK  status: ('A' for Active; 'I' for Inactive)
REMARK    1  A    between atoms: C4_4  and  N2_7 
REMARK       I    between atoms: N2_7  and  C5_8 
REMARK    2  A    between atoms: C5_8  and  C6_10 
REMARK    3  A    between atoms: C6_10  and  S1_11 
REMARK    4  A    between atoms: S1_11  and  C7_12 
ROOT
ATOM      1  C6  <0> d          -2.849  -4.978   2.140  0.00  0.00     0.185 C 
ENDROOT
BRANCH   1   2
ATOM      2  C5  <0> d          -1.863  -3.852   1.966  0.00  0.00     0.232 C 
ATOM      3  N2  <0> d          -2.151  -2.826   1.141  0.00  0.00    -0.313 N 
ATOM      4  H7  <0> d          -2.992  -2.813   0.658  0.00  0.00     0.170 HD
ATOM      5  O2  <0> d          -0.811  -3.868   2.570  0.00  0.00    -0.272 OA
BRANCH   3   6
ATOM      6  C4  <0> d          -1.246  -1.792   0.982  0.00  0.00     0.136 C 
ATOM      7  C3  <0> d          -1.432  -0.578   0.091  0.00  0.00     0.115 C 
ATOM      8  C2  <0> d           0.002  -0.004   0.002  0.00  0.00     0.158 C 
ATOM      9  C1  <0> d          -0.019   1.526   0.010  0.00  0.00     0.042 C 
ATOM     10  O1  <0> d           0.600  -0.519   1.209  0.00  0.00    -0.249 OA
ATOM     11  N1  <0> d          -0.102  -1.694   1.565  0.00  0.00    -0.120 NA
ENDBRANCH   3   6
ENDBRANCH   1   2
BRANCH   1  12
ATOM     12  S1  <0> d          -2.178  -6.195   3.305  0.00  0.00    -0.081 SA
BRANCH  12  13
ATOM     13  C7  <0> d          -3.429  -7.431   3.399  0.00  0.00     0.193 A 
ATOM     14  N4  <0> d          -3.225  -8.482   4.195  0.00  0.00    -0.215 NA
ATOM     15  C12 <0> d          -4.119  -9.431   4.311  0.00  0.00     0.112 A 
ATOM     16  C9  <0> d          -5.386  -9.370   3.549  0.00  0.00     0.066 A 
ATOM     17  S2  <0> d          -4.222 -10.941   5.237  0.00  0.00    -0.105 SA
ATOM     18  C8  <0> d          -5.523  -8.156   2.680  0.00  0.00     0.282 A 
ATOM     19  C10 <0> d          -6.256 -10.375   3.709  0.00  0.00     0.004 A 
ATOM     20  N3  <0> d          -4.524  -7.275   2.674  0.00  0.00    -0.183 NA
ATOM     21  O3  <0> d          -6.519  -7.981   1.998  0.00  0.00    -0.265 OA
ATOM     22  C11 <0> d          -5.876 -11.493   4.654  0.00  0.00     0.109 A 
ENDBRANCH  12  13
ENDBRANCH   1  12
TORSDOF 4
