REMARK  5 active torsions:
REMARK  status: ('A' for Active; 'I' for Inactive)
REMARK    1  A    between atoms: C2_2  and  S1_3 
REMARK    2  A    between atoms: S1_3  and  C3_4 
REMARK    3  A    between atoms: C6_7  and  N2_10 
REMARK       I    between atoms: N2_10  and  C8_11 
REMARK    4  A    between atoms: C8_11  and  C9_13 
REMARK       I    between atoms: C9_13  and  N3_15 
REMARK    5  A    between atoms: N3_15  and  C10_16 
ROOT
ATOM      1  C9  <0> d           0.272  -9.093   0.046  0.00  0.00     0.310 C 
ATOM      2  O2  <0> d          -0.624  -9.901   0.177  0.00  0.00    -0.262 OA
ATOM      3  N3  <0> d           1.542  -9.515  -0.112  0.00  0.00    -0.348 N 
ATOM      4  H10 <0> d           2.258  -8.869  -0.216  0.00  0.00     0.163 HD
ENDROOT
BRANCH   1   5
ATOM      5  C8  <0> d          -0.033  -7.631   0.060  0.00  0.00     0.314 C 
ATOM      6  N2  <0> d          -1.304  -7.210   0.218  0.00  0.00    -0.318 N 
ATOM      7  H9  <0> d          -2.009  -7.851   0.398  0.00  0.00     0.169 HD
ATOM      8  O1  <0> d           0.863  -6.823  -0.070  0.00  0.00    -0.262 OA
BRANCH   6   9
ATOM      9  C6  <0> d          -1.605  -5.847   0.122  0.00  0.00     0.052 A 
ATOM     10  C5  <0> d          -0.883  -5.023  -0.742  0.00  0.00     0.034 A 
ATOM     11  C4  <0> d          -1.216  -3.683  -0.805  0.00  0.00     0.041 A 
ATOM     12  C3  <0> d          -2.253  -3.203  -0.011  0.00  0.00     0.093 A 
ATOM     13  N1  <0> d          -2.914  -4.013   0.802  0.00  0.00    -0.252 NA
ATOM     14  C7  <0> d          -2.627  -5.298   0.884  0.00  0.00     0.147 A 
BRANCH  12  15
ATOM     15  S1  <0> d          -2.687  -1.497  -0.082  0.00  0.00    -0.111 SA
BRANCH  15  16
ATOM     16  C2  <0> d          -4.052  -1.341   1.103  0.00  0.00     0.076 C 
ATOM     17  C1  <0> d          -4.531   0.111   1.141  0.00  0.00     0.016 C 
ENDBRANCH  15  16
ENDBRANCH  12  15
ENDBRANCH   6   9
ENDBRANCH   1   5
BRANCH   3  18
ATOM     18  C10 <0> d           1.843 -10.952  -0.125  0.00  0.00     0.089 C 
ATOM     19  C14 <0> d           3.136 -11.189  -0.904  0.00  0.00     0.063 C 
ATOM     20  C13 <0> d           3.515 -12.666  -0.886  0.00  0.00     0.121 C 
ATOM     21  N4  <0> d           3.504 -13.245   0.448  0.00  0.00    -0.059 N 
ATOM     22  C15 <0> d           2.618 -13.447  -1.850  0.00  0.00     0.046 C 
ATOM     23  C16 <0> d           4.961 -12.775  -1.427  0.00  0.00     0.046 C 
ATOM     24  C12 <0> d           2.377 -12.929   1.313  0.00  0.00     0.121 C 
ATOM     25  H14 <0> d           4.364 -12.966   0.927  0.00  0.00     0.279 HD
ATOM     26  H29 <0> d           3.565 -14.262   0.359  0.00  0.00     0.279 HD
ATOM     27  C11 <0> d           2.052 -11.435   1.311  0.00  0.00     0.063 C 
ATOM     28  C17 <0> d           1.133 -13.742   0.957  0.00  0.00     0.046 C 
ATOM     29  C18 <0> d           2.776 -13.309   2.757  0.00  0.00     0.046 C 
ENDBRANCH   3  18
TORSDOF 5
