REMARK  5 active torsions:
REMARK  status: ('A' for Active; 'I' for Inactive)
REMARK    1  A    between atoms: C2_2  and  N1_8 
REMARK    2  A    between atoms: N1_8  and  S1_9 
REMARK    3  A    between atoms: S1_9  and  C8_12 
REMARK    4  A    between atoms: C12_17  and  N3_18 
REMARK    5  A    between atoms: N3_18  and  N4_19 
ROOT
ATOM      1  C8  <0> d          -2.686   1.518  -1.242  0.00  0.00     0.127 A 
ATOM      2  C9  <0> d          -2.200   2.172  -2.360  0.00  0.00     0.050 A 
ATOM      3  C10 <0> d          -2.297   3.557  -2.412  0.00  0.00     0.030 A 
ATOM      4  C11 <0> d          -2.873   4.234  -1.354  0.00  0.00     0.138 A 
ATOM      5  N2  <0> d          -3.327   3.583  -0.300  0.00  0.00    -0.239 NA
ATOM      6  C12 <0> d          -3.258   2.263  -0.217  0.00  0.00     0.161 A 
ATOM      7 Br1  <0> d          -1.649   4.505  -3.914  0.00  0.00    -0.050 Br
ENDROOT
BRANCH   1   8
ATOM      8  S1  <0> d          -2.588  -0.238  -1.122  0.00  0.00     0.263 S 
ATOM      9  O1  <0> d          -1.901  -0.686  -2.283  0.00  0.00    -0.200 OA
ATOM     10  O2  <0> d          -3.890  -0.695  -0.784  0.00  0.00    -0.200 OA
BRANCH   8  11
ATOM     11  N1  <0> d          -1.613  -0.587   0.170  0.00  0.00    -0.306 N 
ATOM     12  H14 <0> d          -1.985  -1.013   0.957  0.00  0.00     0.173 HD
BRANCH  11  13
ATOM     13  C2  <0> d          -0.187  -0.252   0.123  0.00  0.00     0.037 C 
ATOM     14  C1  <0> d          -0.022   1.228  -0.229  0.00  0.00     0.039 C 
ATOM     15  C7  <0> d           0.446  -0.524   1.489  0.00  0.00     0.031 C 
ATOM     16  C6  <0> d           0.281  -2.004   1.842  0.00  0.00     0.002 C 
ATOM     17  C5  <0> d           0.972  -2.861   0.780  0.00  0.00     0.000 C 
ATOM     18  C4  <0> d           0.339  -2.589  -0.586  0.00  0.00     0.002 C 
ATOM     19  C3  <0> d           0.504  -1.109  -0.939  0.00  0.00     0.031 C 
ENDBRANCH  11  13
ENDBRANCH   8  11
ENDBRANCH   1   8
BRANCH   6  20
ATOM     20  N3  <0> d          -3.756   1.617   0.910  0.00  0.00    -0.307 N 
ATOM     21  H17 <0> d          -3.605   0.667   1.030  0.00  0.00     0.182 HD
BRANCH  20  22
ATOM     22  N4  <0> d          -4.457   2.321   1.846  0.00  0.00    -0.248 NA
ATOM     23  H18 <0> d          -4.753   1.722   2.602  0.00  0.00     0.143 HD
ATOM     24  H19 <0> d          -3.918   3.100   2.193  0.00  0.00     0.143 HD
ENDBRANCH  20  22
ENDBRANCH   6  20
TORSDOF 5
