REMARK  4 active torsions:
REMARK  status: ('A' for Active; 'I' for Inactive)
REMARK    1  A    between atoms: C5_6  and  S2_24 
REMARK    2  A    between atoms: N2_10  and  N3_11 
REMARK    3  A    between atoms: N3_11  and  S1_12 
REMARK    4  A    between atoms: C11_17  and  C12_18 
ROOT
ATOM      1  C1  <0> d           4.690  -0.190  -6.393  0.00  0.00     0.156 C 
ATOM      2  N1  <0> d           4.028  -0.537  -5.134  0.00  0.00    -0.350 N 
ATOM      3  C2  <0> d           2.796  -1.178  -5.169  0.00  0.00     0.047 A 
ATOM      4  C3  <0> d           2.322  -1.747  -6.343  0.00  0.00     0.032 A 
ATOM      5  C4  <0> d           1.096  -2.391  -6.348  0.00  0.00     0.028 A 
ATOM      6  C5  <0> d           0.330  -2.461  -5.197  0.00  0.00     0.081 A 
ATOM      7  C6  <0> d           0.787  -1.895  -4.022  0.00  0.00     0.042 A 
ATOM      8  C7  <0> d           2.020  -1.256  -4.003  0.00  0.00     0.023 A 
ATOM      9  C8  <0> d           2.551  -0.637  -2.763  0.00  0.00     0.092 C 
ATOM     10  N2  <0> d           1.788  -0.448  -1.712  0.00  0.00    -0.164 NA
ATOM     11  C10 <0> d           3.972  -0.249  -2.761  0.00  0.00     0.065 C 
ATOM     12  C11 <0> d           4.645  -0.219  -3.936  0.00  0.00     0.047 C 
ENDROOT
BRANCH  10  13
ATOM     13  N3  <0> d           0.394  -0.437  -1.851  0.00  0.00    -0.204 N 
ATOM     14  H7  <0> d          -0.005  -0.479  -2.734  0.00  0.00     0.202 HD
BRANCH  13  15
ATOM     15  S1  <0> d          -0.571  -0.352  -0.508  0.00  0.00     0.241 S 
ATOM     16  O1  <0> d          -0.173  -1.456   0.294  0.00  0.00    -0.205 OA
ATOM     17  O2  <0> d          -1.894  -0.266  -1.017  0.00  0.00    -0.205 OA
ATOM     18  C9  <0> d          -0.110   1.205   0.300  0.00  0.00     0.187 C 
ENDBRANCH  13  15
ENDBRANCH  10  13
BRANCH  12  19
ATOM     19  C12 <0> d           6.073   0.160  -3.939  0.00  0.00    -0.009 A 
ATOM     20  C17 <0> d           6.544   1.124  -3.046  0.00  0.00     0.014 A 
ATOM     21  C16 <0> d           7.878   1.474  -3.054  0.00  0.00     0.001 A 
ATOM     22  C15 <0> d           8.749   0.872  -3.945  0.00  0.00     0.000 A 
ATOM     23  C14 <0> d           8.289  -0.084  -4.833  0.00  0.00     0.001 A 
ATOM     24  C13 <0> d           6.958  -0.447  -4.832  0.00  0.00     0.014 A 
ENDBRANCH  12  19
BRANCH   6  25
ATOM     25  S2  <0> d          -1.233  -3.273  -5.231  0.00  0.00     0.137 S 
ATOM     26  O3  <0> d          -1.189  -4.194  -6.312  0.00  0.00    -0.591 OA
ATOM     27  O4  <0> d          -1.509  -3.678  -3.897  0.00  0.00    -0.591 OA
ATOM     28  O5  <0> d          -2.276  -2.227  -5.593  0.00  0.00    -0.591 OA
ENDBRANCH   6  25
TORSDOF 4
