REMARK  3 active torsions:
REMARK  status: ('A' for Active; 'I' for Inactive)
REMARK    1  A    between atoms: C5_5  and  N2_21 
REMARK    2  A    between atoms: C7_7  and  N1_8 
REMARK       I    between atoms: N1_8  and  C8_9 
REMARK    3  A    between atoms: C8_9  and  C9_11 
ROOT
ATOM      1  C1  <0> d          -0.009   1.493   0.004  0.00  0.00     0.050 C 
ATOM      2  C2  <0> d           0.016  -0.014   0.002  0.00  0.00    -0.035 A 
ATOM      3  C3  <0> d           0.028  -0.703  -1.196  0.00  0.00     0.011 A 
ATOM      4  C4  <0> d           0.050  -2.084  -1.202  0.00  0.00     0.031 A 
ATOM      5  C5  <0> d           0.061  -2.785  -0.003  0.00  0.00     0.047 A 
ATOM      6  C6  <0> d           0.049  -2.097   1.202  0.00  0.00     0.060 A 
ATOM      7  C7  <0> d           0.032  -0.709   1.204  0.00  0.00     0.043 A 
ENDROOT
BRANCH   7   8
ATOM      8  N1  <0> d           0.025  -0.011   2.417  0.00  0.00    -0.324 N 
ATOM      9  C8  <0> d          -0.632  -0.514   3.481  0.00  0.00     0.254 C 
ATOM     10  O1  <0> d          -1.148  -1.610   3.412  0.00  0.00    -0.270 OA
ATOM     11  H8  <0> d           0.493   0.835   2.492  0.00  0.00     0.169 HD
BRANCH   9  12
ATOM     12  C9  <0> d          -0.725   0.284   4.756  0.00  0.00     0.245 C 
ATOM     13  O3  <0> d          -1.375  -0.494   5.766  0.00  0.00    -0.331 OA
ATOM     14  C16 <0> d          -1.802   0.174   6.873  0.00  0.00     0.103 A 
ATOM     15  C11 <0> d          -1.938   1.557   6.860  0.00  0.00     0.102 A 
ATOM     16  C15 <0> d          -2.110  -0.539   8.022  0.00  0.00     0.040 A 
ATOM     17  O2  <0> d          -1.637   2.277   5.745  0.00  0.00    -0.345 OA
ATOM     18  C12 <0> d          -2.383   2.217   7.996  0.00  0.00     0.039 A 
ATOM     19  C10 <0> d          -1.557   1.551   4.513  0.00  0.00     0.218 C 
ATOM     20  C13 <0> d          -2.689   1.500   9.138  0.00  0.00     0.003 A 
ATOM     21  C14 <0> d          -2.552   0.125   9.151  0.00  0.00     0.003 A 
ENDBRANCH   9  12
ENDBRANCH   7   8
BRANCH   5  22
ATOM     22  N2  <0> d           0.082  -4.182  -0.009  0.00  0.00    -0.276 N 
ATOM     23  S1  <0> d           0.664  -5.177  -1.226  0.00  0.00     0.233 S 
ATOM     24  C19 <0> d           0.229  -6.833  -0.556  0.00  0.00     0.165 C 
ATOM     25  O4  <0> d           2.072  -4.991  -1.228  0.00  0.00    -0.205 OA
ATOM     26  O5  <0> d          -0.121  -4.874  -2.372  0.00  0.00    -0.205 OA
ATOM     27  C18 <0> d          -0.885  -6.420   0.453  0.00  0.00     0.038 C 
ATOM     28  C17 <0> d          -0.407  -5.083   1.050  0.00  0.00     0.142 C 
ENDBRANCH   5  22
TORSDOF 3
