REMARK  3 active torsions:
REMARK  status: ('A' for Active; 'I' for Inactive)
REMARK    1  A    between atoms: C6_7  and  C12_14 
REMARK    2  A    between atoms: N4_19  and  C16_22 
REMARK    3  A    between atoms: C16_22  and  C17_23 
ROOT
ATOM      1  C12 <0> d           3.368  -2.230  -2.404  0.00  0.00     0.097 A 
ATOM      2  C13 <0> d           2.086  -1.929  -2.760  0.00  0.00     0.195 A 
ATOM      3  N3  <0> d           1.847  -1.307  -3.958  0.00  0.00    -0.310 N 
ATOM      4  C14 <0> d           2.866  -0.995  -4.780  0.00  0.00     0.183 A 
ATOM      5  S1  <0> d           2.540  -0.219  -6.271  0.00  0.00    -0.040 SA
ATOM      6  N4  <0> d           4.137  -1.284  -4.447  0.00  0.00    -0.286 N 
ATOM      7  C15 <0> d           4.417  -1.890  -3.276  0.00  0.00     0.263 A 
ATOM      8  O1  <0> d           5.571  -2.145  -2.978  0.00  0.00    -0.267 OA
ATOM      9  O2  <0> d           1.061  -2.240  -1.938  0.00  0.00    -0.171 OA
ATOM     10  H20 <0> d           0.937  -1.090  -4.215  0.00  0.00     0.170 HD
ENDROOT
BRANCH   1  11
ATOM     11  C6  <0> d           3.656  -2.913  -1.092  0.00  0.00     0.255 C 
ATOM     12  C5  <0> d           3.036  -2.110   0.054  0.00  0.00     0.147 C 
ATOM     13  N1  <0> d           3.357  -0.688  -0.014  0.00  0.00    -0.378 N 
ATOM     14  C9  <0> d           1.526  -2.189  -0.110  0.00  0.00    -0.041 C 
ATOM     15  C4  <0> d           2.232  -0.008  -0.014  0.00  0.00     0.039 A 
ATOM     16  H18 <0> d           4.249  -0.309  -0.054  0.00  0.00     0.160 HD
ATOM     17  C3  <0> d           1.973   1.389   0.008  0.00  0.00     0.030 A 
ATOM     18  C10 <0> d           1.071  -0.931  -0.084  0.00  0.00    -0.005 A 
ATOM     19  C2  <0> d           0.706   1.852  -0.027  0.00  0.00     0.002 A 
ATOM     20  C1  <0> d          -0.407   1.002  -0.085  0.00  0.00     0.001 A 
ATOM     21  C11 <0> d          -0.275  -0.343  -0.114  0.00  0.00     0.014 A 
ATOM     22  C8  <0> d           0.825  -3.501  -0.382  0.00  0.00     0.065 C 
ATOM     23  C7  <0> d           1.644  -4.229  -1.464  0.00  0.00     0.237 C 
ATOM     24  N2  <0> d           3.060  -4.258  -1.091  0.00  0.00    -0.064 N 
ATOM     25  H6  <0> d           3.561  -4.839  -1.747  0.00  0.00     0.278 HD
ATOM     26  H19 <0> d           3.149  -4.656  -0.168  0.00  0.00     0.278 HD
ENDBRANCH   1  11
BRANCH   6  27
ATOM     27  C16 <0> d           5.226  -0.932  -5.362  0.00  0.00     0.173 C 
BRANCH  27  28
ATOM     28  C17 <0> d           5.722   0.455  -5.044  0.00  0.00    -0.040 A 
ATOM     29  C22 <0> d           6.743   0.631  -4.130  0.00  0.00     0.012 A 
ATOM     30  C21 <0> d           7.202   1.902  -3.841  0.00  0.00     0.043 A 
ATOM     31  C20 <0> d           6.630   3.001  -4.460  0.00  0.00     0.116 A 
ATOM     32  C19 <0> d           5.604   2.824  -5.372  0.00  0.00     0.043 A 
ATOM     33  F1  <0> d           7.075   4.244  -4.174  0.00  0.00    -0.206 F 
ATOM     34  C18 <0> d           5.150   1.551  -5.663  0.00  0.00     0.012 A 
ENDBRANCH  27  28
ENDBRANCH   6  27
TORSDOF 3
