REMARK  5 active torsions:
REMARK  status: ('A' for Active; 'I' for Inactive)
REMARK    1  A    between atoms: C1_1  and  C2_2 
REMARK    2  A    between atoms: C1_1  and  O6_16 
REMARK    3  A    between atoms: C3_3  and  O5_15 
REMARK    4  A    between atoms: C4_4  and  O4_14 
REMARK    5  A    between atoms: C5_5  and  O3_13 
ROOT
ATOM      1  C2  <0> d           0.002  -0.004   0.002  0.00  0.00     0.144 C 
ATOM      2  C3  <0> d          -1.431  -0.546   0.115  0.00  0.00     0.174 C 
ATOM      3  C4  <0> d          -1.429  -2.056  -0.126  0.00  0.00     0.181 C 
ATOM      4  C5  <0> d          -0.950  -2.369  -1.547  0.00  0.00     0.192 C 
ATOM      5  C6  <0> d           0.500  -1.897  -1.694  0.00  0.00     0.222 C 
ATOM      6  N1  <0> d           0.559  -0.488  -1.266  0.00  0.00    -0.311 N 
ATOM      7  C7  <0> d           1.168   0.208  -2.234  0.00  0.00     0.313 C 
ATOM      8  O1  <0> d           1.503   1.373  -2.167  0.00  0.00    -0.262 OA
ATOM      9  C8  <0> d           1.366  -0.691  -3.412  0.00  0.00     0.311 C 
ATOM     10  O2  <0> d           1.842  -0.364  -4.479  0.00  0.00    -0.262 OA
ATOM     11  N2  <0> d           0.929  -1.942  -3.091  0.00  0.00    -0.329 N 
ATOM     12  H8  <0> d           0.904  -2.717  -3.674  0.00  0.00     0.165 HD
ENDROOT
BRANCH   1  13
ATOM     13  C1  <0> d          -0.019   1.526   0.010  0.00  0.00     0.192 C 
BRANCH  13  14
ATOM     14  O6  <0> d           1.322   2.020   0.000  0.00  0.00    -0.399 OA
ATOM     15  H12 <0> d           1.385   2.985   0.005  0.00  0.00     0.209 HD
ENDBRANCH  13  14
ENDBRANCH   1  13
BRANCH   2  16
ATOM     16  O5  <0> d          -1.941  -0.274   1.421  0.00  0.00    -0.391 OA
ATOM     17  H11 <0> d          -2.844  -0.589   1.565  0.00  0.00     0.210 HD
ENDBRANCH   2  16
BRANCH   3  18
ATOM     18  O4  <0> d          -2.754  -2.563   0.045  0.00  0.00    -0.390 OA
ATOM     19  H10 <0> d          -2.831  -3.518  -0.093  0.00  0.00     0.210 HD
ENDBRANCH   3  18
BRANCH   4  20
ATOM     20  O3  <0> d          -1.024  -3.777  -1.778  0.00  0.00    -0.389 OA
ATOM     21  H9  <0> d          -1.914  -4.144  -1.692  0.00  0.00     0.210 HD
ENDBRANCH   4  20
TORSDOF 5
