REMARK  7 active torsions:
REMARK  status: ('A' for Active; 'I' for Inactive)
REMARK    1  A    between atoms: N2_5  and  C6_8 
REMARK    2  A    between atoms: C6_8  and  C7_9 
REMARK    3  A    between atoms: C7_9  and  C8_10 
REMARK    4  A    between atoms: C8_10  and  C9_11 
REMARK    5  A    between atoms: C8_10  and  O2_20 
REMARK    6  A    between atoms: C12_14  and  O1_18 
REMARK    7  A    between atoms: C13_15  and  N3_17 
ROOT
ATOM      1  C8  <0> d           2.459  -5.972   1.079  0.00  0.00     0.152 C 
ENDROOT
BRANCH   1   2
ATOM      2  C7  <0> d           2.381  -4.444   1.088  0.00  0.00     0.067 C 
BRANCH   2   3
ATOM      3  C6  <0> d           1.453  -3.974  -0.034  0.00  0.00     0.275 C 
BRANCH   3   4
ATOM      4  N2  <0> d           1.378  -2.507  -0.025  0.00  0.00     0.091 N 
ATOM      5  C3  <0> d           0.693  -2.008  -1.226  0.00  0.00     0.300 C 
ATOM      6  C2  <0> d           0.688  -0.477  -1.207  0.00  0.00     0.264 C 
ATOM      7  N1  <0> d           0.002  -0.004   0.002  0.00  0.00    -0.072 N 
ATOM      8  C1  <0> d          -0.018   1.465   0.010  0.00  0.00     0.269 C 
ATOM      9  C5  <0> d           0.713  -0.490   1.192  0.00  0.00     0.264 C 
ATOM     10  H26 <0> d          -0.945  -0.353   0.010  0.00  0.00     0.279 HD
ATOM     11  C4  <0> d           0.717  -2.021   1.194  0.00  0.00     0.300 C 
ENDBRANCH   3   4
ENDBRANCH   2   3
ENDBRANCH   1   2
BRANCH   1  12
ATOM     12  C9  <0> d           3.466  -6.429   2.103  0.00  0.00    -0.027 A 
ATOM     13  C14 <0> d           4.768  -6.689   1.721  0.00  0.00     0.041 A 
ATOM     14  C13 <0> d           5.697  -7.106   2.664  0.00  0.00     0.060 A 
ATOM     15  C12 <0> d           5.310  -7.271   3.992  0.00  0.00     0.094 A 
ATOM     16  C11 <0> d           4.002  -7.014   4.365  0.00  0.00     0.040 A 
ATOM     17  C10 <0> d           3.083  -6.594   3.421  0.00  0.00     0.012 A 
BRANCH  14  18
ATOM     18  N3  <0> d           7.018  -7.364   2.280  0.00  0.00    -0.397 N 
ATOM     19  H20 <0> d           7.666  -7.658   2.940  0.00  0.00     0.156 HD
ATOM     20  H21 <0> d           7.286  -7.248   1.355  0.00  0.00     0.156 HD
ENDBRANCH  14  18
BRANCH  15  21
ATOM     21  O1  <0> d           6.215  -7.684   4.919  0.00  0.00    -0.354 OA
ATOM     22  C15 <0> d           5.748  -7.831   6.261  0.00  0.00     0.210 C 
ENDBRANCH  15  21
ENDBRANCH   1  12
BRANCH   1  23
ATOM     23  O2  <0> d           1.176  -6.516   1.396  0.00  0.00    -0.391 OA
ATOM     24  H25 <0> d           0.841  -6.253   2.264  0.00  0.00     0.210 HD
ENDBRANCH   1  23
TORSDOF 7
