REMARK  3 active torsions:
REMARK  status: ('A' for Active; 'I' for Inactive)
REMARK    1  A    between atoms: N3_21  and  C17_22 
REMARK    2  A    between atoms: C17_22  and  C18_23 
REMARK    3  A    between atoms: C18_23  and  C19_24 
ROOT
ATOM      1  C1  <0> d          -0.018   1.461   0.010  0.00  0.00     0.159 C 
ATOM      2  N1  <0> d           0.002  -0.004   0.002  0.00  0.00    -0.318 N 
ATOM      3  C2  <0> d          -1.135  -0.793   0.003  0.00  0.00     0.048 A 
ATOM      4  C3  <0> d          -2.478  -0.412   0.013  0.00  0.00     0.030 A 
ATOM      5  C4  <0> d          -3.423  -1.425   0.013  0.00  0.00     0.002 A 
ATOM      6  C5  <0> d          -3.067  -2.758   0.003  0.00  0.00     0.001 A 
ATOM      7  C6  <0> d          -1.733  -3.151  -0.007  0.00  0.00     0.014 A 
ATOM      8  C7  <0> d          -0.786  -2.149  -0.007  0.00  0.00     0.027 A 
ATOM      9  C8  <0> d           0.710  -2.199  -0.015  0.00  0.00     0.223 A 
ATOM     10  C9  <0> d           1.131  -0.743  -0.013  0.00  0.00     0.278 A 
ATOM     11  O1  <0> d           2.268  -0.321  -0.022  0.00  0.00    -0.268 OA
ATOM     12  N2  <0> d           1.203  -2.847  -1.232  0.00  0.00    -0.351 N 
ATOM     13  C10 <0> d           1.245  -4.236  -1.284  0.00  0.00     0.046 A 
ATOM     14  C11 <0> d           1.145  -4.922  -2.483  0.00  0.00     0.030 A 
ATOM     15  C12 <0> d           1.204  -6.302  -2.489  0.00  0.00     0.002 A 
ATOM     16  C13 <0> d           1.364  -7.005  -1.305  0.00  0.00     0.001 A 
ATOM     17  C14 <0> d           1.460  -6.338  -0.102  0.00  0.00     0.019 A 
ATOM     18  C15 <0> d           1.397  -4.946  -0.080  0.00  0.00     0.058 A 
ATOM     19  C16 <0> d           1.471  -4.192   1.183  0.00  0.00     0.258 C 
ATOM     20  O2  <0> d           1.757  -4.759   2.220  0.00  0.00    -0.267 OA
ATOM     21  N3  <0> d           1.218  -2.867   1.180  0.00  0.00    -0.309 N 
ATOM     22  H8  <0> d           1.496  -2.316  -1.989  0.00  0.00     0.163 HD
ENDROOT
BRANCH  21  23
ATOM     23  C17 <0> d           1.458  -2.085   2.395  0.00  0.00     0.134 C 
BRANCH  23  24
ATOM     24  C18 <0> d           0.190  -2.069   3.250  0.00  0.00     0.058 C 
BRANCH  24  25
ATOM     25  C19 <0> d           0.436  -1.264   4.500  0.00  0.00    -0.057 A 
ATOM     26  C24 <0> d           0.182   0.094   4.509  0.00  0.00     0.007 A 
ATOM     27  C23 <0> d           0.404   0.831   5.657  0.00  0.00     0.001 A 
ATOM     28  C22 <0> d           0.890   0.212   6.794  0.00  0.00     0.000 A 
ATOM     29  C21 <0> d           1.149  -1.146   6.783  0.00  0.00     0.001 A 
ATOM     30  C20 <0> d           0.923  -1.884   5.636  0.00  0.00     0.007 A 
ENDBRANCH  24  25
ENDBRANCH  23  24
ENDBRANCH  21  23
TORSDOF 3
