REMARK  1 active torsions:
REMARK  status: ('A' for Active; 'I' for Inactive)
REMARK    1  A    between atoms: C11_12  and  O1_15 
ROOT
ATOM      1  C1  <0> d           2.349   4.065  -3.745  0.00  0.00     0.147 C 
ATOM      2  N1  <0> d           2.647   2.773  -3.124  0.00  0.00    -0.381 N 
ATOM      3  C2  <0> d           3.004   2.718  -1.865  0.00  0.00     0.103 C 
ATOM      4  C3  <0> d           3.171   1.433  -1.170  0.00  0.00     0.088 C 
ATOM      5  C4  <0> d           2.307   1.107  -0.175  0.00  0.00     0.121 C 
ATOM      6  C5  <0> d           1.173   2.000   0.128  0.00  0.00     0.011 A 
ATOM      7  C6  <0> d          -0.119   1.475   0.213  0.00  0.00     0.015 A 
ATOM      8  C7  <0> d          -1.188   2.307   0.469  0.00  0.00     0.001 A 
ATOM      9  C8  <0> d          -0.988   3.665   0.648  0.00  0.00     0.001 A 
ATOM     10  C9  <0> d           0.288   4.196   0.567  0.00  0.00     0.012 A 
ATOM     11  C10 <0> d           1.365   3.376   0.317  0.00  0.00     0.003 A 
ATOM     12  C11 <0> d           2.762   3.949   0.256  0.00  0.00     0.256 C 
ATOM     13  N2  <0> d           3.240   3.866  -1.132  0.00  0.00    -0.341 N 
ATOM     14  C12 <0> d           3.961   4.991  -1.733  0.00  0.00     0.154 C 
ATOM     15  O2  <0> d           2.485  -0.032   0.535  0.00  0.00    -0.191 OA
ATOM     16  H14 <0> d           2.571   1.848  -3.715  0.00  0.00     0.160 HD
ENDROOT
BRANCH  12  17
ATOM     17  O1  <0> d           3.628   3.196   1.108  0.00  0.00    -0.372 OA
ATOM     18  H13 <0> d           4.690   3.469   1.192  0.00  0.00     0.212 HD
ENDBRANCH  12  17
TORSDOF 1
