REMARK  6 active torsions:
REMARK  status: ('A' for Active; 'I' for Inactive)
REMARK    1  A    between atoms: C2_2  and  C4_4 
REMARK    2  A    between atoms: C4_4  and  C5_5 
REMARK    3  A    between atoms: C5_5  and  C6_6 
REMARK    4  A    between atoms: C5_5  and  N2_10 
REMARK       I    between atoms: C6_6  and  N1_8 
REMARK       I    between atoms: N2_10  and  C8_11 
REMARK    5  A    between atoms: C8_11  and  C9_13 
REMARK    6  A    between atoms: C10_14  and  C11_15 
ROOT
ATOM      1  N2  <0> d          -1.343  -2.603  -0.176  0.00  0.00    -0.344 N 
ATOM      2  C8  <0> d          -0.029  -2.903  -0.203  0.00  0.00     0.241 C 
ATOM      3  O2  <0> d           0.763  -2.124  -0.700  0.00  0.00    -0.269 OA
ATOM      4  H15 <0> d          -1.965  -3.189   0.282  0.00  0.00     0.163 HD
ENDROOT
BRANCH   2   5
ATOM      5  C9  <0> d           0.445  -4.165   0.365  0.00  0.00     0.075 C 
ATOM      6  C10 <0> d           1.760  -4.465   0.338  0.00  0.00     0.017 C 
BRANCH   6   7
ATOM      7  C11 <0> d           2.237  -5.734   0.909  0.00  0.00    -0.032 A 
ATOM      8  C16 <0> d           1.328  -6.631   1.481  0.00  0.00     0.038 A 
ATOM      9  C15 <0> d           1.777  -7.821   2.011  0.00  0.00     0.071 A 
ATOM     10  C14 <0> d           3.132  -8.130   1.990  0.00  0.00     0.126 A 
ATOM     11 Cl1  <0> d           0.647  -8.936   2.714  0.00  0.00    -0.081 Cl
ATOM     12  C13 <0> d           4.044  -7.237   1.425  0.00  0.00     0.107 A 
ATOM     13  O3  <0> d           3.815  -9.219   2.445  0.00  0.00    -0.321 OA
ATOM     14  C12 <0> d           3.601  -6.045   0.887  0.00  0.00     0.051 A 
ATOM     15  O4  <0> d           5.297  -7.770   1.529  0.00  0.00    -0.323 OA
ATOM     16  C17 <0> d           5.096  -9.172   1.790  0.00  0.00     0.352 C 
ENDBRANCH   6   7
ENDBRANCH   2   5
BRANCH   1  17
ATOM     17  C5  <0> d          -1.831  -1.392  -0.839  0.00  0.00     0.177 C 
BRANCH  17  18
ATOM     18  C4  <0> d          -1.671  -0.196   0.102  0.00  0.00     0.038 C 
BRANCH  18  19
ATOM     19  C2  <0> d          -2.373  -0.492   1.428  0.00  0.00    -0.020 C 
ATOM     20  C1  <0> d          -2.025   0.597   2.444  0.00  0.00     0.009 C 
ATOM     21  C3  <0> d          -3.887  -0.519   1.208  0.00  0.00     0.009 C 
ENDBRANCH  18  19
ENDBRANCH  17  18
BRANCH  17  22
ATOM     22  C6  <0> d          -3.287  -1.563  -1.190  0.00  0.00     0.240 C 
ATOM     23  O1  <0> d          -3.867  -2.585  -0.889  0.00  0.00    -0.271 OA
ATOM     24  N1  <0> d          -3.944  -0.581  -1.838  0.00  0.00    -0.364 N 
ATOM     25  C7  <0> d          -5.359  -0.747  -2.179  0.00  0.00     0.149 C 
ATOM     26  H11 <0> d          -3.480   0.237  -2.078  0.00  0.00     0.161 HD
ENDBRANCH  17  22
ENDBRANCH   1  17
TORSDOF 6
