REMARK  5 active torsions:
REMARK  status: ('A' for Active; 'I' for Inactive)
REMARK    1  A    between atoms: C6_6  and  N1_8 
REMARK    2  A    between atoms: C10_12  and  C21_27 
REMARK    3  A    between atoms: C13_17  and  C15_19 
REMARK       I    between atoms: C15_19  and  N4_21 
REMARK    4  A    between atoms: N4_21  and  C16_22 
REMARK    5  A    between atoms: C21_27  and  O4_29 
ROOT
ATOM      1  N1  <0> d           1.195  -0.470  -0.826  0.00  0.00    -0.292 N 
ATOM      2  C8  <0> d           1.207  -1.713  -1.367  0.00  0.00     0.279 C 
ATOM      3  O1  <0> d           2.137  -2.111  -2.042  0.00  0.00    -0.265 OA
ATOM      4  C9  <0> d           0.031  -2.554  -1.091  0.00  0.00     0.140 A 
ATOM      5  C10 <0> d          -0.224  -3.882  -1.318  0.00  0.00     0.165 A 
ATOM      6  N2  <0> d          -1.464  -4.128  -0.846  0.00  0.00    -0.235 NA
ATOM      7  C11 <0> d          -1.974  -3.026  -0.353  0.00  0.00     0.211 A 
ATOM      8  N3  <0> d          -1.097  -2.030  -0.490  0.00  0.00    -0.332 N 
ATOM      9  C12 <0> d          -1.189  -0.613  -0.134  0.00  0.00     0.171 C 
ATOM     10  C13 <0> d           0.209  -0.078   0.174  0.00  0.00     0.134 C 
ATOM     11  C14 <0> d           0.650  -0.611   1.538  0.00  0.00     0.051 C 
ENDROOT
BRANCH  10  12
ATOM     12  C15 <0> d           0.151   1.427   0.236  0.00  0.00     0.248 C 
ATOM     13  O2  <0> d          -0.802   2.017  -0.226  0.00  0.00    -0.271 OA
ATOM     14  N4  <0> d           1.162   2.117   0.799  0.00  0.00    -0.354 N 
ATOM     15  H13 <0> d           2.067   1.591   1.137  0.00  0.00     0.162 HD
BRANCH  14  16
ATOM     16  C16 <0> d           1.056   3.569   0.963  0.00  0.00     0.084 C 
ATOM     17  C20 <0> d           1.955   4.037   2.120  0.00  0.00     0.025 C 
ATOM     18  C19 <0> d           2.980   5.018   1.514  0.00  0.00     0.002 C 
ATOM     19  C18 <0> d           2.290   5.542   0.230  0.00  0.00     0.002 C 
ATOM     20  C17 <0> d           1.565   4.283  -0.307  0.00  0.00     0.025 C 
ENDBRANCH  14  16
ENDBRANCH  10  12
BRANCH   1  21
ATOM     21  C6  <0> d           2.154   0.460  -1.239  0.00  0.00     0.045 A 
ATOM     22  C5  <0> d           1.913   1.263  -2.346  0.00  0.00    -0.035 A 
ATOM     23  C4  <0> d           2.861   2.184  -2.748  0.00  0.00     0.009 A 
ATOM     24  C23 <0> d           0.618   1.132  -3.106  0.00  0.00     0.050 C 
ATOM     25  C3  <0> d           4.051   2.301  -2.055  0.00  0.00     0.007 A 
ATOM     26  C2  <0> d           4.296   1.499  -0.955  0.00  0.00    -0.060 A 
ATOM     27  C1  <0> d           5.596   1.629  -0.203  0.00  0.00     0.048 C 
ATOM     28  C7  <0> d           3.352   0.579  -0.545  0.00  0.00     0.037 A 
ENDBRANCH   1  21
BRANCH   5  29
ATOM     29  C21 <0> d           0.684  -4.856  -1.956  0.00  0.00     0.314 C 
ATOM     30  O3  <0> d           1.782  -4.503  -2.340  0.00  0.00    -0.257 OA
BRANCH  29  31
ATOM     31  O4  <0> d           0.296  -6.137  -2.114  0.00  0.00    -0.321 OA
ATOM     32  C22 <0> d           1.240  -7.038  -2.749  0.00  0.00     0.213 C 
ENDBRANCH  29  31
ENDBRANCH   5  29
TORSDOF 5
