REMARK  4 active torsions:
REMARK  status: ('A' for Active; 'I' for Inactive)
REMARK    1  A    between atoms: N1_9  and  C17_24 
REMARK    2  A    between atoms: C8_10  and  C9_12 
REMARK    3  A    between atoms: C11_17  and  C12_18 
REMARK    4  A    between atoms: C17_24  and  C18_25 
ROOT
ATOM      1  C1  <0> d          -0.043   4.135   0.128  0.00  0.00     0.001 A 
ATOM      2  C2  <0> d          -1.242   3.440   0.147  0.00  0.00     0.002 A 
ATOM      3  C3  <0> d          -1.254   2.059   0.113  0.00  0.00     0.030 A 
ATOM      4  C4  <0> d          -0.058   1.364   0.069  0.00  0.00     0.045 A 
ATOM      5  C5  <0> d           1.161   2.066   0.051  0.00  0.00     0.058 A 
ATOM      6  C6  <0> d           1.159   3.458   0.080  0.00  0.00     0.019 A 
ATOM      7  C7  <0> d           2.415   1.292   0.005  0.00  0.00     0.258 C 
ATOM      8  O1  <0> d           3.480   1.833   0.235  0.00  0.00    -0.267 OA
ATOM      9  N1  <0> d           2.369  -0.022  -0.295  0.00  0.00    -0.314 N 
ATOM     10  C8  <0> d           1.109  -0.674  -0.653  0.00  0.00     0.225 C 
ATOM     11  N2  <0> d          -0.014  -0.025   0.034  0.00  0.00    -0.364 N 
ATOM     12  H7  <0> d          -0.709  -0.554   0.455  0.00  0.00     0.162 HD
ENDROOT
BRANCH  10  13
ATOM     13  C9  <0> d           0.904  -0.578  -2.143  0.00  0.00     0.032 A 
ATOM     14  C11 <0> d          -0.322  -0.716  -2.822  0.00  0.00     0.100 A 
ATOM     15  N4  <0> d          -0.091  -0.564  -4.109  0.00  0.00    -0.174 NA
ATOM     16  N3  <0> d           1.280  -0.336  -4.282  0.00  0.00    -0.288 N 
ATOM     17  C10 <0> d           1.865  -0.350  -3.065  0.00  0.00     0.122 A 
ATOM     18  H2  <0> d           1.745  -0.189  -5.155  0.00  0.00     0.188 HD
BRANCH  14  19
ATOM     19  C12 <0> d          -1.641  -0.982  -2.197  0.00  0.00     0.013 A 
ATOM     20  C16 <0> d          -1.740  -1.800  -1.074  0.00  0.00     0.130 A 
ATOM     21  N5  <0> d          -2.910  -2.032  -0.514  0.00  0.00    -0.272 NA
ATOM     22  C15 <0> d          -4.025  -1.517  -0.994  0.00  0.00     0.116 A 
ATOM     23  C14 <0> d          -4.011  -0.700  -2.110  0.00  0.00     0.020 A 
ATOM     24  C13 <0> d          -2.805  -0.421  -2.729  0.00  0.00     0.017 A 
ENDBRANCH  14  19
ENDBRANCH  10  13
BRANCH   9  25
ATOM     25  C17 <0> d           3.603  -0.811  -0.261  0.00  0.00     0.246 C 
BRANCH  25  26
ATOM     26  C18 <0> d           3.735  -1.493   1.102  0.00  0.00     0.403 C 
ATOM     27  F1  <0> d           2.699  -2.420   1.262  0.00  0.00    -0.169 F 
ATOM     28  F2  <0> d           4.966  -2.153   1.176  0.00  0.00    -0.169 F 
ATOM     29  F3  <0> d           3.660  -0.530   2.114  0.00  0.00    -0.169 F 
ENDBRANCH  25  26
ENDBRANCH   9  25
TORSDOF 4
