REMARK  6 active torsions:
REMARK  status: ('A' for Active; 'I' for Inactive)
REMARK    1  A    between atoms: C4_5  and  C5_6 
REMARK    2  A    between atoms: C5_6  and  C6_7 
REMARK    3  A    between atoms: C5_6  and  S2_9 
REMARK    4  A    between atoms: C6_7  and  N1_8 
REMARK    5  A    between atoms: S2_9  and  C7_10 
REMARK    6  A    between atoms: C10_15  and  N4_17 
ROOT
ATOM      1  C5  <0> d          -1.129  -0.638  -0.096  0.00  0.00     0.120 C 
ENDROOT
BRANCH   1   2
ATOM      2  C4  <0> d          -0.060   0.387   0.182  0.00  0.00    -0.000 A 
ATOM      3  C1  <0> d          -0.163   1.738   0.224  0.00  0.00     0.017 A 
ATOM      4  C2  <0> d           0.964   2.488   0.503  0.00  0.00     0.028 A 
ATOM      5  C3  <0> d           2.140   1.849   0.725  0.00  0.00     0.051 A 
ATOM      6  S1  <0> d           1.670   0.137   0.543  0.00  0.00    -0.086 SA
ATOM      7 Br1  <0> d           3.837   2.583   1.125  0.00  0.00    -0.043 Br
ENDBRANCH   1   2
BRANCH   1   8
ATOM      8  C6  <0> d          -0.744  -1.454  -1.331  0.00  0.00     0.250 C 
BRANCH   8   9
ATOM      9  N1  <0> d          -1.840  -2.371  -1.673  0.00  0.00    -0.078 N 
ATOM     10  H6  <0> d          -1.948  -3.055  -0.940  0.00  0.00     0.274 HD
ATOM     11  H7  <0> d          -2.697  -1.847  -1.774  0.00  0.00     0.274 HD
ATOM     12  H11 <0> d          -1.628  -2.839  -2.542  0.00  0.00     0.274 HD
ENDBRANCH   8   9
ENDBRANCH   1   8
BRANCH   1  13
ATOM     13  S2  <0> d          -1.293  -1.743   1.333  0.00  0.00    -0.078 SA
BRANCH  13  14
ATOM     14  C7  <0> d          -1.940  -0.706   2.603  0.00  0.00     0.193 A 
ATOM     15  N3  <0> d          -2.081  -1.195   3.826  0.00  0.00    -0.205 NA
ATOM     16  C10 <0> d          -2.561  -0.439   4.809  0.00  0.00     0.128 A 
ATOM     17  C9  <0> d          -2.927   0.877   4.536  0.00  0.00     0.111 A 
ATOM     18  C8  <0> d          -2.769   1.352   3.239  0.00  0.00     0.206 A 
ATOM     19  N2  <0> d          -2.277   0.541   2.308  0.00  0.00    -0.196 NA
ATOM     20  O1  <0> d          -3.112   2.626   2.928  0.00  0.00    -0.170 OA
BRANCH  16  21
ATOM     21  N4  <0> d          -2.701  -0.955   6.088  0.00  0.00    -0.384 N 
ATOM     22  H9  <0> d          -3.055  -0.398   6.800  0.00  0.00     0.157 HD
ATOM     23  H10 <0> d          -2.445  -1.872   6.272  0.00  0.00     0.157 HD
ENDBRANCH  16  21
ENDBRANCH  13  14
ENDBRANCH   1  13
TORSDOF 6
