REMARK  6 active torsions:
REMARK  status: ('A' for Active; 'I' for Inactive)
REMARK    1  A    between atoms: C2_2  and  C3_3 
REMARK    2  A    between atoms: C3_3  and  C5_5 
REMARK    3  A    between atoms: C5_5  and  C6_6 
REMARK    4  A    between atoms: C5_5  and  N2_12 
REMARK       I    between atoms: C6_6  and  N1_8 
REMARK    5  A    between atoms: N1_8  and  C7_9 
REMARK       I    between atoms: N2_12  and  C10_13 
REMARK    6  A    between atoms: C10_13  and  C11_15 
ROOT
ATOM      1  C11 <0> d          -2.509  -3.681   3.497  0.00  0.00     0.184 C 
ATOM      2  C12 <0> d          -2.389  -5.173   3.129  0.00  0.00     0.072 C 
ATOM      3  C13 <0> d          -3.746  -5.622   2.646  0.00  0.00    -0.040 A 
ATOM      4  C14 <0> d          -4.109  -6.241   1.527  0.00  0.00    -0.005 A 
ATOM      5  C15 <0> d          -3.319  -6.790   0.412  0.00  0.00     0.014 A 
ATOM      6  C16 <0> d          -4.026  -7.351  -0.604  0.00  0.00     0.001 A 
ATOM      7  C17 <0> d          -5.423  -7.422  -0.622  0.00  0.00     0.002 A 
ATOM      8  C18 <0> d          -6.227  -6.951   0.363  0.00  0.00     0.030 A 
ATOM      9  C19 <0> d          -5.599  -6.344   1.489  0.00  0.00     0.039 A 
ATOM     10  N3  <0> d          -6.117  -5.835   2.567  0.00  0.00    -0.378 N 
ATOM     11  C20 <0> d          -5.027  -5.396   3.442  0.00  0.00     0.139 A 
ATOM     12  C21 <0> d          -5.101  -3.892   3.726  0.00  0.00     0.149 A 
ATOM     13  N4  <0> d          -3.767  -3.476   4.225  0.00  0.00    -0.323 N 
ATOM     14  C22 <0> d          -3.912  -2.909   5.436  0.00  0.00     0.255 A 
ATOM     15  O3  <0> d          -3.014  -2.398   6.077  0.00  0.00    -0.267 OA
ATOM     16  C23 <0> d          -5.307  -2.995   5.871  0.00  0.00     0.040 A 
ATOM     17  C24 <0> d          -6.071  -3.604   4.825  0.00  0.00    -0.017 A 
ATOM     18  C25 <0> d          -7.425  -3.826   4.935  0.00  0.00     0.010 A 
ATOM     19  C26 <0> d          -8.037  -3.425   6.119  0.00  0.00     0.001 A 
ATOM     20  C27 <0> d          -7.325  -2.830   7.141  0.00  0.00     0.001 A 
ATOM     21  C28 <0> d          -5.920  -2.591   7.060  0.00  0.00     0.017 A 
ATOM     22  H33 <0> d          -7.064  -5.757   2.760  0.00  0.00     0.160 HD
ENDROOT
BRANCH   1  23
ATOM     23  C10 <0> d          -2.509  -2.849   2.241  0.00  0.00     0.241 C 
ATOM     24  N2  <0> d          -1.450  -2.886   1.407  0.00  0.00    -0.346 N 
ATOM     25  H22 <0> d          -0.688  -3.448   1.616  0.00  0.00     0.163 HD
ATOM     26  O2  <0> d          -3.462  -2.145   1.980  0.00  0.00    -0.271 OA
BRANCH  24  27
ATOM     27  C5  <0> d          -1.451  -2.076   0.186  0.00  0.00     0.180 C 
BRANCH  27  28
ATOM     28  C3  <0> d          -0.960  -0.664   0.510  0.00  0.00     0.013 C 
ATOM     29  C4  <0> d           0.400  -0.744   1.206  0.00  0.00     0.012 C 
BRANCH  28  30
ATOM     30  C2  <0> d          -1.966   0.026   1.435  0.00  0.00     0.002 C 
ATOM     31  C1  <0> d          -1.540   1.478   1.659  0.00  0.00     0.005 C 
ENDBRANCH  28  30
ENDBRANCH  27  28
BRANCH  27  32
ATOM     32  C6  <0> d          -0.536  -2.704  -0.833  0.00  0.00     0.241 C 
ATOM     33  O1  <0> d           0.359  -3.440  -0.473  0.00  0.00    -0.271 OA
ATOM     34  N1  <0> d          -0.712  -2.449  -2.145  0.00  0.00    -0.355 N 
ATOM     35  H14 <0> d          -1.467  -1.916  -2.438  0.00  0.00     0.162 HD
BRANCH  34  36
ATOM     36  C7  <0> d           0.238  -2.977  -3.128  0.00  0.00     0.076 C 
ATOM     37  C8  <0> d          -0.454  -3.108  -4.486  0.00  0.00     0.032 C 
ATOM     38  C9  <0> d           1.427  -2.022  -3.251  0.00  0.00     0.032 C 
ENDBRANCH  34  36
ENDBRANCH  27  32
ENDBRANCH  24  27
ENDBRANCH   1  23
TORSDOF 6
