REMARK  5 active torsions:
REMARK  status: ('A' for Active; 'I' for Inactive)
REMARK    1  A    between atoms: C4_4  and  C7_7 
REMARK    2  A    between atoms: C12_16  and  C13_18 
REMARK    3  A    between atoms: C13_18  and  N3_19 
REMARK    4  A    between atoms: N4_22  and  C18_25 
REMARK    5  A    between atoms: C18_25  and  C19_26 
ROOT
ATOM      1  C7  <0> d           1.093   9.060  -7.397  0.00  0.00    -0.001 A 
ATOM      2  C8  <0> d           2.190   9.068  -6.601  0.00  0.00     0.065 A 
ATOM      3  S1  <0> d           1.624   8.270  -5.111  0.00  0.00    -0.080 SA
ATOM      4  C9  <0> d          -0.055   7.948  -5.586  0.00  0.00     0.116 A 
ATOM      5  C10 <0> d          -0.138   8.467  -6.889  0.00  0.00     0.079 A 
ATOM      6  C11 <0> d          -1.412   8.338  -7.527  0.00  0.00     0.260 A 
ATOM      7  O1  <0> d          -1.582   8.758  -8.659  0.00  0.00    -0.267 OA
ATOM      8  N1  <0> d          -2.418   7.742  -6.862  0.00  0.00    -0.309 N 
ATOM      9  H1  <0> d          -3.402   7.627  -7.340  0.00  0.00     0.170 HD
ATOM     10  C12 <0> d          -2.248   7.273  -5.599  0.00  0.00     0.136 A 
ATOM     11  N2  <0> d          -1.097   7.376  -4.990  0.00  0.00    -0.225 NA
ENDROOT
BRANCH  10  12
ATOM     12  C13 <0> d          -3.405   6.618  -4.890  0.00  0.00     0.350 C 
BRANCH  12  13
ATOM     13  N3  <0> d          -3.024   6.317  -3.504  0.00  0.00     0.098 N 
ATOM     14  C17 <0> d          -4.027   5.462  -2.854  0.00  0.00     0.300 C 
ATOM     15  C16 <0> d          -3.555   5.107  -1.442  0.00  0.00     0.265 C 
ATOM     16  N4  <0> d          -3.344   6.343  -0.675  0.00  0.00    -0.064 N 
ATOM     17  C15 <0> d          -2.340   7.197  -1.324  0.00  0.00     0.265 C 
ATOM     18  H23 <0> d          -4.295   6.894  -0.650  0.00  0.00     0.280 HD
ATOM     19  C14 <0> d          -2.812   7.552  -2.736  0.00  0.00     0.300 C 
BRANCH  16  20
ATOM     20  C18 <0> d          -2.962   6.042   0.712  0.00  0.00     0.274 C 
BRANCH  20  21
ATOM     21  C19 <0> d          -4.116   5.378   1.417  0.00  0.00    -0.026 A 
ATOM     22  C22 <0> d          -4.247   4.029   1.403  0.00  0.00     0.058 A 
ATOM     23  S2  <0> d          -5.736   3.792   2.360  0.00  0.00    -0.113 SA
ATOM     24  C21 <0> d          -6.083   5.507   2.713  0.00  0.00     0.050 A 
ATOM     25  C20 <0> d          -5.060   6.136   2.084  0.00  0.00     0.016 A 
ENDBRANCH  20  21
ENDBRANCH  16  20
ENDBRANCH  12  13
ENDBRANCH  10  12
BRANCH   1  26
ATOM     26  C4  <0> d           1.144   9.645  -8.758  0.00  0.00    -0.024 A 
ATOM     27  C3  <0> d           1.658  10.927  -8.950  0.00  0.00     0.012 A 
ATOM     28  C2  <0> d           1.703  11.466 -10.220  0.00  0.00     0.001 A 
ATOM     29  C1  <0> d           1.240  10.737 -11.300  0.00  0.00     0.000 A 
ATOM     30  C6  <0> d           0.729   9.465 -11.116  0.00  0.00     0.001 A 
ATOM     31  C5  <0> d           0.684   8.913  -9.851  0.00  0.00     0.012 A 
ENDBRANCH   1  26
TORSDOF 5
