REMARK  2 active torsions:
REMARK  status: ('A' for Active; 'I' for Inactive)
REMARK       I    between atoms: C2_2  and  N1_4 
REMARK    1  A    between atoms: C11_14  and  C12_15 
REMARK    2  A    between atoms: C18_23  and  C20_25 
ROOT
ATOM      1  C1  <0> d           0.830  -1.846  -6.288  0.00  0.00     0.117 C 
ATOM      2  C2  <0> d           1.602  -1.303  -5.113  0.00  0.00     0.221 C 
ATOM      3  O1  <0> d           2.348  -2.028  -4.490  0.00  0.00    -0.273 OA
ATOM      4  N1  <0> d           1.464  -0.011  -4.755  0.00  0.00    -0.300 N 
ATOM      5  C3  <0> d           0.604   0.814  -5.479  0.00  0.00     0.065 A 
ATOM      6  C4  <0> d           0.876   1.161  -6.794  0.00  0.00     0.032 A 
ATOM      7  C5  <0> d           0.037   2.043  -7.452  0.00  0.00     0.002 A 
ATOM      8  C6  <0> d          -1.065   2.575  -6.809  0.00  0.00     0.002 A 
ATOM      9  C7  <0> d          -1.353   2.214  -5.504  0.00  0.00     0.032 A 
ATOM     10  C8  <0> d          -0.524   1.318  -4.851  0.00  0.00     0.059 A 
ATOM     11  N2  <0> d          -0.779   0.874  -3.558  0.00  0.00    -0.357 N 
ATOM     12  C9  <0> d           0.022   1.111  -2.487  0.00  0.00     0.022 C 
ATOM     13  C10 <0> d           1.353   0.946  -2.464  0.00  0.00     0.040 C 
ATOM     14  C11 <0> d           2.212   0.499  -3.624  0.00  0.00     0.189 C 
ATOM     15  C16 <0> d           2.084   1.197  -1.278  0.00  0.00     0.160 C 
ATOM     16  O3  <0> d           3.292   1.060  -1.295  0.00  0.00    -0.293 OA
ATOM     17  C17 <0> d           1.423   1.625  -0.003  0.00  0.00     0.093 C 
ATOM     18  C18 <0> d          -0.013   1.086   0.008  0.00  0.00     0.031 C 
ATOM     19  C19 <0> d          -0.712   1.601  -1.248  0.00  0.00     0.067 C 
ATOM     20  H10 <0> d          -1.588   0.359  -3.410  0.00  0.00     0.166 HD
ENDROOT
BRANCH  18  21
ATOM     21  C20 <0> d          -0.735   1.580   1.235  0.00  0.00    -0.053 A 
ATOM     22  C25 <0> d          -1.255   0.675   2.142  0.00  0.00     0.007 A 
ATOM     23  C24 <0> d          -1.917   1.129   3.268  0.00  0.00     0.001 A 
ATOM     24  C23 <0> d          -2.059   2.486   3.486  0.00  0.00     0.000 A 
ATOM     25  C22 <0> d          -1.538   3.391   2.580  0.00  0.00     0.001 A 
ATOM     26  C21 <0> d          -0.872   2.937   1.457  0.00  0.00     0.007 A 
ENDBRANCH  18  21
BRANCH  14  27
ATOM     27  C12 <0> d           3.040   1.670  -4.087  0.00  0.00     0.080 A 
ATOM     28  O2  <0> d           2.615   2.669  -4.877  0.00  0.00    -0.325 OA
ATOM     29  C15 <0> d           3.619   3.537  -5.081  0.00  0.00     0.142 A 
ATOM     30  C14 <0> d           4.704   3.095  -4.419  0.00  0.00     0.027 A 
ATOM     31  C13 <0> d           4.328   1.895  -3.773  0.00  0.00     0.037 A 
ENDBRANCH  14  27
TORSDOF 2
