REMARK  5 active torsions:
REMARK  status: ('A' for Active; 'I' for Inactive)
REMARK    1  A    between atoms: C2_2  and  O2_4 
REMARK    2  A    between atoms: O2_4  and  C3_5 
REMARK    3  A    between atoms: C11_13  and  C20_24 
REMARK    4  A    between atoms: C14_16  and  O4_23 
REMARK    5  A    between atoms: C18_20  and  O3_22 
ROOT
ATOM      1  C3  <0> d           1.392   2.024  -2.499  0.00  0.00     0.135 C 
ATOM      2  C4  <0> d          -0.042   1.491  -2.489  0.00  0.00     0.034 C 
ATOM      3  C5  <0> d          -0.758   1.975  -1.229  0.00  0.00     0.030 C 
ATOM      4  C6  <0> d          -0.018   1.468   0.010  0.00  0.00     0.084 C 
ATOM      5  C7  <0> d          -0.732   1.962   1.269  0.00  0.00     0.018 C 
ATOM      6  C8  <0> d          -2.187   1.506   1.258  0.00  0.00     0.008 C 
ATOM      7  C9  <0> d          -2.911   1.913   2.552  0.00  0.00     0.013 C 
ATOM      8  C10 <0> d          -2.142   1.307   3.710  0.00  0.00    -0.006 C 
ATOM      9  C11 <0> d          -2.678   1.594   5.108  0.00  0.00     0.030 C 
ATOM     10  C12 <0> d          -1.427   1.669   6.019  0.00  0.00     0.011 C 
ATOM     11  C13 <0> d          -0.196   1.507   5.087  0.00  0.00     0.039 C 
ATOM     12  C14 <0> d          -0.734   1.963   3.726  0.00  0.00     0.070 C 
ATOM     13  C15 <0> d           0.011   1.445   2.510  0.00  0.00     0.027 C 
ATOM     14  C16 <0> d           1.444   1.979   2.498  0.00  0.00     0.011 C 
ATOM     15  C17 <0> d           2.159   1.490   1.237  0.00  0.00     0.040 C 
ATOM     16  C18 <0> d           1.417   1.998  -0.001  0.00  0.00     0.081 C 
ATOM     17  C19 <0> d           2.133   1.511  -1.262  0.00  0.00     0.072 C 
ATOM     18  C24 <0> d          -2.007  -0.203   3.507  0.00  0.00     0.019 C 
ATOM     19  C25 <0> d           0.002  -0.004   0.002  0.00  0.00     0.072 C 
ATOM     20  N1  <0> d           0.018  -1.140  -0.004  0.00  0.00    -0.196 NA
ENDROOT
BRANCH  16  21
ATOM     21  O3  <0> d           1.397   3.427   0.013  0.00  0.00    -0.388 OA
ATOM     22  H27 <0> d           2.274   3.833   0.007  0.00  0.00     0.210 HD
ENDBRANCH  16  21
BRANCH   1  23
ATOM     23  O2  <0> d           1.370   3.475  -2.483  0.00  0.00    -0.316 OA
BRANCH  23  24
ATOM     24  C2  <0> d           1.349   4.098  -3.672  0.00  0.00     0.255 C 
ATOM     25  C1  <0> d           1.325   5.603  -3.735  0.00  0.00     0.126 C 
ATOM     26  O1  <0> d           1.349   3.450  -4.692  0.00  0.00    -0.266 OA
ENDBRANCH  23  24
ENDBRANCH   1  23
BRANCH  12  27
ATOM     27  O4  <0> d          -0.829   3.388   3.681  0.00  0.00    -0.389 OA
ATOM     28  H28 <0> d           0.027   3.838   3.656  0.00  0.00     0.210 HD
ENDBRANCH  12  27
BRANCH   9  29
ATOM     29  C20 <0> d          -3.427   2.929   5.125  0.00  0.00     0.160 A 
ATOM     30  O6  <0> d          -4.626   2.841   4.306  0.00  0.00    -0.308 OA
ATOM     31  C23 <0> d          -5.683   3.070   5.106  0.00  0.00     0.283 A 
ATOM     32  C22 <0> d          -5.228   3.317   6.477  0.00  0.00     0.081 A 
ATOM     33  O5  <0> d          -6.844   3.072   4.745  0.00  0.00    -0.260 OA
ATOM     34  C21 <0> d          -3.901   3.241   6.526  0.00  0.00     0.012 A 
ENDBRANCH   9  29
TORSDOF 5
