REMARK  7 active torsions:
REMARK  status: ('A' for Active; 'I' for Inactive)
REMARK    1  A    between atoms: C3_3  and  N1_9 
REMARK    2  A    between atoms: N1_9  and  C8_10 
REMARK    3  A    between atoms: N2_12  and  C9_13 
REMARK    4  A    between atoms: C9_13  and  C10_14 
REMARK    5  A    between atoms: C15_19  and  C16_20 
REMARK    6  A    between atoms: C16_20  and  N3_21 
REMARK    7  A    between atoms: N3_21  and  C18_23 
ROOT
ATOM      1  C8  <0> d           0.278  -1.303  -3.630  0.00  0.00     0.172 C 
ATOM      2  S1  <0> d           0.605  -2.975  -3.792  0.00  0.00    -0.041 SA
ATOM      3  N2  <0> d           0.239  -0.515  -4.723  0.00  0.00    -0.363 N 
ATOM      4  H8  <0> d           0.053   0.432  -4.632  0.00  0.00     0.162 HD
ENDROOT
BRANCH   3   5
ATOM      5  C9  <0> d           0.477  -1.091  -6.050  0.00  0.00     0.161 C 
BRANCH   5   6
ATOM      6  C10 <0> d           0.481   0.008  -7.081  0.00  0.00    -0.033 A 
ATOM      7  C15 <0> d           1.597   0.810  -7.232  0.00  0.00    -0.025 A 
ATOM      8  C14 <0> d           1.602   1.815  -8.181  0.00  0.00     0.009 A 
ATOM      9  C13 <0> d           0.488   2.025  -8.972  0.00  0.00     0.001 A 
ATOM     10  C12 <0> d          -0.630   1.226  -8.817  0.00  0.00     0.001 A 
ATOM     11  C11 <0> d          -0.634   0.218  -7.872  0.00  0.00     0.009 A 
BRANCH   7  12
ATOM     12  C16 <0> d           2.809   0.585  -6.366  0.00  0.00     0.274 C 
BRANCH  12  13
ATOM     13  N3  <0> d           2.574   1.161  -5.035  0.00  0.00    -0.068 N 
ATOM     14  C17 <0> d           2.426   2.618  -5.151  0.00  0.00     0.270 C 
ATOM     15  H27 <0> d           1.732   0.767  -4.642  0.00  0.00     0.280 HD
BRANCH  13  16
ATOM     16  C18 <0> d           3.713   0.852  -4.160  0.00  0.00     0.180 C 
ATOM     17  C19 <0> d           3.468   1.452  -2.774  0.00  0.00     0.039 C 
ATOM     18  C20 <0> d           3.867  -0.665  -4.039  0.00  0.00     0.039 C 
ENDBRANCH  13  16
ENDBRANCH  12  13
ENDBRANCH   7  12
ENDBRANCH   5   6
ENDBRANCH   3   5
BRANCH   1  19
ATOM     19  N1  <0> d           0.059  -0.773  -2.410  0.00  0.00    -0.333 N 
ATOM     20  H7  <0> d          -0.179   0.163  -2.324  0.00  0.00     0.168 HD
BRANCH  19  21
ATOM     21  C3  <0> d           0.174  -1.574  -1.269  0.00  0.00     0.041 A 
ATOM     22  C2  <0> d          -0.729  -1.431  -0.224  0.00  0.00    -0.013 A 
ATOM     23  C1  <0> d          -1.835  -0.411  -0.317  0.00  0.00     0.052 C 
ATOM     24  C7  <0> d          -0.609  -2.220   0.904  0.00  0.00     0.042 A 
ATOM     25  C6  <0> d           0.404  -3.161   0.987  0.00  0.00     0.024 A 
ATOM     26 Cl1  <0> d          -1.733  -2.038   2.214  0.00  0.00    -0.084 Cl
ATOM     27  C5  <0> d           1.304  -3.305  -0.052  0.00  0.00     0.004 A 
ATOM     28  C4  <0> d           1.192  -2.515  -1.180  0.00  0.00     0.030 A 
ENDBRANCH  19  21
ENDBRANCH   1  19
TORSDOF 7
