REMARK  6 active torsions:
REMARK  status: ('A' for Active; 'I' for Inactive)
REMARK       I    between atoms: N1_2  and  C2_3 
REMARK    1  A    between atoms: C2_3  and  C3_5 
REMARK    2  A    between atoms: C5_7  and  N2_12 
REMARK       I    between atoms: N2_12  and  C9_13 
REMARK       I    between atoms: C9_13  and  N3_15 
REMARK    3  A    between atoms: N3_15  and  C10_16 
REMARK    4  A    between atoms: C10_16  and  C11_17 
REMARK    5  A    between atoms: C11_17  and  C12_18 
REMARK    6  A    between atoms: C11_17  and  N4_23 
ROOT
ATOM      1  N2  <0> d          -0.355  -5.021   1.136  0.00  0.00    -0.309 N 
ATOM      2  C9  <0> d          -0.514  -6.355   1.030  0.00  0.00     0.320 C 
ATOM      3  O2  <0> d          -0.055  -6.948   0.074  0.00  0.00    -0.247 OA
ATOM      4  N3  <0> d          -1.183  -7.031   1.985  0.00  0.00    -0.340 N 
ATOM      5  H9  <0> d          -0.660  -4.557   1.931  0.00  0.00     0.170 HD
ATOM      6  H10 <0> d          -1.550  -6.557   2.748  0.00  0.00     0.164 HD
ENDROOT
BRANCH   1   7
ATOM      7  C5  <0> d           0.251  -4.303   0.096  0.00  0.00     0.037 A 
ATOM      8  C4  <0> d          -0.181  -3.022  -0.204  0.00  0.00     0.050 A 
ATOM      9  C3  <0> d           0.425  -2.310  -1.241  0.00  0.00     0.072 A 
ATOM     10  C8  <0> d           1.460  -2.899  -1.973  0.00  0.00     0.132 A 
ATOM     11  C7  <0> d           1.886  -4.177  -1.661  0.00  0.00     0.045 A 
ATOM     12  F1  <0> d           2.047  -2.218  -2.981  0.00  0.00    -0.205 F 
ATOM     13  C6  <0> d           1.285  -4.879  -0.634  0.00  0.00     0.032 A 
BRANCH   9  14
ATOM     14  C2  <0> d          -0.030  -0.944  -1.567  0.00  0.00     0.254 C 
ATOM     15  N1  <0> d          -1.028  -0.379  -0.859  0.00  0.00    -0.361 N 
ATOM     16  C1  <0> d          -1.479   0.977  -1.182  0.00  0.00     0.149 C 
ATOM     17  H5  <0> d          -1.448  -0.870  -0.135  0.00  0.00     0.162 HD
ATOM     18  O1  <0> d           0.496  -0.328  -2.474  0.00  0.00    -0.268 OA
ENDBRANCH   9  14
ENDBRANCH   1   7
BRANCH   4  19
ATOM     19  C10 <0> d          -1.357  -8.481   1.871  0.00  0.00     0.164 C 
BRANCH  19  20
ATOM     20  C11 <0> d          -2.253  -8.979   3.007  0.00  0.00     0.261 C 
BRANCH  20  21
ATOM     21  C12 <0> d          -1.554  -8.770   4.326  0.00  0.00     0.085 A 
ATOM     22  O3  <0> d          -1.482  -7.612   5.002  0.00  0.00    -0.325 OA
ATOM     23  C15 <0> d          -0.786  -7.799   6.136  0.00  0.00     0.142 A 
ATOM     24  C14 <0> d          -0.398  -9.085   6.190  0.00  0.00     0.027 A 
ATOM     25  C13 <0> d          -0.892  -9.712   5.023  0.00  0.00     0.037 A 
ENDBRANCH  20  21
BRANCH  20  26
ATOM     26  N4  <0> d          -3.516  -8.229   2.998  0.00  0.00    -0.067 N 
ATOM     27  C16 <0> d          -4.247  -8.514   1.756  0.00  0.00     0.270 C 
ATOM     28  C17 <0> d          -4.333  -8.633   4.151  0.00  0.00     0.270 C 
ATOM     29  H22 <0> d          -3.321  -7.240   3.054  0.00  0.00     0.280 HD
ENDBRANCH  20  26
ENDBRANCH  19  20
ENDBRANCH   4  19
TORSDOF 6
