REMARK  3 active torsions:
REMARK  status: ('A' for Active; 'I' for Inactive)
REMARK    1  A    between atoms: C3_3  and  C6_9 
REMARK       I    between atoms: C6_9  and  N3_11 
REMARK    2  A    between atoms: N3_11  and  C7_12 
REMARK    3  A    between atoms: C8_15  and  C9_17 
ROOT
ATOM      1  C6  <0> d          -0.005  -0.376  -2.548  0.00  0.00     0.263 C 
ATOM      2  O1  <0> d           1.043  -0.174  -3.132  0.00  0.00    -0.267 OA
ATOM      3  N3  <0> d          -1.178  -0.185  -3.183  0.00  0.00    -0.300 N 
ATOM      4  H7  <0> d          -2.014  -0.346  -2.718  0.00  0.00     0.171 HD
ENDROOT
BRANCH   3   5
ATOM      5  C7  <0> d          -1.191   0.242  -4.506  0.00  0.00     0.196 A 
ATOM      6  S1  <0> d          -2.571   0.577  -5.596  0.00  0.00    -0.032 SA
ATOM      7  C8  <0> d          -1.584   1.049  -7.013  0.00  0.00     0.108 A 
ATOM      8  N5  <0> d          -0.375   0.895  -6.511  0.00  0.00    -0.144 NA
ATOM      9  N4  <0> d          -0.183   0.513  -5.325  0.00  0.00    -0.123 NA
BRANCH   7  10
ATOM     10  C9  <0> d          -2.013   1.491  -8.388  0.00  0.00     0.002 C 
ATOM     11  C10 <0> d          -1.460   0.518  -9.432  0.00  0.00     0.021 C 
ATOM     12  C11 <0> d          -3.541   1.506  -8.465  0.00  0.00     0.021 C 
ATOM     13  C12 <0> d          -1.474   2.896  -8.664  0.00  0.00     0.021 C 
ENDBRANCH   7  10
ENDBRANCH   3   5
BRANCH   1  14
ATOM     14  C3  <0> d           0.008  -0.828  -1.146  0.00  0.00     0.098 A 
ATOM     15  C2  <0> d           0.002  -0.004   0.002  0.00  0.00     0.070 A 
ATOM     16  C1  <0> d          -0.018   1.503   0.010  0.00  0.00     0.073 C 
ATOM     17  N2  <0> d           0.023  -0.776   1.053  0.00  0.00    -0.176 NA
ATOM     18  N1  <0> d           0.035  -2.111   0.636  0.00  0.00    -0.262 N 
ATOM     19  C4  <0> d           0.029  -2.139  -0.707  0.00  0.00     0.139 A 
ATOM     20  C5  <0> d           0.055  -3.282   1.517  0.00  0.00     0.181 C 
ATOM     21 Cl1  <0> d           0.044  -3.559  -1.706  0.00  0.00    -0.062 Cl
ENDBRANCH   1  14
TORSDOF 3
