REMARK  0 active torsions:
REMARK  status: ('A' for Active; 'I' for Inactive)
ROOT
ATOM      1  C1  <0> d          -0.017   1.379   0.010  0.00  0.00     0.001 A 
ATOM      2  C2  <0> d           1.169   2.092   0.002  0.00  0.00     0.002 A 
ATOM      3  C3  <0> d           2.379   1.425  -0.021  0.00  0.00     0.030 A 
ATOM      4  C4  <0> d           2.400   0.039  -0.040  0.00  0.00     0.046 A 
ATOM      5  C5  <0> d           1.207  -0.674  -0.015  0.00  0.00     0.004 A 
ATOM      6  C6  <0> d           0.002  -0.004   0.002  0.00  0.00     0.012 A 
ATOM      7  C7  <0> d           1.254  -2.181   0.011  0.00  0.00     0.102 C 
ATOM      8  C8  <0> d           0.042  -2.743  -0.732  0.00  0.00     0.051 C 
ATOM      9  C9  <0> d           0.141  -4.271  -0.786  0.00  0.00     0.081 C 
ATOM     10  C10 <0> d           0.304  -4.792   0.625  0.00  0.00     0.127 C 
ATOM     11  O1  <0> d          -0.413  -5.667   1.049  0.00  0.00    -0.298 OA
ATOM     12  C11 <0> d           1.389  -4.191   1.490  0.00  0.00     0.081 C 
ATOM     13  C12 <0> d           1.244  -2.665   1.462  0.00  0.00     0.051 C 
ATOM     14  O2  <0> d           2.455  -2.622  -0.629  0.00  0.00    -0.287 OA
ATOM     15  C13 <0> d           3.599  -1.993  -0.303  0.00  0.00     0.366 C 
ATOM     16  O3  <0> d           4.631  -2.628  -0.215  0.00  0.00    -0.238 OA
ATOM     17  N1  <0> d           3.610  -0.664  -0.074  0.00  0.00    -0.302 N 
ATOM     18  H13 <0> d           4.450  -0.199   0.067  0.00  0.00     0.171 HD
ENDROOT
TORSDOF 0
