REMARK  6 active torsions:
REMARK  status: ('A' for Active; 'I' for Inactive)
REMARK    1  A    between atoms: C2_2  and  C3_3 
REMARK    2  A    between atoms: C3_3  and  O1_4 
REMARK    3  A    between atoms: O1_4  and  C4_5 
REMARK    4  A    between atoms: C4_5  and  C5_6 
REMARK    5  A    between atoms: C9_12  and  N2_14 
REMARK    6  A    between atoms: N2_14  and  C10_15 
ROOT
ATOM      1  C5  <0> d          -3.526  -3.730  -0.668  0.00  0.00     0.158 C 
ATOM      2  C6  <0> d          -4.781  -4.631  -0.473  0.00  0.00     0.076 C 
ATOM      3  C7  <0> d          -4.145  -5.824   0.245  0.00  0.00     0.188 A 
ATOM      4  C8  <0> d          -5.043  -6.433   1.287  0.00  0.00     0.275 A 
ATOM      5  O2  <0> d          -5.454  -5.833   2.261  0.00  0.00    -0.269 OA
ATOM      6  N1  <0> d          -5.333  -7.689   1.022  0.00  0.00    -0.186 NA
ATOM      7  C9  <0> d          -4.887  -8.344  -0.038  0.00  0.00     0.193 A 
ATOM      8  S1  <0> d          -3.933  -7.243  -0.887  0.00  0.00    -0.059 SA
ATOM      9  C17 <0> d          -2.835  -5.337   0.781  0.00  0.00     0.288 C 
ATOM     10  O3  <0> d          -2.010  -6.007   1.356  0.00  0.00    -0.263 OA
ATOM     11  O4  <0> d          -2.733  -4.013   0.506  0.00  0.00    -0.312 OA
ENDROOT
BRANCH   1  12
ATOM     12  C4  <0> d          -3.922  -2.253  -0.711  0.00  0.00     0.200 C 
BRANCH  12  13
ATOM     13  O1  <0> d          -2.760  -1.455  -0.950  0.00  0.00    -0.389 OA
BRANCH  13  14
ATOM     14  C3  <0> d          -3.021  -0.051  -1.008  0.00  0.00     0.167 C 
BRANCH  14  15
ATOM     15  C2  <0> d          -1.714   0.700  -1.267  0.00  0.00     0.022 C 
ATOM     16  C1  <0> d          -1.993   2.203  -1.329  0.00  0.00     0.007 C 
ENDBRANCH  14  15
ENDBRANCH  13  14
ENDBRANCH  12  13
ENDBRANCH   1  12
BRANCH   7  17
ATOM     17  N2  <0> d          -5.145  -9.642  -0.374  0.00  0.00    -0.223 NA
BRANCH  17  18
ATOM     18  C10 <0> d          -6.124 -10.362   0.319  0.00  0.00     0.059 A 
ATOM     19  C15 <0> d          -7.159  -9.692   0.958  0.00  0.00     0.032 A 
ATOM     20  C14 <0> d          -8.127 -10.407   1.637  0.00  0.00     0.009 A 
ATOM     21  C13 <0> d          -8.059 -11.787   1.690  0.00  0.00    -0.062 A 
ATOM     22  C12 <0> d          -7.027 -12.457   1.059  0.00  0.00     0.009 A 
ATOM     23  C16 <0> d          -9.114 -12.563   2.436  0.00  0.00     0.048 C 
ATOM     24  C11 <0> d          -6.059 -11.748   0.374  0.00  0.00     0.032 A 
ENDBRANCH  17  18
ENDBRANCH   7  17
TORSDOF 6
