REMARK  5 active torsions:
REMARK  status: ('A' for Active; 'I' for Inactive)
REMARK    1  A    between atoms: C2_2  and  C3_3 
REMARK    2  A    between atoms: C2_2  and  N2_21 
REMARK    3  A    between atoms: C4_4  and  O1_10 
REMARK    4  A    between atoms: O1_10  and  C9_11 
REMARK    5  A    between atoms: C12_14  and  N1_18 
ROOT
ATOM      1  C3  <0> d          -1.429  -0.326   0.075  0.00  0.00     0.044 A 
ATOM      2  C4  <0> d          -1.993  -0.767   1.263  0.00  0.00     0.087 A 
ATOM      3  C5  <0> d          -3.373  -0.855   1.383  0.00  0.00     0.038 A 
ATOM      4  C6  <0> d          -4.182  -0.504   0.320  0.00  0.00     0.006 A 
ATOM      5  C7  <0> d          -3.620  -0.066  -0.864  0.00  0.00     0.043 A 
ATOM      6  C8  <0> d          -2.243   0.029  -0.986  0.00  0.00     0.127 A 
ATOM      7  F1  <0> d          -1.696   0.464  -2.142  0.00  0.00    -0.205 F 
ENDROOT
BRANCH   2   8
ATOM      8  O1  <0> d          -1.196  -1.112   2.308  0.00  0.00    -0.310 OA
BRANCH   8   9
ATOM      9  C9  <0> d          -1.792  -1.546   3.449  0.00  0.00     0.077 A 
ATOM     10  C14 <0> d          -2.136  -0.639   4.441  0.00  0.00     0.063 A 
ATOM     11  C13 <0> d          -2.748  -1.083   5.599  0.00  0.00     0.069 A 
ATOM     12  C12 <0> d          -3.007  -2.432   5.773  0.00  0.00     0.124 A 
ATOM     13 Cl1  <0> d          -3.187   0.051   6.838  0.00  0.00    -0.082 Cl
ATOM     14  C11 <0> d          -2.659  -3.337   4.787  0.00  0.00     0.040 A 
ATOM     15  C10 <0> d          -2.053  -2.898   3.627  0.00  0.00     0.040 A 
BRANCH  12  16
ATOM     16  N1  <0> d          -3.657  -2.905   7.016  0.00  0.00    -0.114 N 
ATOM     17  O2  <0> d          -3.884  -4.083   7.168  0.00  0.00    -0.532 OA
ATOM     18  O3  <0> d          -3.961  -2.114   7.878  0.00  0.00    -0.532 OA
ENDBRANCH  12  16
ENDBRANCH   8   9
ENDBRANCH   2   8
BRANCH   1  19
ATOM     19  C2  <0> d           0.069  -0.229  -0.058  0.00  0.00     0.218 C 
ATOM     20  C1  <0> d           0.493   1.239   0.019  0.00  0.00     0.045 C 
BRANCH  19  21
ATOM     21  N2  <0> d           0.483  -0.790  -1.351  0.00  0.00    -0.071 N 
ATOM     22  H11 <0> d           1.486  -0.725  -1.440  0.00  0.00     0.275 HD
ATOM     23  H12 <0> d           0.203  -1.759  -1.402  0.00  0.00     0.275 HD
ATOM     24  H13 <0> d           0.045  -0.274  -2.098  0.00  0.00     0.275 HD
ENDBRANCH  19  21
ENDBRANCH   1  19
TORSDOF 5
