REMARK  5 active torsions:
REMARK  status: ('A' for Active; 'I' for Inactive)
REMARK    1  A    between atoms: O1_2  and  C2_3 
REMARK    2  A    between atoms: C5_6  and  C8_10 
REMARK    3  A    between atoms: C8_10  and  N1_11 
REMARK    4  A    between atoms: N1_11  and  C9_12 
REMARK    5  A    between atoms: C13_16  and  O2_18 
ROOT
ATOM      1  C8  <0> d           2.588  -2.550   4.311  0.00  0.00     0.271 C 
ENDROOT
BRANCH   1   2
ATOM      2  C5  <0> d           1.896  -1.869   3.159  0.00  0.00    -0.030 A 
ATOM      3  C4  <0> d           2.613  -1.535   2.024  0.00  0.00     0.030 A 
ATOM      4  C3  <0> d           1.981  -0.910   0.965  0.00  0.00     0.046 A 
ATOM      5  C2  <0> d           0.626  -0.619   1.042  0.00  0.00     0.102 A 
ATOM      6 Br2  <0> d           2.961  -0.454  -0.586  0.00  0.00    -0.048 Br
ATOM      7  C7  <0> d          -0.089  -0.950   2.184  0.00  0.00     0.046 A 
ATOM      8  C6  <0> d           0.546  -1.580   3.237  0.00  0.00     0.030 A 
ATOM      9 Br1  <0> d          -1.934  -0.548   2.295  0.00  0.00    -0.048 Br
BRANCH   5  10
ATOM     10  O1  <0> d           0.002  -0.004   0.002  0.00  0.00    -0.353 OA
ATOM     11  C1  <0> d          -0.017   1.425   0.010  0.00  0.00     0.210 C 
ENDBRANCH   5  10
ENDBRANCH   1   2
BRANCH   1  12
ATOM     12  N1  <0> d           3.110  -1.536   5.238  0.00  0.00    -0.067 N 
ATOM     13  H10 <0> d           3.768  -0.945   4.753  0.00  0.00     0.277 HD
ATOM     14  H20 <0> d           2.347  -0.976   5.587  0.00  0.00     0.277 HD
BRANCH  12  15
ATOM     15  C9  <0> d           3.784  -2.200   6.361  0.00  0.00     0.188 C 
ATOM     16  C14 <0> d           4.218  -1.152   7.387  0.00  0.00     0.064 C 
ATOM     17  C13 <0> d           4.920  -1.843   8.558  0.00  0.00     0.120 C 
ATOM     18  C12 <0> d           6.151  -2.593   8.043  0.00  0.00     0.032 C 
ATOM     19  C11 <0> d           5.717  -3.642   7.017  0.00  0.00     0.004 C 
ATOM     20  C10 <0> d           5.014  -2.950   5.847  0.00  0.00     0.033 C 
BRANCH  17  21
ATOM     21  O2  <0> d           5.325  -0.864   9.516  0.00  0.00    -0.396 OA
ATOM     22  H19 <0> d           5.778  -1.232  10.287  0.00  0.00     0.210 HD
ENDBRANCH  17  21
ENDBRANCH  12  15
ENDBRANCH   1  12
TORSDOF 5
