REMARK  7 active torsions:
REMARK  status: ('A' for Active; 'I' for Inactive)
REMARK    1  A    between atoms: C2_2  and  N1_3 
REMARK    2  A    between atoms: C3_4  and  C5_8 
REMARK    3  A    between atoms: C6_9  and  C15_25 
REMARK    4  A    between atoms: N5_12  and  C8_13 
REMARK    5  A    between atoms: C8_13  and  C9_14 
REMARK    6  A    between atoms: C9_14  and  N6_15 
REMARK    7  A    between atoms: N6_15  and  C10_16 
ROOT
ATOM      1  C5  <0> d          -1.332  -0.605  -2.740  0.00  0.00     0.298 C 
ATOM      2  C6  <0> d          -1.553   0.614  -3.656  0.00  0.00     0.293 C 
ATOM      3  N4  <0> d          -2.122   0.070  -4.912  0.00  0.00     0.120 N 
ATOM      4  C7  <0> d          -2.742  -1.219  -4.512  0.00  0.00     0.504 C 
ATOM      5  N5  <0> d          -1.788  -1.780  -3.519  0.00  0.00    -0.030 N 
ATOM      6  H10 <0> d          -2.811   0.698  -5.298  0.00  0.00     0.319 HD
ATOM      7  H27 <0> d          -1.007  -2.215  -3.988  0.00  0.00     0.283 HD
ENDROOT
BRANCH   5   8
ATOM      8  C8  <0> d          -2.465  -2.746  -2.643  0.00  0.00     0.258 C 
BRANCH   8   9
ATOM      9  C9  <0> d          -2.814  -4.002  -3.443  0.00  0.00     0.166 C 
BRANCH   9  10
ATOM     10  N6  <0> d          -3.490  -4.965  -2.569  0.00  0.00    -0.223 N 
ATOM     11  H17 <0> d          -3.647  -4.747  -1.637  0.00  0.00     0.177 HD
BRANCH  10  12
ATOM     12  C10 <0> d          -3.900  -6.172  -3.068  0.00  0.00     0.703 A 
ATOM     13  N8  <0> d          -3.680  -6.457  -4.337  0.00  0.00    -0.070 NA
ATOM     14  C13 <0> d          -4.058  -7.621  -4.861  0.00  0.00     0.055 A 
ATOM     15  C12 <0> d          -4.695  -8.546  -4.086  0.00  0.00     0.102 A 
ATOM     16  C14 <0> d          -3.786  -7.915  -6.313  0.00  0.00     0.071 C 
ATOM     17  C11 <0> d          -4.938  -8.248  -2.733  0.00  0.00     0.261 A 
ATOM     18  N7  <0> d          -4.531  -7.055  -2.248  0.00  0.00    -0.154 N 
ATOM     19  O1  <0> d          -5.506  -9.051  -2.012  0.00  0.00    -0.268 OA
ATOM     20  H3  <0> d          -4.688  -6.829  -1.318  0.00  0.00     0.187 HD
ENDBRANCH  10  12
ENDBRANCH   9  10
ENDBRANCH   8   9
ENDBRANCH   5   8
BRANCH   1  21
ATOM     21  C3  <0> d           0.129  -0.741  -2.397  0.00  0.00     0.157 A 
ATOM     22  N1  <0> d           0.688  -0.476  -1.203  0.00  0.00    -0.253 N 
ATOM     23  N3  <0> d           2.061  -0.737  -1.343  0.00  0.00    -0.164 NA
ATOM     24  C4  <0> d           2.245  -1.140  -2.573  0.00  0.00     0.257 A 
ATOM     25  N2  <0> d           1.075  -1.138  -3.209  0.00  0.00    -0.223 NA
BRANCH  22  26
ATOM     26  C2  <0> d           0.002  -0.004   0.002  0.00  0.00     0.148 C 
ATOM     27  C1  <0> d          -0.019   1.526   0.010  0.00  0.00     0.028 C 
ENDBRANCH  22  26
ENDBRANCH   1  21
BRANCH   2  28
ATOM     28  C15 <0> d          -0.241   1.303  -3.931  0.00  0.00    -0.023 A 
ATOM     29  C20 <0> d           0.102   2.442  -3.228  0.00  0.00     0.009 A 
ATOM     30  C19 <0> d           1.307   3.072  -3.478  0.00  0.00     0.001 A 
ATOM     31  C18 <0> d           2.165   2.567  -4.437  0.00  0.00     0.000 A 
ATOM     32  C17 <0> d           1.819   1.430  -5.144  0.00  0.00     0.001 A 
ATOM     33  C16 <0> d           0.616   0.798  -4.891  0.00  0.00     0.009 A 
ENDBRANCH   2  28
TORSDOF 7
