REMARK  6 active torsions:
REMARK  status: ('A' for Active; 'I' for Inactive)
REMARK    1  A    between atoms: N1_2  and  C2_3 
REMARK    2  A    between atoms: C2_3  and  C3_4 
REMARK    3  A    between atoms: N2_6  and  C5_9 
REMARK    4  A    between atoms: C5_9  and  C6_10 
REMARK    5  A    between atoms: C6_10  and  O1_11 
REMARK    6  A    between atoms: O1_11  and  C7_12 
ROOT
ATOM      1  C3  <0> d           0.710  -1.985  -1.215  0.00  0.00     0.101 A 
ATOM      2  C4  <0> d          -0.170  -2.803  -1.837  0.00  0.00     0.144 A 
ATOM      3  N2  <0> d           0.238  -4.066  -1.573  0.00  0.00    -0.259 N 
ATOM      4  N3  <0> d           1.294  -4.004  -0.840  0.00  0.00    -0.066 NA
ATOM      5  N4  <0> d           1.605  -2.776  -0.613  0.00  0.00    -0.134 NA
ENDROOT
BRANCH   3   6
ATOM      6  C5  <0> d          -0.411  -5.293  -2.041  0.00  0.00     0.178 C 
BRANCH   6   7
ATOM      7  C6  <0> d           0.609  -6.158  -2.785  0.00  0.00     0.197 C 
BRANCH   7   8
ATOM      8  O1  <0> d          -0.024  -7.355  -3.241  0.00  0.00    -0.349 OA
BRANCH   8   9
ATOM      9  C7  <0> d           0.748  -8.239  -3.926  0.00  0.00     0.070 A 
ATOM     10  C12 <0> d           0.198  -9.422  -4.398  0.00  0.00     0.055 A 
ATOM     11  C11 <0> d           0.985 -10.317  -5.098  0.00  0.00     0.009 A 
ATOM     12  C10 <0> d           2.322 -10.039  -5.319  0.00  0.00     0.018 A 
ATOM     13  I1  <0> d           0.153 -12.099  -5.820  0.00  0.00    -0.044 I 
ATOM     14  C9  <0> d           2.873  -8.863  -4.844  0.00  0.00     0.004 A 
ATOM     15  C8  <0> d           2.089  -7.963  -4.149  0.00  0.00     0.037 A 
ENDBRANCH   8   9
ENDBRANCH   7   8
ENDBRANCH   6   7
ENDBRANCH   3   6
BRANCH   1  16
ATOM     16  C2  <0> d           0.690  -0.478  -1.207  0.00  0.00     0.294 C 
BRANCH  16  17
ATOM     17  N1  <0> d           0.002  -0.004   0.002  0.00  0.00    -0.074 N 
ATOM     18  C1  <0> d          -0.018   1.465   0.010  0.00  0.00     0.267 C 
ATOM     19  H4  <0> d           0.490  -0.338   0.820  0.00  0.00     0.277 HD
ATOM     20  H16 <0> d          -0.945  -0.353   0.009  0.00  0.00     0.277 HD
ENDBRANCH  16  17
ENDBRANCH   1  16
TORSDOF 6
