REMARK  4 active torsions:
REMARK  status: ('A' for Active; 'I' for Inactive)
REMARK    1  A    between atoms: C8_8  and  C10_11 
REMARK       I    between atoms: C10_11  and  N2_13 
REMARK    2  A    between atoms: N2_13  and  C11_14 
REMARK    3  A    between atoms: C11_14  and  C12_15 
REMARK       I    between atoms: C12_15  and  N3_17 
REMARK    4  A    between atoms: N3_17  and  N4_18 
ROOT
ATOM      1  C10 <0> d           2.765  -4.233  -0.046  0.00  0.00     0.257 C 
ATOM      2  O1  <0> d           3.869  -4.733  -0.153  0.00  0.00    -0.267 OA
ATOM      3  N2  <0> d           1.676  -5.019   0.062  0.00  0.00    -0.348 N 
ATOM      4  H6  <0> d           0.791  -4.623   0.072  0.00  0.00     0.163 HD
ENDROOT
BRANCH   3   5
ATOM      5  C11 <0> d           1.829  -6.473   0.163  0.00  0.00     0.227 C 
BRANCH   5   6
ATOM      6  C12 <0> d           0.471  -7.115   0.273  0.00  0.00     0.254 C 
ATOM      7  O2  <0> d          -0.528  -6.426   0.267  0.00  0.00    -0.270 OA
ATOM      8  N3  <0> d           0.365  -8.454   0.378  0.00  0.00    -0.261 N 
ATOM      9  H9  <0> d           1.163  -9.005   0.383  0.00  0.00     0.190 HD
BRANCH   8  10
ATOM     10  N4  <0> d          -0.899  -9.051   0.480  0.00  0.00    -0.245 N 
ATOM     11  C15 <0> d          -1.159 -10.402   0.593  0.00  0.00     0.086 A 
ATOM     12  C14 <0> d          -2.557 -10.523   0.668  0.00  0.00     0.086 A 
ATOM     13  C16 <0> d          -0.363 -11.539   0.643  0.00  0.00     0.034 A 
ATOM     14  N5  <0> d          -3.067  -9.267   0.590  0.00  0.00    -0.240 NA
ATOM     15  C19 <0> d          -3.131 -11.791   0.792  0.00  0.00     0.034 A 
ATOM     16  C13 <0> d          -2.097  -8.407   0.481  0.00  0.00     0.233 A 
ATOM     17  C18 <0> d          -2.333 -12.899   0.834  0.00  0.00     0.002 A 
ATOM     18  C17 <0> d          -0.953 -12.780   0.763  0.00  0.00     0.002 A 
ENDBRANCH   8  10
ENDBRANCH   5   6
ENDBRANCH   3   5
BRANCH   1  19
ATOM     19  C8  <0> d           2.619  -2.768  -0.036  0.00  0.00     0.098 A 
ATOM     20  C7  <0> d           1.284  -2.150  -0.032  0.00  0.00     0.201 A 
ATOM     21  C5  <0> d           1.224  -0.676  -0.020  0.00  0.00     0.042 A 
ATOM     22  O3  <0> d           0.271  -2.826  -0.037  0.00  0.00    -0.286 OA
ATOM     23  C4  <0> d           2.429   0.046  -0.013  0.00  0.00     0.046 A 
ATOM     24  C6  <0> d           0.003  -0.004  -0.015  0.00  0.00     0.018 A 
ATOM     25  C3  <0> d           2.387   1.438  -0.003  0.00  0.00     0.030 A 
ATOM     26  N1  <0> d           3.637  -0.617  -0.018  0.00  0.00    -0.364 N 
ATOM     27  C2  <0> d           1.173   2.090   0.002  0.00  0.00     0.002 A 
ATOM     28  C1  <0> d          -0.016   1.373  -0.005  0.00  0.00     0.001 A 
ATOM     29  C9  <0> d           3.732  -1.953  -0.029  0.00  0.00     0.109 A 
ATOM     30  H15 <0> d           4.454  -0.094  -0.014  0.00  0.00     0.165 HD
ENDBRANCH   1  19
TORSDOF 4
