REMARK  5 active torsions:
REMARK  status: ('A' for Active; 'I' for Inactive)
REMARK    1  A    between atoms: C4_4  and  C6_8 
REMARK    2  A    between atoms: C7_11  and  N5_13 
REMARK       I    between atoms: N5_13  and  C8_14 
REMARK    3  A    between atoms: C8_14  and  C9_16 
REMARK    4  A    between atoms: C12_19  and  S1_22 
REMARK    5  A    between atoms: S1_22  and  C15_25 
ROOT
ATOM      1  N5  <0> d          -2.414   4.072   5.774  0.00  0.00    -0.285 N 
ATOM      2  C8  <0> d          -2.680   2.886   5.193  0.00  0.00     0.258 C 
ATOM      3  O2  <0> d          -3.458   2.113   5.717  0.00  0.00    -0.267 OA
ATOM      4  H8  <0> d          -1.793   4.689   5.356  0.00  0.00     0.172 HD
ENDROOT
BRANCH   1   5
ATOM      5  C7  <0> d          -3.028   4.411   6.969  0.00  0.00     0.275 A 
ATOM      6  N4  <0> d          -3.883   3.675   7.637  0.00  0.00    -0.102 NA
ATOM      7  N3  <0> d          -4.249   4.302   8.700  0.00  0.00    -0.118 NA
ATOM      8  C6  <0> d          -3.642   5.464   8.750  0.00  0.00     0.224 A 
ATOM      9  O1  <0> d          -2.853   5.554   7.658  0.00  0.00    -0.253 OA
BRANCH   8  10
ATOM     10  C4  <0> d          -3.790   6.483   9.810  0.00  0.00     0.134 A 
ATOM     11  C3  <0> d          -4.612   6.380  10.952  0.00  0.00     0.064 A 
ATOM     12  C2  <0> d          -4.467   7.515  11.670  0.00  0.00     0.028 A 
ATOM     13  C1  <0> d          -5.160   7.835  12.969  0.00  0.00     0.070 C 
ATOM     14  N2  <0> d          -3.591   8.311  11.020  0.00  0.00    -0.278 N 
ATOM     15  N1  <0> d          -3.173   7.647   9.860  0.00  0.00    -0.168 NA
ATOM     16  C5  <0> d          -3.149   9.639  11.456  0.00  0.00     0.179 C 
ENDBRANCH   8  10
ENDBRANCH   1   5
BRANCH   2  17
ATOM     17  C9  <0> d          -2.025   2.524   3.918  0.00  0.00     0.032 A 
ATOM     18  C14 <0> d          -1.131   3.410   3.314  0.00  0.00     0.018 A 
ATOM     19  C13 <0> d          -0.519   3.064   2.127  0.00  0.00     0.024 A 
ATOM     20  C12 <0> d          -0.798   1.847   1.530  0.00  0.00     0.059 A 
ATOM     21  C11 <0> d          -1.683   0.965   2.124  0.00  0.00     0.024 A 
ATOM     22  C10 <0> d          -2.297   1.296   3.313  0.00  0.00     0.018 A 
BRANCH  20  23
ATOM     23  S1  <0> d          -0.017   1.417   0.010  0.00  0.00     0.178 S 
ATOM     24  O3  <0> d           0.002  -0.004   0.002  0.00  0.00    -0.222 OA
ATOM     25  O4  <0> d           1.195   2.158   0.002  0.00  0.00    -0.222 OA
BRANCH  23  26
ATOM     26  C15 <0> d          -1.135   2.034  -1.279  0.00  0.00     0.105 C 
ATOM     27  C16 <0> d          -1.294   3.548  -1.134  0.00  0.00     0.026 C 
ATOM     28  C17 <0> d          -0.551   1.712  -2.657  0.00  0.00     0.026 C 
ENDBRANCH  23  26
ENDBRANCH  20  23
ENDBRANCH   2  17
TORSDOF 5
