REMARK  4 active torsions:
REMARK  status: ('A' for Active; 'I' for Inactive)
REMARK    1  A    between atoms: C3_4  and  C14_21 
REMARK    2  A    between atoms: C4_5  and  C5_7 
REMARK       I    between atoms: C5_7  and  N2_9 
REMARK    3  A    between atoms: N2_9  and  N3_10 
REMARK       I    between atoms: N3_10  and  C6_11 
REMARK    4  A    between atoms: C6_11  and  C7_13 
ROOT
ATOM      1  C5  <0> d           1.177  -0.662  -0.024  0.00  0.00     0.279 C 
ATOM      2  O1  <0> d           2.200  -0.039  -0.241  0.00  0.00    -0.265 OA
ATOM      3  N2  <0> d           0.026  -0.004   0.217  0.00  0.00    -0.262 N 
ATOM      4  H4  <0> d          -0.789  -0.501   0.390  0.00  0.00     0.190 HD
ENDROOT
BRANCH   1   5
ATOM      5  C4  <0> d           1.198  -2.126  -0.026  0.00  0.00     0.105 A 
ATOM      6  C3  <0> d           2.281  -3.005  -0.130  0.00  0.00     0.090 A 
ATOM      7  N1  <0> d           2.014  -4.295  -0.103  0.00  0.00    -0.244 NA
ATOM      8  C2  <0> d           0.785  -4.745   0.015  0.00  0.00     0.072 A 
ATOM      9  C1  <0> d           0.309  -6.174   0.062  0.00  0.00     0.079 C 
ATOM     10  S1  <0> d          -0.153  -3.288   0.111  0.00  0.00    -0.067 SA
BRANCH   6  11
ATOM     11  C14 <0> d           3.669  -2.507  -0.263  0.00  0.00    -0.006 A 
ATOM     12  C19 <0> d           4.528  -3.072  -1.206  0.00  0.00     0.014 A 
ATOM     13  C18 <0> d           5.821  -2.604  -1.325  0.00  0.00     0.001 A 
ATOM     14  C17 <0> d           6.265  -1.576  -0.512  0.00  0.00     0.000 A 
ATOM     15  C16 <0> d           5.418  -1.012   0.425  0.00  0.00     0.001 A 
ATOM     16  C15 <0> d           4.121  -1.468   0.550  0.00  0.00     0.014 A 
ENDBRANCH   6  11
ENDBRANCH   1   5
BRANCH   3  17
ATOM     17  N3  <0> d           0.006   1.396   0.219  0.00  0.00    -0.263 N 
ATOM     18  C6  <0> d          -1.147   2.054   0.455  0.00  0.00     0.277 C 
ATOM     19  O2  <0> d          -2.170   1.431   0.666  0.00  0.00    -0.265 OA
ATOM     20  H5  <0> d           0.821   1.893   0.047  0.00  0.00     0.190 HD
BRANCH  18  21
ATOM     21  C7  <0> d          -1.167   3.520   0.457  0.00  0.00     0.075 A 
ATOM     22  S2  <0> d           0.174   4.663   0.187  0.00  0.00    -0.089 SA
ATOM     23  C10 <0> d          -0.712   6.137   0.357  0.00  0.00    -0.010 A 
ATOM     24  C9  <0> d          -1.988   5.748   0.622  0.00  0.00    -0.043 A 
ATOM     25  C11 <0> d          -0.578   7.635   0.323  0.00  0.00     0.047 C 
ATOM     26  C8  <0> d          -2.228   4.375   0.673  0.00  0.00     0.033 A 
ATOM     27  C13 <0> d          -2.841   7.007   0.800  0.00  0.00     0.040 C 
ATOM     28  C12 <0> d          -2.025   8.153   0.172  0.00  0.00     0.010 C 
ENDBRANCH  18  21
ENDBRANCH   3  17
TORSDOF 4
