REMARK  7 active torsions:
REMARK  status: ('A' for Active; 'I' for Inactive)
REMARK    1  A    between atoms: C2_2  and  C4_4 
REMARK    2  A    between atoms: C7_7  and  S1_10 
REMARK    3  A    between atoms: S1_10  and  C10_13 
REMARK    4  A    between atoms: C13_16  and  N1_19 
REMARK    5  A    between atoms: N1_19  and  N2_20 
REMARK       I    between atoms: N2_20  and  C16_21 
REMARK    6  A    between atoms: C16_21  and  C17_23 
REMARK    7  A    between atoms: C17_23  and  C18_24 
ROOT
ATOM      1  C10 <0> d           4.028  -0.735  -5.390  0.00  0.00     0.064 A 
ATOM      2  C11 <0> d           3.686   0.306  -6.234  0.00  0.00     0.026 A 
ATOM      3  C12 <0> d           4.625   1.260  -6.571  0.00  0.00     0.032 A 
ATOM      4  C13 <0> d           5.915   1.174  -6.060  0.00  0.00     0.048 A 
ATOM      5  C14 <0> d           6.254   0.128  -5.212  0.00  0.00     0.032 A 
ATOM      6  C15 <0> d           5.309  -0.821  -4.876  0.00  0.00     0.026 A 
ENDROOT
BRANCH   4   7
ATOM      7  N1  <0> d           6.867   2.138  -6.399  0.00  0.00    -0.298 N 
ATOM      8  H16 <0> d           6.629   2.868  -6.992  0.00  0.00     0.187 HD
BRANCH   7   9
ATOM      9  N2  <0> d           8.167   2.050  -5.884  0.00  0.00    -0.269 N 
ATOM     10  C16 <0> d           9.086   2.979  -6.211  0.00  0.00     0.240 C 
ATOM     11  O3  <0> d           8.789   3.892  -6.952  0.00  0.00    -0.272 OA
ATOM     12  H17 <0> d           8.405   1.319  -5.292  0.00  0.00     0.190 HD
BRANCH  10  13
ATOM     13  C17 <0> d          10.485   2.884  -5.657  0.00  0.00     0.141 C 
BRANCH  13  14
ATOM     14  C18 <0> d          11.309   4.036  -6.172  0.00  0.00    -0.041 A 
ATOM     15  C25 <0> d          12.055   4.104  -7.486  0.00  0.00     0.155 A 
ATOM     16  N3  <0> d          12.693   5.425  -7.518  0.00  0.00    -0.385 N 
ATOM     17  C24 <0> d          12.398   6.058  -6.409  0.00  0.00     0.038 A 
ATOM     18  H26 <0> d          13.244   5.769  -8.238  0.00  0.00     0.160 HD
ATOM     19  C19 <0> d          11.536   5.215  -5.551  0.00  0.00    -0.005 A 
ATOM     20  C23 <0> d          12.755   7.350  -5.933  0.00  0.00     0.030 A 
ATOM     21  C20 <0> d          11.099   5.759  -4.259  0.00  0.00     0.014 A 
ATOM     22  C21 <0> d          11.498   7.001  -3.902  0.00  0.00     0.001 A 
ATOM     23  C22 <0> d          12.314   7.781  -4.732  0.00  0.00     0.002 A 
ENDBRANCH  13  14
ENDBRANCH  10  13
ENDBRANCH   7   9
ENDBRANCH   4   7
BRANCH   1  24
ATOM     24  S1  <0> d           2.826  -1.950  -4.962  0.00  0.00     0.206 S 
ATOM     25  O1  <0> d           3.544  -3.118  -4.589  0.00  0.00    -0.217 OA
ATOM     26  O2  <0> d           1.860  -1.951  -6.005  0.00  0.00    -0.217 OA
BRANCH  24  27
ATOM     27  C7  <0> d           2.002  -1.381  -3.513  0.00  0.00     0.064 A 
ATOM     28  C6  <0> d           0.869  -0.597  -3.624  0.00  0.00     0.024 A 
ATOM     29  C5  <0> d           0.222  -0.151  -2.487  0.00  0.00     0.009 A 
ATOM     30  C4  <0> d           0.707  -0.490  -1.238  0.00  0.00    -0.055 A 
ATOM     31  C9  <0> d           1.843  -1.270  -1.126  0.00  0.00     0.009 A 
ATOM     32  C8  <0> d           2.488  -1.720  -2.263  0.00  0.00     0.024 A 
BRANCH  30  33
ATOM     33  C2  <0> d           0.002  -0.004   0.002  0.00  0.00     0.010 C 
ATOM     34  C1  <0> d          -0.019   1.526   0.010  0.00  0.00     0.015 C 
ATOM     35  C3  <0> d          -1.433  -0.534   0.013  0.00  0.00     0.015 C 
ENDBRANCH  30  33
ENDBRANCH  24  27
ENDBRANCH   1  24
TORSDOF 7
