REMARK  6 active torsions:
REMARK  status: ('A' for Active; 'I' for Inactive)
REMARK    1  A    between atoms: C2_2  and  C3_3 
REMARK    2  A    between atoms: C2_2  and  S1_6 
REMARK       I    between atoms: C3_3  and  N1_5 
REMARK    3  A    between atoms: S1_6  and  C4_7 
REMARK    4  A    between atoms: C4_7  and  C5_8 
REMARK    5  A    between atoms: C7_10  and  O3_17 
REMARK    6  A    between atoms: C8_11  and  O2_15 
ROOT
ATOM      1  C5  <0> d          -3.814  -0.539  -1.690  0.00  0.00    -0.045 A 
ATOM      2  C6  <0> d          -4.097  -1.769  -2.255  0.00  0.00     0.047 A 
ATOM      3  C7  <0> d          -5.410  -2.195  -2.365  0.00  0.00     0.103 A 
ATOM      4  C8  <0> d          -6.443  -1.383  -1.906  0.00  0.00     0.118 A 
ATOM      5  C9  <0> d          -6.153  -0.152  -1.341  0.00  0.00     0.047 A 
ATOM      6  C10 <0> d          -4.839   0.266  -1.229  0.00  0.00     0.030 A 
ATOM      7 Br1  <0> d          -7.553   0.955  -0.716  0.00  0.00    -0.048 Br
ENDROOT
BRANCH   1   8
ATOM      8  C4  <0> d          -2.384  -0.077  -1.571  0.00  0.00     0.113 C 
BRANCH   8   9
ATOM      9  S1  <0> d          -1.700  -0.632   0.015  0.00  0.00    -0.150 SA
BRANCH   9  10
ATOM     10  C2  <0> d           0.002  -0.004   0.002  0.00  0.00     0.135 C 
ATOM     11  C1  <0> d          -0.019   1.526   0.010  0.00  0.00     0.031 C 
BRANCH  10  12
ATOM     12  C3  <0> d           0.731  -0.503   1.223  0.00  0.00     0.228 C 
ATOM     13  O1  <0> d           0.105  -0.891   2.187  0.00  0.00    -0.272 OA
ATOM     14  N1  <0> d           2.079  -0.519   1.244  0.00  0.00    -0.369 N 
ATOM     15  H5  <0> d           2.579  -0.208   0.473  0.00  0.00     0.159 HD
ATOM     16  H6  <0> d           2.548  -0.840   2.030  0.00  0.00     0.159 HD
ENDBRANCH  10  12
ENDBRANCH   9  10
ENDBRANCH   8   9
ENDBRANCH   1   8
BRANCH   3  17
ATOM     17  O3  <0> d          -5.690  -3.404  -2.921  0.00  0.00    -0.353 OA
ATOM     18  C12 <0> d          -4.580  -4.184  -3.371  0.00  0.00     0.210 C 
ENDBRANCH   3  17
BRANCH   4  19
ATOM     19  O2  <0> d          -7.734  -1.797  -2.013  0.00  0.00    -0.352 OA
ATOM     20  C11 <0> d          -8.270  -2.541  -0.916  0.00  0.00     0.210 C 
ENDBRANCH   4  19
TORSDOF 6
