REMARK  3 active torsions:
REMARK  status: ('A' for Active; 'I' for Inactive)
REMARK    1  A    between atoms: C2_2  and  C3_3 
REMARK    2  A    between atoms: C2_2  and  N1_8 
REMARK    3  A    between atoms: N1_8  and  C7_9 
ROOT
ATOM      1  C7  <0> d          -0.018  -0.613  -2.399  0.00  0.00     0.213 A 
ATOM      2  C8  <0> d           0.658  -1.092  -3.616  0.00  0.00     0.298 A 
ATOM      3  O1  <0> d           1.841  -1.376  -3.593  0.00  0.00    -0.264 OA
ATOM      4  N2  <0> d          -0.052  -1.214  -4.756  0.00  0.00    -0.266 N 
ATOM      5  C9  <0> d          -1.361  -0.898  -4.773  0.00  0.00     0.347 A 
ATOM      6  O2  <0> d          -1.990  -1.011  -5.807  0.00  0.00    -0.245 OA
ATOM      7  N3  <0> d          -1.984  -0.460  -3.665  0.00  0.00    -0.222 N 
ATOM      8  N4  <0> d          -1.291  -0.322  -2.456  0.00  0.00    -0.145 NA
ATOM      9  C10 <0> d          -3.409  -0.126  -3.722  0.00  0.00     0.185 C 
ATOM     10  C11 <0> d           0.601  -1.689  -5.979  0.00  0.00     0.165 C 
ENDROOT
BRANCH   1  11
ATOM     11  N1  <0> d           0.688  -0.476  -1.203  0.00  0.00    -0.360 N 
ATOM     12  H8  <0> d           1.632  -0.695  -1.170  0.00  0.00     0.162 HD
BRANCH  11  13
ATOM     13  C2  <0> d           0.002  -0.004   0.002  0.00  0.00     0.119 C 
ATOM     14  C1  <0> d          -0.019   1.526   0.010  0.00  0.00     0.038 C 
BRANCH  13  15
ATOM     15  C3  <0> d           0.731  -0.503   1.223  0.00  0.00     0.005 A 
ATOM     16  S1  <0> d           2.489  -0.629   1.510  0.00  0.00    -0.104 SA
ATOM     17  C6  <0> d           2.426  -1.298   3.164  0.00  0.00     0.050 A 
ATOM     18  C5  <0> d           1.091  -1.386   3.381  0.00  0.00     0.008 A 
ATOM     19  C4  <0> d           0.222  -0.979   2.386  0.00  0.00     0.017 A 
ENDBRANCH  13  15
ENDBRANCH  11  13
ENDBRANCH   1  11
TORSDOF 3
