REMARK  4 active torsions:
REMARK  status: ('A' for Active; 'I' for Inactive)
REMARK    1  A    between atoms: C3_3  and  C15_21 
REMARK    2  A    between atoms: C6_9  and  C8_13 
REMARK    3  A    between atoms: C8_13  and  C9_14 
REMARK    4  A    between atoms: C12_17  and  O2_20 
ROOT
ATOM      1  C1  <0> d          -0.018   1.503   0.010  0.00  0.00     0.057 C 
ATOM      2  C2  <0> d           0.002  -0.004   0.002  0.00  0.00    -0.007 A 
ATOM      3  C3  <0> d          -1.050  -0.858   0.002  0.00  0.00     0.005 A 
ATOM      4  C4  <0> d          -0.788  -2.292  -0.007  0.00  0.00     0.080 A 
ATOM      5  C5  <0> d          -1.716  -3.382  -0.008  0.00  0.00     0.260 A 
ATOM      6  O1  <0> d          -2.917  -3.173  -0.002  0.00  0.00    -0.267 OA
ATOM      7  N1  <0> d          -1.242  -4.642  -0.017  0.00  0.00    -0.310 N 
ATOM      8  H1  <0> d          -1.866  -5.385  -0.018  0.00  0.00     0.170 HD
ATOM      9  C6  <0> d           0.092  -4.894  -0.025  0.00  0.00     0.112 A 
ATOM     10  N2  <0> d           0.963  -3.921  -0.023  0.00  0.00    -0.227 NA
ATOM     11  C7  <0> d           0.570  -2.650  -0.015  0.00  0.00     0.116 A 
ATOM     12  S1  <0> d           1.416  -1.090  -0.018  0.00  0.00    -0.073 SA
ENDROOT
BRANCH   9  13
ATOM     13  C8  <0> d           0.576  -6.321  -0.034  0.00  0.00     0.117 C 
BRANCH  13  14
ATOM     14  C9  <0> d           2.083  -6.340  -0.042  0.00  0.00    -0.051 A 
ATOM     15  C14 <0> d           2.779  -6.356   1.153  0.00  0.00     0.010 A 
ATOM     16  C13 <0> d           4.160  -6.379   1.149  0.00  0.00     0.037 A 
ATOM     17  C12 <0> d           4.849  -6.376  -0.055  0.00  0.00     0.065 A 
ATOM     18  C11 <0> d           4.149  -6.355  -1.252  0.00  0.00     0.037 A 
ATOM     19  C10 <0> d           2.767  -6.337  -1.243  0.00  0.00     0.010 A 
BRANCH  17  20
ATOM     20  O2  <0> d           6.208  -6.394  -0.061  0.00  0.00    -0.361 OA
ATOM     21  H11 <0> d           6.613  -5.516  -0.055  0.00  0.00     0.217 HD
ENDBRANCH  17  20
ENDBRANCH  13  14
ENDBRANCH   9  13
BRANCH   3  22
ATOM     22  C15 <0> d          -2.440  -0.344   0.011  0.00  0.00    -0.024 A 
ATOM     23  C20 <0> d          -2.924   0.382  -1.076  0.00  0.00     0.015 A 
ATOM     24  C19 <0> d          -4.221   0.853  -1.065  0.00  0.00     0.043 A 
ATOM     25  C18 <0> d          -5.038   0.616   0.029  0.00  0.00     0.116 A 
ATOM     26  C17 <0> d          -4.559  -0.100   1.114  0.00  0.00     0.043 A 
ATOM     27  F1  <0> d          -6.305   1.085   0.037  0.00  0.00    -0.206 F 
ATOM     28  C16 <0> d          -3.266  -0.581   1.109  0.00  0.00     0.015 A 
ENDBRANCH   3  22
TORSDOF 4
