REMARK  5 active torsions:
REMARK  status: ('A' for Active; 'I' for Inactive)
REMARK    1  A    between atoms: N1_2  and  C2_3 
REMARK    2  A    between atoms: C2_3  and  S1_11 
REMARK    3  A    between atoms: N2_4  and  C3_5 
REMARK    4  A    between atoms: S1_11  and  C9_12 
REMARK    5  A    between atoms: N3_16  and  C13_19 
ROOT
ATOM      1  C9  <0> d          -4.089  -0.916   0.113  0.00  0.00     0.157 A 
ATOM      2  C10 <0> d          -5.599  -0.718   0.360  0.00  0.00     0.129 A 
ATOM      3  C11 <0> d          -6.222  -1.042  -0.980  0.00  0.00     0.232 A 
ATOM      4  O1  <0> d          -7.409  -1.011  -1.228  0.00  0.00    -0.273 OA
ATOM      5  N3  <0> d          -5.257  -1.369  -1.848  0.00  0.00    -0.251 N 
ATOM      6  C12 <0> d          -4.015  -1.333  -1.339  0.00  0.00     0.246 A 
ATOM      7  O2  <0> d          -2.997  -1.592  -1.945  0.00  0.00    -0.271 OA
ENDROOT
BRANCH   1   8
ATOM      8  S1  <0> d          -3.190   0.637   0.378  0.00  0.00    -0.077 SA
BRANCH   8   9
ATOM      9  C2  <0> d          -1.501   0.198   0.136  0.00  0.00     0.163 C 
ATOM     10  N2  <0> d          -1.180  -1.040  -0.164  0.00  0.00    -0.225 NA
BRANCH   9  11
ATOM     11  N1  <0> d          -0.519   1.151   0.262  0.00  0.00    -0.374 N 
ATOM     12  C1  <0> d          -0.879   2.537   0.571  0.00  0.00     0.148 C 
ATOM     13  H5  <0> d           0.412   0.906   0.146  0.00  0.00     0.161 HD
ENDBRANCH   9  11
BRANCH  10  14
ATOM     14  C3  <0> d           0.137  -1.405  -0.249  0.00  0.00     0.059 A 
ATOM     15  C8  <0> d           0.628  -1.990  -1.418  0.00  0.00     0.031 A 
ATOM     16  C7  <0> d           1.958  -2.349  -1.499  0.00  0.00     0.002 A 
ATOM     17  C6  <0> d           2.801  -2.142  -0.422  0.00  0.00     0.000 A 
ATOM     18  C5  <0> d           2.319  -1.568   0.741  0.00  0.00     0.002 A 
ATOM     19  C4  <0> d           0.994  -1.198   0.834  0.00  0.00     0.031 A 
ENDBRANCH  10  14
ENDBRANCH   8   9
ENDBRANCH   1   8
BRANCH   5  20
ATOM     20  C13 <0> d          -5.521  -1.721  -3.179  0.00  0.00     0.045 A 
ATOM     21  C18 <0> d          -5.999  -0.768  -4.069  0.00  0.00     0.031 A 
ATOM     22  C17 <0> d          -6.253  -1.116  -5.381  0.00  0.00     0.021 A 
ATOM     23  C16 <0> d          -6.041  -2.416  -5.807  0.00  0.00     0.011 A 
ATOM     24  C15 <0> d          -5.570  -3.368  -4.921  0.00  0.00     0.021 A 
ATOM     25 Br1  <0> d          -6.396  -2.891  -7.602  0.00  0.00    -0.051 Br
ATOM     26  C14 <0> d          -5.309  -3.024  -3.609  0.00  0.00     0.031 A 
ENDBRANCH   5  20
TORSDOF 5
