REMARK  5 active torsions:
REMARK  status: ('A' for Active; 'I' for Inactive)
REMARK    1  A    between atoms: C2_2  and  C3_3 
REMARK    2  A    between atoms: C2_2  and  N1_10 
REMARK    3  A    between atoms: C7_7  and  O1_9 
REMARK       I    between atoms: N1_10  and  C9_11 
REMARK    4  A    between atoms: C9_11  and  C10_13 
REMARK    5  A    between atoms: C14_17  and  N2_19 
ROOT
ATOM      1  N1  <0> d          -1.372  -0.511   0.012  0.00  0.00    -0.349 N 
ATOM      2  C9  <0> d          -2.051  -0.643  -1.145  0.00  0.00     0.252 C 
ATOM      3  O2  <0> d          -1.522  -0.341  -2.197  0.00  0.00    -0.268 OA
ATOM      4  H10 <0> d          -1.794  -0.752   0.852  0.00  0.00     0.163 HD
ENDROOT
BRANCH   1   5
ATOM      5  C2  <0> d           0.002  -0.004   0.002  0.00  0.00     0.114 C 
ATOM      6  C1  <0> d          -0.019   1.526   0.010  0.00  0.00     0.037 C 
BRANCH   5   7
ATOM      7  C3  <0> d           0.731  -0.503   1.223  0.00  0.00    -0.033 A 
ATOM      8  C8  <0> d           2.047  -0.911   1.122  0.00  0.00     0.045 A 
ATOM      9  C7  <0> d           2.719  -1.365   2.248  0.00  0.00     0.066 A 
ATOM     10  C6  <0> d           2.064  -1.419   3.470  0.00  0.00     0.036 A 
ATOM     11  C5  <0> d           0.746  -1.016   3.564  0.00  0.00     0.003 A 
ATOM     12  C4  <0> d           0.080  -0.558   2.442  0.00  0.00     0.009 A 
BRANCH   9  13
ATOM     13  O1  <0> d           4.016  -1.761   2.153  0.00  0.00    -0.361 OA
ATOM     14  H9  <0> d           4.126  -2.699   1.947  0.00  0.00     0.217 HD
ENDBRANCH   9  13
ENDBRANCH   5   7
ENDBRANCH   1   5
BRANCH   2  15
ATOM     15  C10 <0> d          -3.438  -1.154  -1.134  0.00  0.00     0.034 A 
ATOM     16  C15 <0> d          -4.142  -1.291  -2.331  0.00  0.00     0.047 A 
ATOM     17  C14 <0> d          -5.439  -1.778  -2.314  0.00  0.00     0.048 A 
ATOM     18  C13 <0> d          -6.039  -2.116  -1.105  0.00  0.00     0.060 A 
ATOM     19  C12 <0> d          -5.343  -1.974   0.082  0.00  0.00     0.027 A 
ATOM     20 Cl1  <0> d          -7.667  -2.719  -1.086  0.00  0.00    -0.082 Cl
ATOM     21  C11 <0> d          -4.048  -1.496   0.074  0.00  0.00     0.019 A 
BRANCH  17  22
ATOM     22  N2  <0> d          -6.147  -1.923  -3.511  0.00  0.00    -0.398 N 
ATOM     23  H14 <0> d          -7.056  -2.260  -3.498  0.00  0.00     0.156 HD
ATOM     24  H15 <0> d          -5.729  -1.687  -4.353  0.00  0.00     0.156 HD
ENDBRANCH  17  22
ENDBRANCH   2  15
TORSDOF 5
