REMARK  7 active torsions:
REMARK  status: ('A' for Active; 'I' for Inactive)
REMARK    1  A    between atoms: C2_2  and  C3_3 
REMARK    2  A    between atoms: C3_3  and  C4_4 
REMARK    3  A    between atoms: C4_4  and  C23_28 
REMARK    4  A    between atoms: C7_7  and  C8_8 
REMARK    5  A    between atoms: C12_12  and  O2_15 
REMARK    6  A    between atoms: C13_13  and  O1_14 
REMARK    7  A    between atoms: N1_19  and  C17_22 
ROOT
ATOM      1  C4  <0> d          -1.566   0.643   1.563  0.00  0.00     0.226 C 
ATOM      2  C5  <0> d          -0.329   1.534   1.453  0.00  0.00     0.141 C 
ATOM      3  C6  <0> d           0.039   1.198  -0.047  0.00  0.00     0.130 C 
ATOM      4  C7  <0> d          -1.260   1.393  -0.713  0.00  0.00     0.237 C 
ATOM      5  C15 <0> d           1.406   1.653  -0.118  0.00  0.00     0.238 C 
ATOM      6  O3  <0> d           1.967   2.166  -1.062  0.00  0.00    -0.272 OA
ATOM      7  N1  <0> d           1.932   1.378   1.120  0.00  0.00    -0.252 N 
ATOM      8  C16 <0> d           0.974   1.066   2.043  0.00  0.00     0.239 C 
ATOM      9  O4  <0> d           1.139   0.524   3.115  0.00  0.00    -0.272 OA
ATOM     10  N2  <0> d          -2.189   0.682   0.215  0.00  0.00    -0.046 N 
ATOM     11  H23 <0> d          -3.084   1.183   0.261  0.00  0.00     0.279 HD
ATOM     12  H24 <0> d          -2.349  -0.275  -0.121  0.00  0.00     0.279 HD
ENDROOT
BRANCH   4  13
ATOM     13  C8  <0> d          -1.273   0.736  -2.069  0.00  0.00     0.009 A 
ATOM     14  C13 <0> d          -2.253   1.067  -2.990  0.00  0.00     0.107 A 
ATOM     15  C12 <0> d          -2.262   0.459  -4.242  0.00  0.00     0.101 A 
ATOM     16  C11 <0> d          -1.290  -0.475  -4.561  0.00  0.00     0.039 A 
ATOM     17  C10 <0> d          -0.314  -0.802  -3.638  0.00  0.00     0.003 A 
ATOM     18  C9  <0> d          -0.302  -0.193  -2.397  0.00  0.00     0.012 A 
BRANCH  14  19
ATOM     19  O1  <0> d          -3.205   1.985  -2.672  0.00  0.00    -0.357 OA
ATOM     20  H14 <0> d          -2.965   2.895  -2.897  0.00  0.00     0.217 HD
ENDBRANCH  14  19
BRANCH  15  21
ATOM     21  O2  <0> d          -3.222   0.781  -5.150  0.00  0.00    -0.353 OA
ATOM     22  C14 <0> d          -3.169   0.117  -6.414  0.00  0.00     0.210 C 
ENDBRANCH  15  21
ENDBRANCH   4  13
BRANCH   1  23
ATOM     23  C3  <0> d          -1.158  -0.787   1.921  0.00  0.00     0.051 C 
BRANCH  23  24
ATOM     24  C2  <0> d          -2.394  -1.690   1.904  0.00  0.00    -0.002 C 
ATOM     25  C1  <0> d          -1.986  -3.120   2.262  0.00  0.00     0.005 C 
ENDBRANCH  23  24
ENDBRANCH   1  23
BRANCH   1  26
ATOM     26  C23 <0> d          -2.512   1.190   2.600  0.00  0.00     0.211 C 
ATOM     27  O5  <0> d          -2.092   1.884   3.495  0.00  0.00    -0.646 OA
ATOM     28  O6  <0> d          -3.822   0.906   2.530  0.00  0.00    -0.646 OA
ENDBRANCH   1  26
BRANCH   7  29
ATOM     29  C17 <0> d           3.304   1.413   1.406  0.00  0.00     0.045 A 
ATOM     30  C22 <0> d           4.214   1.740   0.411  0.00  0.00     0.030 A 
ATOM     31  C21 <0> d           5.565   1.774   0.696  0.00  0.00     0.002 A 
ATOM     32  C20 <0> d           6.011   1.483   1.972  0.00  0.00     0.000 A 
ATOM     33  C19 <0> d           5.107   1.156   2.966  0.00  0.00     0.002 A 
ATOM     34  C18 <0> d           3.754   1.126   2.688  0.00  0.00     0.030 A 
ENDBRANCH   7  29
TORSDOF 7
