REMARK  3 active torsions:
REMARK  status: ('A' for Active; 'I' for Inactive)
REMARK    1  A    between atoms: C6_6  and  N1_9 
REMARK    2  A    between atoms: N1_9  and  C9_10 
REMARK    3  A    between atoms: C9_10  and  C11_12 
ROOT
ATOM      1  N1  <0> d           1.598  -2.526   2.518  0.00  0.00    -0.066 N 
ATOM      2  H18 <0> d           1.365  -2.192   1.595  0.00  0.00     0.278 HD
ATOM      3  H33 <0> d           2.543  -2.256   2.745  0.00  0.00     0.278 HD
ENDROOT
BRANCH   1   4
ATOM      4  C6  <0> d           0.673  -1.943   3.498  0.00  0.00     0.190 C 
ATOM      5  C5  <0> d          -0.768  -2.246   3.083  0.00  0.00     0.033 C 
ATOM      6  C4  <0> d          -1.732  -1.638   4.104  0.00  0.00     0.002 C 
ATOM      7  C3  <0> d          -1.526  -0.123   4.162  0.00  0.00     0.005 C 
ATOM      8  C2  <0> d          -0.085   0.180   4.577  0.00  0.00    -0.013 C 
ATOM      9  C1  <0> d           0.122   1.695   4.634  0.00  0.00     0.010 C 
ATOM     10  C7  <0> d           0.879  -0.428   3.556  0.00  0.00     0.016 C 
ATOM     11  C8  <0> d           2.320  -0.125   3.971  0.00  0.00     0.012 C 
ENDBRANCH   1   4
BRANCH   1  12
ATOM     12  C9  <0> d           1.487  -3.991   2.550  0.00  0.00     0.188 C 
ATOM     13  C10 <0> d           2.339  -4.592   1.431  0.00  0.00     0.040 C 
BRANCH  12  14
ATOM     14  C11 <0> d           1.980  -4.510   3.902  0.00  0.00     0.042 C 
ATOM     15  C15 <0> d           1.867  -6.035   3.937  0.00  0.00     0.241 C 
ATOM     16  N2  <0> d           2.343  -6.536   5.232  0.00  0.00    -0.074 N 
ATOM     17  C14 <0> d           3.766  -6.216   5.398  0.00  0.00     0.234 C 
ATOM     18  C16 <0> d           2.160  -7.993   5.289  0.00  0.00     0.269 C 
ATOM     19  H34 <0> d           1.813  -6.104   5.973  0.00  0.00     0.279 HD
ATOM     20  C13 <0> d           3.951  -4.697   5.420  0.00  0.00     0.028 C 
ATOM     21  C12 <0> d           3.444  -4.107   4.101  0.00  0.00     0.010 C 
ENDBRANCH  12  14
ENDBRANCH   1  12
TORSDOF 3
