REMARK  4 active torsions:
REMARK  status: ('A' for Active; 'I' for Inactive)
REMARK    1  A    between atoms: C5_5  and  N1_7 
REMARK       I    between atoms: N1_7  and  C7_8 
REMARK    2  A    between atoms: C7_8  and  C8_10 
REMARK    3  A    between atoms: C8_10  and  N2_11 
REMARK    4  A    between atoms: C14_18  and  N3_22 
ROOT
ATOM      1  N2  <0> d          -0.734   1.555  -1.179  0.00  0.00    -0.271 N 
ATOM      2  C9  <0> d          -0.472   2.717  -1.803  0.00  0.00     0.262 A 
ATOM      3  O2  <0> d           0.379   3.521  -1.478  0.00  0.00    -0.267 OA
ATOM      4  C10 <0> d          -1.392   2.852  -2.952  0.00  0.00     0.050 A 
ATOM      5  C11 <0> d          -1.582   3.813  -3.932  0.00  0.00     0.018 A 
ATOM      6  C12 <0> d          -2.561   3.628  -4.895  0.00  0.00     0.003 A 
ATOM      7  C13 <0> d          -3.349   2.493  -4.885  0.00  0.00     0.037 A 
ATOM      8  C14 <0> d          -3.170   1.522  -3.911  0.00  0.00     0.119 A 
ATOM      9  C15 <0> d          -2.194   1.693  -2.942  0.00  0.00     0.081 A 
ATOM     10  C16 <0> d          -1.732   0.891  -1.790  0.00  0.00     0.264 A 
ATOM     11  O3  <0> d          -2.179  -0.186  -1.451  0.00  0.00    -0.267 OA
ENDROOT
BRANCH   1  12
ATOM     12  C8  <0> d          -0.023   1.073   0.008  0.00  0.00     0.238 C 
BRANCH  12  13
ATOM     13  C7  <0> d          -0.722   1.568   1.248  0.00  0.00     0.240 C 
ATOM     14  N1  <0> d          -0.242   1.246   2.466  0.00  0.00    -0.325 N 
ATOM     15  H5  <0> d           0.514   0.643   2.546  0.00  0.00     0.169 HD
ATOM     16  O1  <0> d          -1.716   2.255   1.150  0.00  0.00    -0.271 OA
BRANCH  14  17
ATOM     17  C5  <0> d          -0.833   1.782   3.615  0.00  0.00     0.051 A 
ATOM     18  C4  <0> d          -0.051   2.097   4.719  0.00  0.00     0.033 A 
ATOM     19  C3  <0> d          -0.639   2.626   5.852  0.00  0.00     0.020 A 
ATOM     20  I1  <0> d           2.018   1.770   4.665  0.00  0.00    -0.042 I 
ATOM     21  C2  <0> d          -2.004   2.842   5.888  0.00  0.00     0.001 A 
ATOM     22  C1  <0> d          -2.785   2.530   4.790  0.00  0.00     0.002 A 
ATOM     23  C6  <0> d          -2.203   2.006   3.653  0.00  0.00     0.031 A 
ENDBRANCH  14  17
ENDBRANCH  12  13
ENDBRANCH   1  12
BRANCH   8  24
ATOM     24  N3  <0> d          -4.016   0.308  -3.907  0.00  0.00    -0.115 N 
ATOM     25  O4  <0> d          -4.873   0.160  -4.761  0.00  0.00    -0.532 OA
ATOM     26  O5  <0> d          -3.857  -0.543  -3.050  0.00  0.00    -0.532 OA
ENDBRANCH   8  24
TORSDOF 4
