REMARK  2 active torsions:
REMARK  status: ('A' for Active; 'I' for Inactive)
REMARK    1  A    between atoms: C4_4  and  C7_7 
REMARK    2  A    between atoms: C8_8  and  C14_16 
ROOT
ATOM      1  C7  <0> d           0.002  -0.004   0.002  0.00  0.00     0.032 A 
ATOM      2  C8  <0> d          -1.065  -0.876   0.102  0.00  0.00     0.038 A 
ATOM      3  C9  <0> d          -0.788  -2.310   0.069  0.00  0.00     0.015 A 
ATOM      4  C10 <0> d          -1.701  -3.387   0.154  0.00  0.00     0.017 A 
ATOM      5  C11 <0> d          -1.220  -4.676   0.102  0.00  0.00     0.020 A 
ATOM      6  C12 <0> d           0.140  -4.910  -0.031  0.00  0.00     0.118 A 
ATOM      7  N1  <0> d           0.986  -3.902  -0.109  0.00  0.00    -0.253 NA
ATOM      8  C13 <0> d           0.573  -2.654  -0.065  0.00  0.00     0.109 A 
ATOM      9  S1  <0> d           1.408  -1.089  -0.147  0.00  0.00    -0.068 SA
ENDROOT
BRANCH   2  10
ATOM     10  C14 <0> d          -2.442  -0.374   0.238  0.00  0.00     0.109 A 
ATOM     11  N3  <0> d          -3.030  -0.125   1.454  0.00  0.00    -0.374 N 
ATOM     12  C16 <0> d          -4.398   0.363   1.216  0.00  0.00     0.141 A 
ATOM     13  H13 <0> d          -2.654  -0.229   2.483  0.00  0.00     0.161 HD
ATOM     14  C15 <0> d          -4.516   0.359  -0.321  0.00  0.00     0.141 A 
ATOM     15  N2  <0> d          -3.206  -0.123  -0.779  0.00  0.00    -0.374 N 
ATOM     16  H14 <0> d          -2.830  -0.283  -1.801  0.00  0.00     0.161 HD
ENDBRANCH   2  10
BRANCH   1  17
ATOM     17  C4  <0> d          -0.018   1.472   0.010  0.00  0.00    -0.018 A 
ATOM     18  C3  <0> d           0.870   2.181   0.822  0.00  0.00     0.013 A 
ATOM     19  C2  <0> d           0.846   3.560   0.825  0.00  0.00     0.001 A 
ATOM     20  C1  <0> d          -0.056   4.241   0.025  0.00  0.00     0.000 A 
ATOM     21  C6  <0> d          -0.938   3.545  -0.781  0.00  0.00     0.001 A 
ATOM     22  C5  <0> d          -0.921   2.166  -0.798  0.00  0.00     0.013 A 
ENDBRANCH   1  17
TORSDOF 2
