REMARK  4 active torsions:
REMARK  status: ('A' for Active; 'I' for Inactive)
REMARK    1  A    between atoms: C3_3  and  N3_15 
REMARK    2  A    between atoms: N1_6  and  C6_9 
REMARK    3  A    between atoms: N3_15  and  C12_16 
REMARK    4  A    between atoms: C15_22  and  O4_23 
ROOT
ATOM      1  C1  <0> d          -0.003   1.475  -0.394  0.00  0.00     0.072 C 
ATOM      2  C2  <0> d           0.008  -0.017  -0.179  0.00  0.00     0.057 A 
ATOM      3  C3  <0> d          -1.000  -0.748   0.343  0.00  0.00     0.123 A 
ATOM      4  C4  <0> d          -0.588  -2.105   0.374  0.00  0.00     0.295 A 
ATOM      5  O1  <0> d          -1.245  -3.046   0.782  0.00  0.00    -0.264 OA
ATOM      6  N1  <0> d           0.661  -2.167  -0.131  0.00  0.00    -0.217 N 
ATOM      7  N2  <0> d           1.044  -0.866  -0.485  0.00  0.00    -0.289 N 
ATOM      8  C5  <0> d           2.327  -0.479  -1.078  0.00  0.00     0.178 C 
ENDROOT
BRANCH   3   9
ATOM      9  N3  <0> d          -2.245  -0.249   0.781  0.00  0.00    -0.376 N 
ATOM     10  H14 <0> d          -2.436   0.700   0.721  0.00  0.00     0.160 HD
BRANCH   9  11
ATOM     11  C12 <0> d          -3.249  -1.165   1.329  0.00  0.00     0.125 C 
ATOM     12  C15 <0> d          -4.629  -0.578   1.077  0.00  0.00     0.155 C 
ATOM     13  C14 <0> d          -5.454  -0.337   2.357  0.00  0.00     0.174 C 
ATOM     14  S1  <0> d          -4.118  -0.235   3.628  0.00  0.00     0.148 S 
ATOM     15  C13 <0> d          -2.937  -1.403   2.823  0.00  0.00     0.168 C 
ATOM     16  O2  <0> d          -4.583  -0.800   4.846  0.00  0.00    -0.228 OA
ATOM     17  O3  <0> d          -3.563   1.073   3.625  0.00  0.00    -0.228 OA
BRANCH  12  18
ATOM     18  O4  <0> d          -5.357  -1.472   0.232  0.00  0.00    -0.393 OA
ATOM     19  H19 <0> d          -6.252  -1.172   0.021  0.00  0.00     0.210 HD
ENDBRANCH  12  18
ENDBRANCH   9  11
ENDBRANCH   3   9
BRANCH   6  20
ATOM     20  C6  <0> d           1.435  -3.322  -0.278  0.00  0.00     0.060 A 
ATOM     21  C11 <0> d           0.888  -4.455  -0.866  0.00  0.00     0.031 A 
ATOM     22  C10 <0> d           1.657  -5.593  -1.015  0.00  0.00     0.002 A 
ATOM     23  C9  <0> d           2.965  -5.609  -0.568  0.00  0.00     0.000 A 
ATOM     24  C8  <0> d           3.511  -4.484   0.023  0.00  0.00     0.002 A 
ATOM     25  C7  <0> d           2.750  -3.341   0.170  0.00  0.00     0.031 A 
ENDBRANCH   6  20
TORSDOF 4
