REMARK  7 active torsions:
REMARK  status: ('A' for Active; 'I' for Inactive)
REMARK    1  A    between atoms: C3_3  and  C16_22 
REMARK    2  A    between atoms: C5_7  and  C6_8 
REMARK    3  A    between atoms: C6_8  and  C7_10 
REMARK    4  A    between atoms: C7_10  and  N2_12 
REMARK    5  A    between atoms: N3_15  and  C13_18 
REMARK    6  A    between atoms: C13_18  and  C14_19 
REMARK    7  A    between atoms: C14_19  and  O2_20 
ROOT
ATOM      1  C6  <0> d           0.205  -0.354   2.542  0.00  0.00     0.209 C 
ATOM      2  O1  <0> d           0.271   0.809   2.884  0.00  0.00    -0.288 OA
ENDROOT
BRANCH   1   3
ATOM      3  C5  <0> d           0.288  -0.694   1.170  0.00  0.00     0.088 A 
ATOM      4  C2  <0> d           0.443   0.191   0.126  0.00  0.00    -0.016 A 
ATOM      5  C1  <0> d           0.553   1.690   0.228  0.00  0.00     0.052 C 
ATOM      6  C3  <0> d           0.483  -0.579  -1.059  0.00  0.00     0.040 A 
ATOM      7  C4  <0> d           0.345  -1.908  -0.687  0.00  0.00     0.020 A 
ATOM      8  N1  <0> d           0.226  -1.970   0.646  0.00  0.00    -0.356 N 
ATOM      9  C15 <0> d           0.332  -3.087  -1.626  0.00  0.00     0.069 C 
ATOM     10  H1  <0> d           0.116  -2.783   1.162  0.00  0.00     0.166 HD
BRANCH   6  11
ATOM     11  C16 <0> d           0.641  -0.068  -2.425  0.00  0.00     0.158 C 
ATOM     12  O3  <0> d          -0.338   0.147  -3.109  0.00  0.00    -0.293 OA
ATOM     13  C17 <0> d           2.018   0.191  -2.978  0.00  0.00     0.097 C 
ENDBRANCH   6  11
ENDBRANCH   1   3
BRANCH   1  14
ATOM     14  C7  <0> d           0.036  -1.436   3.577  0.00  0.00     0.294 C 
ATOM     15  C8  <0> d           1.401  -2.041   3.910  0.00  0.00     0.051 C 
BRANCH  14  16
ATOM     16  N2  <0> d          -0.555  -0.862   4.793  0.00  0.00     0.103 N 
ATOM     17  C12 <0> d          -1.905  -0.344   4.529  0.00  0.00     0.303 C 
ATOM     18  C11 <0> d          -2.453   0.315   5.797  0.00  0.00     0.302 C 
ATOM     19  N3  <0> d          -2.473  -0.670   6.888  0.00  0.00     0.093 N 
ATOM     20  C10 <0> d          -1.123  -1.187   7.152  0.00  0.00     0.302 C 
ATOM     21  C9  <0> d          -0.575  -1.846   5.884  0.00  0.00     0.303 C 
BRANCH  19  22
ATOM     22  C13 <0> d          -3.064  -0.096   8.104  0.00  0.00     0.298 C 
BRANCH  22  23
ATOM     23  C14 <0> d          -4.545   0.203   7.860  0.00  0.00     0.194 C 
BRANCH  23  24
ATOM     24  O2  <0> d          -5.248  -1.022   7.640  0.00  0.00    -0.399 OA
ATOM     25  H21 <0> d          -6.194  -0.908   7.478  0.00  0.00     0.209 HD
ENDBRANCH  23  24
ENDBRANCH  22  23
ENDBRANCH  19  22
ENDBRANCH  14  16
ENDBRANCH   1  14
TORSDOF 7
