REMARK  6 active torsions:
REMARK  status: ('A' for Active; 'I' for Inactive)
REMARK    1  A    between atoms: C2_2  and  C4_4 
REMARK    2  A    between atoms: C4_4  and  C5_5 
REMARK    3  A    between atoms: C5_5  and  C7_7 
REMARK    4  A    between atoms: C5_5  and  N1_10 
REMARK    5  A    between atoms: N1_10  and  C8_11 
REMARK    6  A    between atoms: C8_11  and  C9_12 
ROOT
ATOM      1  N1  <0> d          -3.531  -0.069  -1.333  0.00  0.00    -0.052 N 
ATOM      2  H13 <0> d          -3.764   0.143  -2.291  0.00  0.00     0.279 HD
ATOM      3  H18 <0> d          -3.881  -0.985  -1.095  0.00  0.00     0.279 HD
ENDROOT
BRANCH   1   4
ATOM      4  C5  <0> d          -2.072  -0.044  -1.167  0.00  0.00     0.209 C 
ATOM      5  C6  <0> d          -1.533   1.324  -1.590  0.00  0.00     0.058 C 
BRANCH   4   6
ATOM      6  C4  <0> d          -1.721  -0.299   0.300  0.00  0.00     0.054 C 
BRANCH   6   7
ATOM      7  C2  <0> d          -2.431  -1.566   0.782  0.00  0.00    -0.020 C 
ATOM      8  C1  <0> d          -1.840  -2.784   0.069  0.00  0.00     0.009 C 
ATOM      9  C3  <0> d          -2.238  -1.716   2.292  0.00  0.00     0.009 C 
ENDBRANCH   6   7
ENDBRANCH   4   6
BRANCH   4  10
ATOM     10  C7  <0> d          -1.451  -1.116  -2.026  0.00  0.00     0.210 C 
ATOM     11  O1  <0> d          -2.143  -1.755  -2.799  0.00  0.00    -0.646 OA
ATOM     12  O2  <0> d          -0.256  -1.343  -1.947  0.00  0.00    -0.646 OA
ENDBRANCH   4  10
ENDBRANCH   1   4
BRANCH   1  13
ATOM     13  C8  <0> d          -4.141   0.933  -0.448  0.00  0.00     0.280 C 
BRANCH  13  14
ATOM     14  C9  <0> d          -5.642   0.820  -0.521  0.00  0.00     0.009 A 
ATOM     15  S1  <0> d          -6.780   1.648  -1.619  0.00  0.00    -0.086 SA
ATOM     16  C12 <0> d          -8.293   0.927  -1.005  0.00  0.00     0.051 A 
ATOM     17  C11 <0> d          -7.838   0.122  -0.013  0.00  0.00     0.028 A 
ATOM     18 Br1  <0> d         -10.071   1.218  -1.582  0.00  0.00    -0.043 Br
ATOM     19  C10 <0> d          -6.479   0.068   0.235  0.00  0.00     0.018 A 
ENDBRANCH  13  14
ENDBRANCH   1  13
TORSDOF 6
