REMARK  5 active torsions:
REMARK  status: ('A' for Active; 'I' for Inactive)
REMARK    1  A    between atoms: C3_3  and  C7_8 
REMARK    2  A    between atoms: N1_12  and  C11_16 
REMARK    3  A    between atoms: C11_16  and  C12_17 
REMARK       I    between atoms: C12_17  and  N2_19 
REMARK    4  A    between atoms: N2_19  and  C13_20 
REMARK    5  A    between atoms: C16_23  and  O4_26 
ROOT
ATOM      1  C7  <0> d           2.128   3.635  -0.390  0.00  0.00     0.036 C 
ATOM      2  C8  <0> d           1.859   2.352  -0.735  0.00  0.00     0.079 A 
ATOM      3  C9  <0> d           2.701   1.144  -0.601  0.00  0.00     0.268 A 
ATOM      4  O1  <0> d           3.819   1.193  -0.123  0.00  0.00    -0.266 OA
ATOM      5  N1  <0> d           2.176   0.007  -1.027  0.00  0.00    -0.265 N 
ATOM      6  C10 <0> d           0.937  -0.043  -1.555  0.00  0.00     0.294 A 
ATOM      7  O2  <0> d           0.336  -1.011  -1.982  0.00  0.00    -0.259 OA
ATOM      8  S1  <0> d           0.389   1.655  -1.476  0.00  0.00    -0.023 SA
ENDROOT
BRANCH   5   9
ATOM      9  C11 <0> d           2.960  -1.226  -0.922  0.00  0.00     0.239 C 
BRANCH   9  10
ATOM     10  C12 <0> d           3.770  -1.414  -2.179  0.00  0.00     0.240 C 
ATOM     11  O3  <0> d           3.700  -0.599  -3.074  0.00  0.00    -0.271 OA
ATOM     12  N2  <0> d           4.573  -2.489  -2.309  0.00  0.00    -0.326 N 
ATOM     13  H8  <0> d           4.569  -3.182  -1.630  0.00  0.00     0.169 HD
BRANCH  12  14
ATOM     14  C13 <0> d           5.414  -2.605  -3.423  0.00  0.00     0.034 A 
ATOM     15  C18 <0> d           5.900  -1.465  -4.048  0.00  0.00     0.032 A 
ATOM     16  C17 <0> d           6.729  -1.580  -5.146  0.00  0.00     0.039 A 
ATOM     17  C16 <0> d           7.077  -2.835  -5.625  0.00  0.00     0.065 A 
ATOM     18  C15 <0> d           6.592  -3.975  -5.001  0.00  0.00     0.039 A 
ATOM     19  C14 <0> d           5.766  -3.861  -3.900  0.00  0.00     0.032 A 
BRANCH  17  20
ATOM     20  O4  <0> d           7.894  -2.947  -6.706  0.00  0.00    -0.361 OA
ATOM     21  H13 <0> d           8.835  -2.988  -6.485  0.00  0.00     0.217 HD
ENDBRANCH  17  20
ENDBRANCH  12  14
ENDBRANCH   9  10
ENDBRANCH   5   9
BRANCH   1  22
ATOM     22  C3  <0> d           1.208   4.711  -0.788  0.00  0.00    -0.032 A 
ATOM     23  C2  <0> d           0.164   4.449  -1.681  0.00  0.00     0.011 A 
ATOM     24  C1  <0> d          -0.698   5.462  -2.047  0.00  0.00     0.004 A 
ATOM     25  C6  <0> d          -0.526   6.738  -1.541  0.00  0.00     0.042 A 
ATOM     26  C5  <0> d           0.509   7.009  -0.659  0.00  0.00     0.117 A 
ATOM     27  C4  <0> d           1.377   6.004  -0.280  0.00  0.00     0.053 A 
ATOM     28  F1  <0> d           0.669   8.258  -0.170  0.00  0.00    -0.206 F 
ENDBRANCH   1  22
TORSDOF 5
