REMARK  4 active torsions:
REMARK  status: ('A' for Active; 'I' for Inactive)
REMARK    1  A    between atoms: C5_5  and  C8_8 
REMARK    2  A    between atoms: C12_17  and  C13_18 
REMARK    3  A    between atoms: C16_21  and  O3_26 
REMARK    4  A    between atoms: C17_22  and  O2_24 
ROOT
ATOM      1  C8  <0> d           0.059  -4.256  -0.021  0.00  0.00     0.098 A 
ATOM      2  C9  <0> d           0.717  -5.081   0.898  0.00  0.00     0.034 A 
ATOM      3  C10 <0> d           0.457  -6.377   0.495  0.00  0.00     0.129 A 
ATOM      4  N1  <0> d          -0.326  -6.277  -0.621  0.00  0.00    -0.272 N 
ATOM      5  H1  <0> d          -0.669  -7.029  -1.129  0.00  0.00     0.189 HD
ATOM      6  N2  <0> d          -0.545  -5.040  -0.893  0.00  0.00    -0.173 NA
ATOM      7  C11 <0> d           1.122  -7.297   1.423  0.00  0.00     0.273 A 
ATOM      8  O1  <0> d           1.088  -8.510   1.343  0.00  0.00    -0.266 OA
ATOM      9  N3  <0> d           1.777  -6.609   2.376  0.00  0.00    -0.338 N 
ATOM     10  C12 <0> d           1.579  -5.175   2.127  0.00  0.00     0.158 A 
ATOM     11  C20 <0> d           2.554  -7.189   3.474  0.00  0.00     0.154 C 
ENDROOT
BRANCH  10  12
ATOM     12  C13 <0> d           0.880  -4.537   3.300  0.00  0.00    -0.028 A 
ATOM     13  C18 <0> d           1.219  -3.254   3.690  0.00  0.00     0.049 A 
ATOM     14  C17 <0> d           0.575  -2.664   4.765  0.00  0.00     0.101 A 
ATOM     15  C16 <0> d          -0.406  -3.369   5.457  0.00  0.00     0.099 A 
ATOM     16  C15 <0> d          -0.737  -4.656   5.064  0.00  0.00     0.040 A 
ATOM     17  C14 <0> d          -0.094  -5.237   3.987  0.00  0.00     0.012 A 
BRANCH  14  18
ATOM     18  O2  <0> d           0.903  -1.401   5.147  0.00  0.00    -0.353 OA
ATOM     19  C19 <0> d           1.918  -0.738   4.391  0.00  0.00     0.210 C 
ENDBRANCH  14  18
BRANCH  15  20
ATOM     20  O3  <0> d          -1.038  -2.795   6.515  0.00  0.00    -0.358 OA
ATOM     21  H16 <0> d          -0.605  -2.954   7.365  0.00  0.00     0.217 HD
ENDBRANCH  15  20
ENDBRANCH  10  12
BRANCH   1  22
ATOM     22  C5  <0> d           0.040  -2.772  -0.013  0.00  0.00    -0.005 A 
ATOM     23  C4  <0> d           0.024  -2.067  -1.214  0.00  0.00     0.014 A 
ATOM     24  C3  <0> d           0.006  -0.687  -1.201  0.00  0.00     0.007 A 
ATOM     25  C2  <0> d           0.002  -0.004   0.002  0.00  0.00    -0.062 A 
ATOM     26  C1  <0> d          -0.018   1.503   0.010  0.00  0.00     0.048 C 
ATOM     27  C7  <0> d           0.023  -0.700   1.198  0.00  0.00     0.007 A 
ATOM     28  C6  <0> d           0.036  -2.080   1.196  0.00  0.00     0.014 A 
ENDBRANCH   1  22
TORSDOF 4
