REMARK  5 active torsions:
REMARK  status: ('A' for Active; 'I' for Inactive)
REMARK    1  A    between atoms: C3_4  and  C14_17 
REMARK       I    between atoms: C14_17  and  N3_19 
REMARK    2  A    between atoms: N3_19  and  C15_20 
REMARK    3  A    between atoms: C15_20  and  C16_21 
REMARK    4  A    between atoms: C16_21  and  C17_22 
REMARK    5  A    between atoms: C17_22  and  N4_23 
ROOT
ATOM      1  C1  <0> d          -2.651   1.240  -0.045  0.00  0.00     0.159 C 
ATOM      2  N1  <0> d          -3.382   2.508   0.002  0.00  0.00    -0.326 N 
ATOM      3  C2  <0> d          -2.679   3.666   0.004  0.00  0.00     0.111 A 
ATOM      4  C3  <0> d          -3.320   4.873   0.046  0.00  0.00     0.061 A 
ATOM      5  C4  <0> d          -4.787   4.891   0.081  0.00  0.00     0.026 A 
ATOM      6  C5  <0> d          -5.797   5.950   0.138  0.00  0.00     0.004 A 
ATOM      7  C6  <0> d          -5.734   7.344   0.169  0.00  0.00     0.014 A 
ATOM      8  C7  <0> d          -6.886   8.077   0.224  0.00  0.00     0.001 A 
ATOM      9  C8  <0> d          -8.122   7.445   0.248  0.00  0.00     0.002 A 
ATOM     10  C9  <0> d          -8.208   6.071   0.218  0.00  0.00     0.030 A 
ATOM     11  C10 <0> d          -7.046   5.303   0.168  0.00  0.00     0.045 A 
ATOM     12  N2  <0> d          -6.828   3.943   0.135  0.00  0.00    -0.345 N 
ATOM     13  C11 <0> d          -5.472   3.679   0.088  0.00  0.00     0.116 A 
ATOM     14  C12 <0> d          -4.725   2.481   0.042  0.00  0.00     0.275 A 
ATOM     15  O1  <0> d          -5.305   1.409   0.038  0.00  0.00    -0.265 OA
ATOM     16  C13 <0> d          -7.880   2.924   0.146  0.00  0.00     0.156 C 
ENDROOT
BRANCH   4  17
ATOM     17  C14 <0> d          -2.553   6.130   0.048  0.00  0.00     0.253 C 
ATOM     18  O2  <0> d          -3.133   7.196  -0.037  0.00  0.00    -0.268 OA
ATOM     19  N3  <0> d          -1.209   6.100   0.143  0.00  0.00    -0.357 N 
ATOM     20  H12 <0> d          -0.679   5.136   0.136  0.00  0.00     0.162 HD
BRANCH  19  21
ATOM     21  C15 <0> d          -0.455   7.351   0.257  0.00  0.00     0.124 C 
BRANCH  21  22
ATOM     22  C16 <0> d           1.040   7.038   0.349  0.00  0.00     0.050 C 
BRANCH  22  23
ATOM     23  C17 <0> d           1.828   8.344   0.468  0.00  0.00     0.274 C 
BRANCH  23  24
ATOM     24  N4  <0> d           3.263   8.043   0.557  0.00  0.00     0.091 N 
ATOM     25  C21 <0> d           4.066   9.268   0.433  0.00  0.00     0.300 C 
ATOM     26  C20 <0> d           5.553   8.904   0.452  0.00  0.00     0.264 C 
ATOM     27  N5  <0> d           5.866   8.196   1.701  0.00  0.00    -0.072 N 
ATOM     28  C19 <0> d           5.063   6.971   1.825  0.00  0.00     0.264 C 
ATOM     29  C22 <0> d           7.301   7.896   1.790  0.00  0.00     0.269 C 
ATOM     30  H30 <0> d           5.607   8.858   2.541  0.00  0.00     0.279 HD
ATOM     31  C18 <0> d           3.576   7.336   1.806  0.00  0.00     0.300 C 
ENDBRANCH  23  24
ENDBRANCH  22  23
ENDBRANCH  21  22
ENDBRANCH  19  21
ENDBRANCH   4  17
TORSDOF 5
