REMARK  5 active torsions:
REMARK  status: ('A' for Active; 'I' for Inactive)
REMARK    1  A    between atoms: C3_4  and  S1_10 
REMARK    2  A    between atoms: C5_6  and  C6_7 
REMARK       I    between atoms: C6_7  and  N2_9 
REMARK    3  A    between atoms: S1_10  and  N3_13 
REMARK    4  A    between atoms: C8_16  and  C10_19 
REMARK    5  A    between atoms: C10_19  and  N5_20 
ROOT
ATOM      1  N3  <0> d           1.437  -3.856  -2.224  0.00  0.00    -0.134 NA
ATOM      2  C7  <0> d           1.669  -4.867  -3.024  0.00  0.00     0.183 A 
ATOM      3  N4  <0> d           2.869  -5.343  -3.506  0.00  0.00    -0.336 N 
ATOM      4  C8  <0> d           2.854  -6.425  -4.337  0.00  0.00     0.043 A 
ATOM      5  C9  <0> d           1.698  -7.000  -4.668  0.00  0.00     0.080 A 
ATOM      6  S2  <0> d           0.514  -6.004  -3.777  0.00  0.00    -0.061 SA
ATOM      7  H21 <0> d           3.706  -4.918  -3.260  0.00  0.00     0.168 HD
ENDROOT
BRANCH   1   8
ATOM      8  S1  <0> d          -0.116  -3.489  -1.782  0.00  0.00     0.287 S 
ATOM      9  O2  <0> d          -0.581  -4.574  -0.993  0.00  0.00    -0.198 OA
ATOM     10  O3  <0> d          -0.784  -3.063  -2.962  0.00  0.00    -0.198 OA
BRANCH   8  11
ATOM     11  C3  <0> d          -0.037  -2.088  -0.716  0.00  0.00     0.099 A 
ATOM     12  C2  <0> d          -0.090  -0.790  -1.098  0.00  0.00     0.116 A 
ATOM     13  N1  <0> d           0.001  -0.004   0.002  0.00  0.00    -0.355 N 
ATOM     14  C1  <0> d          -0.018   1.461   0.010  0.00  0.00     0.156 C 
ATOM     15  C5  <0> d           0.120  -0.812   1.111  0.00  0.00     0.103 A 
ATOM     16  C4  <0> d           0.092  -2.120   0.676  0.00  0.00     0.062 A 
BRANCH  15  17
ATOM     17  C6  <0> d           0.249  -0.362   2.501  0.00  0.00     0.266 C 
ATOM     18  O1  <0> d           0.170   0.823   2.767  0.00  0.00    -0.266 OA
ATOM     19  N2  <0> d           0.456  -1.261   3.483  0.00  0.00    -0.365 N 
ATOM     20  H6  <0> d           0.592  -2.196   3.264  0.00  0.00     0.159 HD
ATOM     21  H7  <0> d           0.468  -0.973   4.410  0.00  0.00     0.159 HD
ENDBRANCH  15  17
ENDBRANCH   8  11
ENDBRANCH   1   8
BRANCH   4  22
ATOM     22  C10 <0> d           4.148  -6.972  -4.882  0.00  0.00     0.292 C 
BRANCH  22  23
ATOM     23  N5  <0> d           4.769  -5.973  -5.762  0.00  0.00    -0.066 N 
ATOM     24  C15 <0> d           6.085  -6.458  -6.197  0.00  0.00     0.235 C 
ATOM     25  C14 <0> d           6.771  -5.387  -7.048  0.00  0.00     0.028 C 
ATOM     26  C13 <0> d           5.905  -5.085  -8.274  0.00  0.00     0.003 C 
ATOM     27  C12 <0> d           4.512  -4.652  -7.809  0.00  0.00     0.028 C 
ATOM     28  C11 <0> d           3.909  -5.750  -6.930  0.00  0.00     0.235 C 
ATOM     29  H22 <0> d           4.881  -5.106  -5.258  0.00  0.00     0.280 HD
ENDBRANCH  22  23
ENDBRANCH   4  22
TORSDOF 5
