REMARK  3 active torsions:
REMARK  status: ('A' for Active; 'I' for Inactive)
REMARK    1  A    between atoms: C2_2  and  C3_4 
REMARK    2  A    between atoms: C3_4  and  C4_5 
REMARK    3  A    between atoms: C3_4  and  C11_14 
ROOT
ATOM      1  C4  <0> d          -2.765   1.843   0.485  0.00  0.00     0.166 A 
ATOM      2  N1  <0> d          -3.834   2.481   1.008  0.00  0.00    -0.334 N 
ATOM      3  C5  <0> d          -4.824   1.527   1.226  0.00  0.00     0.068 A 
ATOM      4  C6  <0> d          -6.112   1.591   1.735  0.00  0.00     0.032 A 
ATOM      5  C7  <0> d          -6.870   0.441   1.830  0.00  0.00     0.002 A 
ATOM      6  C8  <0> d          -6.348  -0.774   1.420  0.00  0.00     0.003 A 
ATOM      7  C9  <0> d          -5.066  -0.846   0.912  0.00  0.00     0.040 A 
ATOM      8  C10 <0> d          -4.296   0.303   0.812  0.00  0.00     0.104 A 
ATOM      9  O2  <0> d          -3.041   0.538   0.361  0.00  0.00    -0.290 OA
ATOM     10  H4  <0> d          -3.900   3.430   1.196  0.00  0.00     0.168 HD
ENDROOT
BRANCH   1  11
ATOM     11  C3  <0> d          -1.552   2.455   0.120  0.00  0.00     0.106 C 
BRANCH  11  12
ATOM     12  C2  <0> d          -0.546   1.702  -0.521  0.00  0.00     0.163 C 
ATOM     13  C1  <0> d          -0.827   0.287  -0.959  0.00  0.00     0.097 C 
ATOM     14  O1  <0> d           0.549   2.191  -0.717  0.00  0.00    -0.292 OA
ENDBRANCH  11  12
BRANCH  11  15
ATOM     15  C11 <0> d          -1.341   3.823   0.396  0.00  0.00     0.163 C 
ATOM     16  O3  <0> d          -2.151   4.441   1.058  0.00  0.00    -0.292 OA
ATOM     17  C12 <0> d          -0.111   4.517  -0.129  0.00  0.00     0.097 C 
ENDBRANCH  11  15
ENDBRANCH   1  11
TORSDOF 3
