REMARK  7 active torsions:
REMARK  status: ('A' for Active; 'I' for Inactive)
REMARK    1  A    between atoms: C2_2  and  C5_5 
REMARK    2  A    between atoms: C5_5  and  N1_6 
REMARK    3  A    between atoms: N1_6  and  S1_7 
REMARK    4  A    between atoms: S1_7  and  C6_10 
REMARK    5  A    between atoms: C9_13  and  C12_17 
REMARK    6  A    between atoms: C13_18  and  C14_19 
REMARK    7  A    between atoms: C14_19  and  N2_20 
ROOT
ATOM      1  C6  <0> d           2.686  -0.287  -3.938  0.00  0.00     0.122 A 
ATOM      2  C7  <0> d           1.848  -1.166  -4.604  0.00  0.00     0.060 A 
ATOM      3  C8  <0> d           1.433  -0.887  -5.891  0.00  0.00     0.046 A 
ATOM      4  C9  <0> d           1.859   0.283  -6.520  0.00  0.00     0.021 A 
ATOM      5  C10 <0> d           2.702   1.165  -5.844  0.00  0.00     0.046 A 
ATOM      6  C11 <0> d           3.107   0.878  -4.555  0.00  0.00     0.060 A 
ATOM      7 Cl1  <0> d           4.151   1.978  -3.709  0.00  0.00    -0.083 Cl
ATOM      8 Cl2  <0> d           1.320  -2.622  -3.820  0.00  0.00    -0.083 Cl
ENDROOT
BRANCH   1   9
ATOM      9  S1  <0> d           3.211  -0.650  -2.296  0.00  0.00     0.262 S 
ATOM     10  O1  <0> d           4.422   0.064  -2.090  0.00  0.00    -0.200 OA
ATOM     11  O2  <0> d           3.122  -2.060  -2.143  0.00  0.00    -0.200 OA
BRANCH   9  12
ATOM     12  N1  <0> d           2.093   0.010  -1.267  0.00  0.00    -0.315 N 
ATOM     13  H12 <0> d           2.348   0.732  -0.672  0.00  0.00     0.172 HD
BRANCH  12  14
ATOM     14  C5  <0> d           0.718  -0.497  -1.257  0.00  0.00     0.140 C 
BRANCH  14  15
ATOM     15  C2  <0> d           0.002  -0.004   0.002  0.00  0.00    -0.035 C 
ATOM     16  C1  <0> d          -0.019   1.526   0.010  0.00  0.00     0.016 C 
ATOM     17  C3  <0> d           0.742  -0.511   1.242  0.00  0.00     0.016 C 
ATOM     18  C4  <0> d          -1.433  -0.534   0.013  0.00  0.00     0.016 C 
ENDBRANCH  14  15
ENDBRANCH  12  14
ENDBRANCH   9  12
ENDBRANCH   1   9
BRANCH   4  19
ATOM     19  C12 <0> d           1.433   0.578  -7.855  0.00  0.00    -0.065 C 
ATOM     20  C13 <0> d           1.083   0.819  -8.950  0.00  0.00    -0.074 C 
BRANCH  20  21
ATOM     21  C14 <0> d           0.645   1.121 -10.322  0.00  0.00     0.323 C 
BRANCH  21  22
ATOM     22  N2  <0> d           1.227   2.400 -10.751  0.00  0.00    -0.069 N 
ATOM     23  H17 <0> d           0.921   3.134 -10.131  0.00  0.00     0.275 HD
ATOM     24  H18 <0> d           2.234   2.337 -10.726  0.00  0.00     0.275 HD
ATOM     25  H19 <0> d           0.926   2.607 -11.692  0.00  0.00     0.275 HD
ENDBRANCH  21  22
ENDBRANCH  20  21
ENDBRANCH   4  19
TORSDOF 7
