REMARK  4 active torsions:
REMARK  status: ('A' for Active; 'I' for Inactive)
REMARK    1  A    between atoms: C2_2  and  C3_3 
REMARK    2  A    between atoms: C5_7  and  C6_9 
REMARK    3  A    between atoms: C6_9  and  N3_10 
REMARK    4  A    between atoms: C17_23  and  C18_24 
ROOT
ATOM      1  N3  <0> d           1.503  -3.222  -6.006  0.00  0.00     0.105 N 
ATOM      2  C7  <0> d           2.813  -3.676  -6.493  0.00  0.00     0.278 C 
ATOM      3  C8  <0> d           2.732  -5.162  -6.867  0.00  0.00     0.072 C 
ATOM      4  C9  <0> d           1.519  -5.357  -7.741  0.00  0.00    -0.019 A 
ATOM      5  C10 <0> d           1.173  -6.472  -8.594  0.00  0.00    -0.001 A 
ATOM      6  C11 <0> d           1.812  -7.683  -8.882  0.00  0.00     0.014 A 
ATOM      7  C12 <0> d           1.179  -8.525  -9.761  0.00  0.00     0.001 A 
ATOM      8  C13 <0> d          -0.037  -8.204 -10.343  0.00  0.00     0.002 A 
ATOM      9  C14 <0> d          -0.691  -7.013 -10.077  0.00  0.00     0.030 A 
ATOM     10  C15 <0> d          -0.071  -6.138  -9.188  0.00  0.00     0.043 A 
ATOM     11  N4  <0> d          -0.431  -4.908  -8.714  0.00  0.00    -0.357 N 
ATOM     12  H2  <0> d          -1.242  -4.433  -8.955  0.00  0.00     0.166 HD
ATOM     13  C16 <0> d           0.524  -4.447  -7.850  0.00  0.00     0.051 A 
ATOM     14  C17 <0> d           0.523  -3.135  -7.101  0.00  0.00     0.280 C 
ENDROOT
BRANCH   1  15
ATOM     15  C6  <0> d           1.618  -1.939  -5.300  0.00  0.00     0.332 C 
BRANCH  15  16
ATOM     16  C5  <0> d           2.880  -1.932  -4.476  0.00  0.00     0.061 A 
ATOM     17  C4  <0> d           4.117  -1.617  -4.904  0.00  0.00     0.031 A 
ATOM     18  N1  <0> d           4.958  -1.733  -3.866  0.00  0.00    -0.348 N 
ATOM     19  C22 <0> d           4.491  -1.206  -6.305  0.00  0.00     0.070 C 
ATOM     20  C3  <0> d           4.289  -2.107  -2.810  0.00  0.00     0.081 A 
ATOM     21  H31 <0> d           5.913  -1.565  -3.895  0.00  0.00     0.167 HD
ATOM     22  N2  <0> d           2.989  -2.248  -3.148  0.00  0.00    -0.346 N 
ATOM     23  H1  <0> d           2.267  -2.521  -2.560  0.00  0.00     0.167 HD
BRANCH  20  24
ATOM     24  C2  <0> d           4.871  -2.348  -1.441  0.00  0.00     0.072 C 
ATOM     25  C1  <0> d           4.835  -1.048  -0.635  0.00  0.00     0.013 C 
ENDBRANCH  20  24
ENDBRANCH  15  16
ENDBRANCH   1  15
BRANCH  14  26
ATOM     26  C18 <0> d          -0.870  -2.873  -6.525  0.00  0.00    -0.015 C 
ATOM     27  C19 <0> d          -0.998  -1.395  -6.153  0.00  0.00     0.017 C 
ATOM     28  C20 <0> d          -1.929  -3.230  -7.570  0.00  0.00     0.017 C 
ATOM     29  C21 <0> d          -1.075  -3.733  -5.276  0.00  0.00     0.017 C 
ENDBRANCH  14  26
TORSDOF 4
