REMARK  4 active torsions:
REMARK  status: ('A' for Active; 'I' for Inactive)
REMARK    1  A    between atoms: C3_3  and  N1_17 
REMARK    2  A    between atoms: C4_4  and  O4_16 
REMARK    3  A    between atoms: C8_8  and  O3_14 
REMARK    4  A    between atoms: C9_9  and  O2_12 
ROOT
ATOM      1  C1  <0> d           0.282   1.199  -0.411  0.00  0.00     0.048 C 
ATOM      2  C2  <0> d           0.046  -0.297  -0.190  0.00  0.00     0.092 C 
ATOM      3  C3  <0> d          -1.426  -0.541   0.166  0.00  0.00     0.255 C 
ATOM      4  C4  <0> d          -1.651  -2.051   0.270  0.00  0.00     0.188 C 
ATOM      5  C5  <0> d          -0.573  -2.667   1.127  0.00  0.00     0.009 A 
ATOM      6  C6  <0> d          -0.787  -3.930   1.659  0.00  0.00     0.015 A 
ATOM      7  C7  <0> d           0.177  -4.530   2.444  0.00  0.00     0.040 A 
ATOM      8  C8  <0> d           1.368  -3.870   2.706  0.00  0.00     0.104 A 
ATOM      9  C9  <0> d           1.586  -2.605   2.177  0.00  0.00     0.135 A 
ATOM     10  C10 <0> d           0.610  -2.000   1.387  0.00  0.00     0.115 A 
ATOM     11  O1  <0> d           0.854  -0.756   0.894  0.00  0.00    -0.335 OA
ATOM     12  C17 <0> d           0.405  -1.068  -1.462  0.00  0.00     0.048 C 
ENDROOT
BRANCH   3  13
ATOM     13  N1  <0> d          -2.288   0.017  -0.884  0.00  0.00    -0.061 N 
ATOM     14  C16 <0> d          -2.221   1.495  -0.867  0.00  0.00     0.235 C 
ATOM     15  C15 <0> d          -3.625   2.015  -1.227  0.00  0.00     0.029 C 
ATOM     16  C14 <0> d          -4.489   0.747  -1.416  0.00  0.00     0.029 C 
ATOM     17  C13 <0> d          -3.708  -0.327  -0.617  0.00  0.00     0.235 C 
ATOM     18  H26 <0> d          -2.008  -0.333  -1.788  0.00  0.00     0.280 HD
ENDBRANCH   3  13
BRANCH   4  19
ATOM     19  O4  <0> d          -1.608  -2.630  -1.036  0.00  0.00    -0.389 OA
ATOM     20  H14 <0> d          -1.743  -3.587  -1.046  0.00  0.00     0.210 HD
ENDBRANCH   4  19
BRANCH   9  21
ATOM     21  O2  <0> d           2.753  -1.954   2.432  0.00  0.00    -0.351 OA
ATOM     22  C11 <0> d           3.828  -2.167   1.514  0.00  0.00     0.210 C 
ENDBRANCH   9  21
BRANCH   8  23
ATOM     23  O3  <0> d           2.320  -4.459   3.478  0.00  0.00    -0.353 OA
ATOM     24  C12 <0> d           2.026  -5.762   3.988  0.00  0.00     0.210 C 
ENDBRANCH   8  23
TORSDOF 4
