REMARK  6 active torsions:
REMARK  status: ('A' for Active; 'I' for Inactive)
REMARK    1  A    between atoms: N1_5  and  C5_7 
REMARK    2  A    between atoms: C5_7  and  C6_8 
REMARK    3  A    between atoms: C6_8  and  C7_9 
REMARK    4  A    between atoms: C7_9  and  N3_10 
REMARK       I    between atoms: N3_10  and  C8_11 
REMARK    5  A    between atoms: C8_11  and  C9_13 
REMARK       I    between atoms: N4_15  and  C17_23 
REMARK    6  A    between atoms: C17_23  and  C18_25 
ROOT
ATOM      1  C9  <0> d           4.222  -7.147   3.546  0.00  0.00     0.106 C 
ATOM      2  C10 <0> d           5.214  -7.451   2.401  0.00  0.00     0.141 C 
ATOM      3  N4  <0> d           6.083  -8.527   2.934  0.00  0.00    -0.346 N 
ATOM      4  C11 <0> d           5.159  -9.405   3.692  0.00  0.00     0.136 C 
ATOM      5  C12 <0> d           4.187  -8.432   4.390  0.00  0.00    -0.007 C 
ATOM      6  C13 <0> d           4.661  -8.143   5.811  0.00  0.00     0.039 C 
ATOM      7  C14 <0> d           4.564  -9.424   6.646  0.00  0.00     0.233 C 
ATOM      8  N5  <0> d           3.175  -9.898   6.659  0.00  0.00    -0.075 N 
ATOM      9  C15 <0> d           2.758 -10.261   5.299  0.00  0.00     0.233 C 
ATOM     10  C16 <0> d           2.778  -9.017   4.407  0.00  0.00     0.039 C 
ATOM     11  C17 <0> d           7.412  -8.675   2.768  0.00  0.00     0.253 C 
ATOM     12  O2  <0> d           8.054  -7.807   2.210  0.00  0.00    -0.267 OA
ATOM     13  H21 <0> d           3.102 -10.706   7.259  0.00  0.00     0.277 HD
ATOM     14  H33 <0> d           2.575  -9.167   7.010  0.00  0.00     0.277 HD
ENDROOT
BRANCH   1  15
ATOM     15  C8  <0> d           2.854  -6.849   2.989  0.00  0.00     0.224 C 
ATOM     16  N3  <0> d           2.015  -6.036   3.660  0.00  0.00    -0.361 N 
ATOM     17  H12 <0> d           2.292  -5.642   4.503  0.00  0.00     0.162 HD
ATOM     18  O1  <0> d           2.507  -7.341   1.935  0.00  0.00    -0.273 OA
BRANCH  16  19
ATOM     19  C7  <0> d           0.685  -5.746   3.119  0.00  0.00     0.124 C 
BRANCH  19  20
ATOM     20  C6  <0> d          -0.059  -4.805   4.068  0.00  0.00     0.041 C 
BRANCH  20  21
ATOM     21  C5  <0> d          -1.448  -4.502   3.502  0.00  0.00     0.152 C 
BRANCH  21  22
ATOM     22  N1  <0> d          -2.159  -3.600   4.412  0.00  0.00    -0.274 N 
ATOM     23  C4  <0> d          -2.140  -2.252   4.369  0.00  0.00     0.028 A 
ATOM     24  C3  <0> d          -2.922  -1.796   5.375  0.00  0.00     0.055 A 
ATOM     25  C23 <0> d          -1.383  -1.405   3.379  0.00  0.00     0.070 C 
ATOM     26  C2  <0> d          -3.437  -2.904   6.055  0.00  0.00     0.053 A 
ATOM     27  C1  <0> d          -4.359  -2.859   7.247  0.00  0.00     0.072 C 
ATOM     28  N2  <0> d          -2.977  -3.986   5.482  0.00  0.00    -0.177 NA
ENDBRANCH  21  22
ENDBRANCH  20  21
ENDBRANCH  19  20
ENDBRANCH  16  19
ENDBRANCH   1  15
BRANCH  11  29
ATOM     29  C18 <0> d           8.090  -9.894   3.266  0.00  0.00     0.034 A 
ATOM     30  C22 <0> d           9.471  -9.910   3.483  0.00  0.00     0.036 A 
ATOM     31  C21 <0> d          10.062 -11.068   3.953  0.00  0.00     0.117 A 
ATOM     32  N6  <0> d           9.343 -12.148   4.186  0.00  0.00    -0.273 NA
ATOM     33  C20 <0> d           8.040 -12.177   3.990  0.00  0.00     0.117 A 
ATOM     34  C19 <0> d           7.367 -11.062   3.527  0.00  0.00     0.036 A 
ENDBRANCH  11  29
TORSDOF 6
