REMARK  4 active torsions:
REMARK  status: ('A' for Active; 'I' for Inactive)
REMARK    1  A    between atoms: N1_2  and  C2_3 
REMARK    2  A    between atoms: N1_2  and  S2_10 
REMARK    3  A    between atoms: S2_10  and  C6_13 
REMARK    4  A    between atoms: C10_17  and  C12_19 
ROOT
ATOM      1  S2  <0> d          -0.000  -0.824  -1.437  0.00  0.00     0.260 S 
ATOM      2  O3  <0> d          -0.531  -2.115  -1.167  0.00  0.00    -0.200 OA
ATOM      3  O4  <0> d          -0.572   0.049  -2.401  0.00  0.00    -0.200 OA
ENDROOT
BRANCH   1   4
ATOM      4  N1  <0> d           0.002  -0.004   0.002  0.00  0.00    -0.305 N 
ATOM      5  C1  <0> d          -0.018   1.461   0.010  0.00  0.00     0.163 C 
BRANCH   4   6
ATOM      6  C2  <0> d           0.024  -0.743   1.267  0.00  0.00     0.110 C 
ATOM      7  C5  <0> d           1.295  -0.360   2.077  0.00  0.00     0.166 C 
ATOM      8  S1  <0> d           0.791  -0.893   3.767  0.00  0.00     0.146 S 
ATOM      9  C4  <0> d          -1.036  -0.889   3.555  0.00  0.00     0.142 C 
ATOM     10  O1  <0> d           1.229  -2.228   3.981  0.00  0.00    -0.228 OA
ATOM     11  O2  <0> d           1.151   0.119   4.698  0.00  0.00    -0.228 OA
ATOM     12  C3  <0> d          -1.209  -0.372   2.107  0.00  0.00     0.042 C 
ENDBRANCH   4   6
ENDBRANCH   1   4
BRANCH   1  13
ATOM     13  C6  <0> d           1.682  -1.059  -1.905  0.00  0.00     0.080 A 
ATOM     14  C11 <0> d           2.358  -2.189  -1.496  0.00  0.00     0.039 A 
ATOM     15  C10 <0> d           3.690  -2.377  -1.873  0.00  0.00     0.003 A 
ATOM     16  C9  <0> d           4.330  -1.412  -2.653  0.00  0.00     0.014 A 
ATOM     17  C8  <0> d           3.643  -0.283  -3.050  0.00  0.00     0.002 A 
ATOM     18  C7  <0> d           2.323  -0.107  -2.678  0.00  0.00     0.025 A 
BRANCH  15  19
ATOM     19  C12 <0> d           4.419  -3.588  -1.445  0.00  0.00     0.104 C 
ATOM     20  S3  <0> d           4.102  -4.280   0.088  0.00  0.00    -0.060 SA
ATOM     21  N2  <0> d           5.333  -4.148  -2.262  0.00  0.00    -0.390 N 
ATOM     22  H15 <0> d           5.513  -3.756  -3.131  0.00  0.00     0.157 HD
ATOM     23  H16 <0> d           5.812  -4.943  -1.980  0.00  0.00     0.157 HD
ENDBRANCH  15  19
ENDBRANCH   1  13
TORSDOF 4
