REMARK  4 active torsions:
REMARK  status: ('A' for Active; 'I' for Inactive)
REMARK    1  A    between atoms: C5_5  and  N1_7 
REMARK       I    between atoms: N1_7  and  C7_8 
REMARK    2  A    between atoms: C7_8  and  C8_10 
REMARK    3  A    between atoms: C11_15  and  C18_24 
REMARK    4  A    between atoms: C13_17  and  C14_19 
ROOT
ATOM      1  C8  <0> d           0.117  -4.246   0.190  0.00  0.00     0.148 A 
ATOM      2  C9  <0> d          -1.008  -5.094   0.303  0.00  0.00     0.089 A 
ATOM      3  C10 <0> d          -0.557  -6.362   0.371  0.00  0.00     0.123 A 
ATOM      4  N2  <0> d           0.807  -6.332   0.306  0.00  0.00    -0.240 N 
ATOM      5  N3  <0> d           1.202  -5.001   0.186  0.00  0.00    -0.165 NA
ATOM      6  C11 <0> d           1.649  -7.531   0.355  0.00  0.00     0.221 C 
ATOM      7  C12 <0> d           0.838  -8.683   0.958  0.00  0.00     0.068 C 
ATOM      8  C13 <0> d          -0.515  -8.797   0.247  0.00  0.00     0.143 C 
ATOM      9  N4  <0> d          -1.276  -7.555   0.486  0.00  0.00    -0.364 N 
ATOM     10  H11 <0> d          -2.220  -7.566   0.709  0.00  0.00     0.162 HD
ENDROOT
BRANCH   1  11
ATOM     11  C7  <0> d           0.085  -2.773   0.088  0.00  0.00     0.276 C 
ATOM     12  N1  <0> d           1.236  -2.080  -0.021  0.00  0.00    -0.319 N 
ATOM     13  H7  <0> d           2.079  -2.551  -0.113  0.00  0.00     0.169 HD
ATOM     14  O1  <0> d          -0.979  -2.185   0.102  0.00  0.00    -0.266 OA
BRANCH  12  15
ATOM     15  C5  <0> d           1.215  -0.681  -0.002  0.00  0.00     0.073 A 
ATOM     16  C4  <0> d           2.240   0.040  -0.606  0.00  0.00     0.143 A 
ATOM     17  C3  <0> d           2.215   1.423  -0.585  0.00  0.00     0.044 A 
ATOM     18  F4  <0> d           3.257  -0.609  -1.213  0.00  0.00    -0.204 F 
ATOM     19  C2  <0> d           1.173   2.087   0.036  0.00  0.00     0.003 A 
ATOM     20  C1  <0> d           0.153   1.372   0.637  0.00  0.00     0.002 A 
ATOM     21  C6  <0> d           0.172  -0.009   0.620  0.00  0.00     0.033 A 
ENDBRANCH  12  15
ENDBRANCH   1  11
BRANCH   6  22
ATOM     22  C18 <0> d           2.879  -7.257   1.224  0.00  0.00     0.409 C 
ATOM     23  F1  <0> d           2.470  -6.922   2.519  0.00  0.00    -0.169 F 
ATOM     24  F2  <0> d           3.682  -8.402   1.269  0.00  0.00    -0.169 F 
ATOM     25  F3  <0> d           3.610  -6.197   0.676  0.00  0.00    -0.169 F 
ENDBRANCH   6  22
BRANCH   8  26
ATOM     26  C14 <0> d          -1.277  -9.976   0.795  0.00  0.00     0.075 A 
ATOM     27  O2  <0> d          -1.975  -9.995   1.943  0.00  0.00    -0.325 OA
ATOM     28  C17 <0> d          -2.526 -11.209   2.111  0.00  0.00     0.142 A 
ATOM     29  C16 <0> d          -2.174 -11.983   1.069  0.00  0.00     0.027 A 
ATOM     30  C15 <0> d          -1.369 -11.189   0.221  0.00  0.00     0.037 A 
ENDBRANCH   8  26
TORSDOF 4
