REMARK  6 active torsions:
REMARK  status: ('A' for Active; 'I' for Inactive)
REMARK    1  A    between atoms: C2_2  and  O4_33 
REMARK    2  A    between atoms: C5_6  and  C20_24 
REMARK    3  A    between atoms: C6_7  and  C15_18 
REMARK    4  A    between atoms: C7_8  and  C8_9 
REMARK       I    between atoms: C8_9  and  N1_11 
REMARK    5  A    between atoms: N1_11  and  C9_12 
REMARK       I    between atoms: C20_24  and  N3_26 
REMARK    6  A    between atoms: N3_26  and  C21_27 
ROOT
ATOM      1  C1  <0> d           1.719   2.094  -0.341  0.00  0.00     0.047 C 
ATOM      2  C2  <0> d           1.055   0.721  -0.458  0.00  0.00     0.073 C 
ATOM      3  C3  <0> d          -0.467   0.880  -0.384  0.00  0.00     0.117 C 
ATOM      4  C4  <0> d          -1.094  -0.496  -0.366  0.00  0.00     0.143 C 
ATOM      5  O1  <0> d          -1.978  -0.783  -1.138  0.00  0.00    -0.297 OA
ATOM      6  C5  <0> d          -0.587  -1.503   0.642  0.00  0.00     0.157 C 
ATOM      7  C6  <0> d           0.940  -1.576   0.531  0.00  0.00     0.055 C 
ATOM      8  C7  <0> d           1.529  -0.173   0.690  0.00  0.00     0.122 C 
ENDROOT
BRANCH   6   9
ATOM      9  C20 <0> d          -1.185  -2.855   0.352  0.00  0.00     0.234 C 
ATOM     10  O3  <0> d          -0.463  -3.796   0.097  0.00  0.00    -0.272 OA
ATOM     11  N3  <0> d          -2.522  -3.020   0.376  0.00  0.00    -0.326 N 
ATOM     12  H19 <0> d          -3.104  -2.250   0.472  0.00  0.00     0.169 HD
BRANCH  11  13
ATOM     13  C21 <0> d          -3.072  -4.302   0.262  0.00  0.00     0.034 A 
ATOM     14  C26 <0> d          -2.399  -5.396   0.790  0.00  0.00     0.029 A 
ATOM     15  C25 <0> d          -2.947  -6.659   0.681  0.00  0.00     0.002 A 
ATOM     16  C24 <0> d          -4.158  -6.837   0.037  0.00  0.00     0.000 A 
ATOM     17  C23 <0> d          -4.827  -5.750  -0.494  0.00  0.00     0.002 A 
ATOM     18  C22 <0> d          -4.287  -4.483  -0.384  0.00  0.00     0.029 A 
ENDBRANCH  11  13
ENDBRANCH   6   9
BRANCH   7  19
ATOM     19  C15 <0> d           1.480  -2.474   1.615  0.00  0.00    -0.049 A 
ATOM     20  C19 <0> d           2.657  -3.182   1.428  0.00  0.00     0.027 A 
ATOM     21  C18 <0> d           3.124  -3.991   2.446  0.00  0.00     0.116 A 
ATOM     22  N2  <0> d           2.459  -4.101   3.580  0.00  0.00    -0.273 NA
ATOM     23  C17 <0> d           1.334  -3.447   3.790  0.00  0.00     0.116 A 
ATOM     24  C16 <0> d           0.808  -2.615   2.820  0.00  0.00     0.027 A 
ENDBRANCH   7  19
BRANCH   8  25
ATOM     25  C8  <0> d           1.077   0.414   2.002  0.00  0.00     0.230 C 
ATOM     26  O2  <0> d          -0.098   0.654   2.186  0.00  0.00    -0.273 OA
ATOM     27  N1  <0> d           1.977   0.674   2.970  0.00  0.00    -0.327 N 
ATOM     28  H9  <0> d           2.901   0.401   2.859  0.00  0.00     0.169 HD
BRANCH  27  29
ATOM     29  C9  <0> d           1.580   1.338   4.136  0.00  0.00     0.034 A 
ATOM     30  C14 <0> d           2.493   2.109   4.843  0.00  0.00     0.029 A 
ATOM     31  C13 <0> d           2.095   2.768   5.990  0.00  0.00     0.002 A 
ATOM     32  C12 <0> d           0.794   2.650   6.441  0.00  0.00     0.000 A 
ATOM     33  C11 <0> d          -0.116   1.878   5.743  0.00  0.00     0.002 A 
ATOM     34  C10 <0> d           0.273   1.222   4.591  0.00  0.00     0.029 A 
ENDBRANCH  27  29
ENDBRANCH   8  25
BRANCH   2  35
ATOM     35  O4  <0> d           1.412   0.123  -1.706  0.00  0.00    -0.389 OA
ATOM     36  H25 <0> d           1.142   0.637  -2.479  0.00  0.00     0.210 HD
ENDBRANCH   2  35
TORSDOF 6
