REMARK  5 active torsions:
REMARK  status: ('A' for Active; 'I' for Inactive)
REMARK    1  A    between atoms: C11_14  and  S1_21 
REMARK    2  A    between atoms: C12_15  and  N3_16 
REMARK    3  A    between atoms: N4_17  and  C13_18 
REMARK    4  A    between atoms: C13_18  and  C14_19 
REMARK    5  A    between atoms: S1_21  and  C16_24 
ROOT
ATOM      1  C1  <0> d           3.820   1.138   3.960  0.00  0.00     0.052 C 
ATOM      2  C2  <0> d           2.939   1.717   5.037  0.00  0.00    -0.015 A 
ATOM      3  C3  <0> d           3.442   1.952   6.281  0.00  0.00     0.012 A 
ATOM      4  C4  <0> d           2.611   2.493   7.273  0.00  0.00     0.018 A 
ATOM      5  C5  <0> d           1.319   2.776   6.995  0.00  0.00     0.102 A 
ATOM      6  N1  <0> d           0.806   2.546   5.752  0.00  0.00    -0.272 N 
ATOM      7  C6  <0> d           1.592   2.020   4.764  0.00  0.00     0.145 A 
ATOM      8  N2  <0> d           1.111   1.788   3.543  0.00  0.00    -0.211 NA
ATOM      9  C7  <0> d          -0.151   2.055   3.234  0.00  0.00     0.149 A 
ATOM     10  C8  <0> d          -1.006   2.598   4.215  0.00  0.00     0.080 A 
ATOM     11  C9  <0> d          -0.489   2.843   5.508  0.00  0.00     0.267 A 
ATOM     12  O1  <0> d          -1.197   3.311   6.383  0.00  0.00    -0.267 OA
ATOM     13  C10 <0> d          -2.353   2.887   3.899  0.00  0.00     0.048 A 
ATOM     14  C11 <0> d          -2.814   2.638   2.649  0.00  0.00     0.109 A 
ATOM     15  C12 <0> d          -1.949   2.098   1.666  0.00  0.00     0.125 A 
ATOM     16  N4  <0> d          -0.636   1.810   1.971  0.00  0.00    -0.312 N 
ENDROOT
BRANCH  14  17
ATOM     17  S1  <0> d          -4.491   2.994   2.243  0.00  0.00     0.210 S 
ATOM     18  O2  <0> d          -5.098   3.492   3.428  0.00  0.00    -0.217 OA
ATOM     19  O3  <0> d          -4.468   3.734   1.030  0.00  0.00    -0.217 OA
BRANCH  17  20
ATOM     20  C16 <0> d          -5.277   1.458   1.882  0.00  0.00     0.065 A 
ATOM     21  C21 <0> d          -5.764   0.673   2.909  0.00  0.00     0.031 A 
ATOM     22  C20 <0> d          -6.381  -0.532   2.625  0.00  0.00    -0.055 A 
ATOM     23  C19 <0> d          -6.509  -0.950   1.315  0.00  0.00    -0.056 A 
ATOM     24  C22 <0> d          -6.912  -1.388   3.746  0.00  0.00     0.049 C 
ATOM     25  C18 <0> d          -6.022  -0.164   0.287  0.00  0.00     0.009 A 
ATOM     26  C23 <0> d          -7.181  -2.264   1.005  0.00  0.00     0.049 C 
ATOM     27  C17 <0> d          -5.410   1.042   0.570  0.00  0.00     0.024 A 
ENDBRANCH  17  20
ENDBRANCH  14  17
BRANCH  15  28
ATOM     28  N3  <0> d          -2.403   1.866   0.456  0.00  0.00    -0.384 N 
ATOM     29  H8  <0> d          -1.735   1.447  -0.310  0.00  0.00     0.157 HD
ATOM     30  H23 <0> d          -3.451   2.091   0.209  0.00  0.00     0.157 HD
ENDBRANCH  15  28
BRANCH  16  31
ATOM     31  C13 <0> d           0.246   1.247   0.946  0.00  0.00     0.158 C 
BRANCH  31  32
ATOM     32  C14 <0> d           0.175  -0.258   0.993  0.00  0.00    -0.017 C 
ATOM     33  C15 <0> d          -0.131  -0.933  -0.088  0.00  0.00     0.008 C 
ENDBRANCH  31  32
ENDBRANCH  16  31
TORSDOF 5
