REMARK  3 active torsions:
REMARK  status: ('A' for Active; 'I' for Inactive)
REMARK    1  A    between atoms: C5_5  and  S1_8 
REMARK    2  A    between atoms: S1_8  and  N1_11 
REMARK    3  A    between atoms: C7_16  and  C8_18 
ROOT
ATOM      1  C1  <0> d          -0.017   1.376   0.010  0.00  0.00     0.056 A 
ATOM      2  C2  <0> d           1.178   2.094   0.002  0.00  0.00     0.054 A 
ATOM      3  C3  <0> d           2.381   1.400  -0.023  0.00  0.00     0.107 A 
ATOM      4  C4  <0> d           2.396   0.021  -0.020  0.00  0.00     0.054 A 
ATOM      5  C5  <0> d           1.207  -0.685  -0.009  0.00  0.00     0.102 A 
ATOM      6  C6  <0> d           0.002  -0.004   0.002  0.00  0.00     0.059 A 
ATOM      7 Cl1  <0> d          -1.491  -0.889   0.006  0.00  0.00    -0.083 Cl
ATOM      8  S2  <0> d           3.903   2.297  -0.076  0.00  0.00     0.262 S 
ATOM      9  O3  <0> d           4.679   1.865   1.033  0.00  0.00    -0.200 OA
ATOM     10  O4  <0> d           4.374   2.235  -1.415  0.00  0.00    -0.200 OA
ATOM     11  N2  <0> d           3.473   3.882   0.218  0.00  0.00    -0.293 N 
ATOM     12  C7  <0> d           2.221   4.339  -0.419  0.00  0.00     0.197 C 
ATOM     13  N3  <0> d           1.126   3.485   0.032  0.00  0.00    -0.366 N 
ATOM     14  H9  <0> d           4.011   4.467   0.774  0.00  0.00     0.174 HD
ATOM     15  H10 <0> d           0.321   3.908   0.370  0.00  0.00     0.161 HD
ENDROOT
BRANCH  12  16
ATOM     16  C8  <0> d           2.356   4.246  -1.940  0.00  0.00     0.037 C 
ATOM     17  C12 <0> d           1.063   4.774  -2.640  0.00  0.00     0.016 C 
ATOM     18  C11 <0> d           1.653   5.208  -4.033  0.00  0.00     0.017 C 
ATOM     19  C13 <0> d           0.838   6.155  -2.012  0.00  0.00    -0.025 C 
ATOM     20  C10 <0> d           2.705   6.184  -3.390  0.00  0.00     0.009 C 
ATOM     21  C9  <0> d           3.466   5.198  -2.448  0.00  0.00     0.017 C 
ATOM     22  C14 <0> d           1.805   6.986  -2.441  0.00  0.00    -0.026 C 
ENDBRANCH  12  16
BRANCH   5  23
ATOM     23  S1  <0> d           1.226  -2.447  -0.008  0.00  0.00     0.258 S 
ATOM     24  O1  <0> d           0.325  -2.863  -1.025  0.00  0.00    -0.201 OA
ATOM     25  O2  <0> d           2.592  -2.839   0.006  0.00  0.00    -0.201 OA
BRANCH  23  26
ATOM     26  N1  <0> d           0.576  -2.943   1.432  0.00  0.00    -0.324 N 
ATOM     27  H7  <0> d           0.274  -2.287   2.079  0.00  0.00     0.169 HD
ATOM     28  H8  <0> d           0.497  -3.890   1.628  0.00  0.00     0.169 HD
ENDBRANCH  23  26
ENDBRANCH   5  23
TORSDOF 3
