REMARK  5 active torsions:
REMARK  status: ('A' for Active; 'I' for Inactive)
REMARK    1  A    between atoms: C2_2  and  C3_3 
REMARK    2  A    between atoms: C3_3  and  N1_4 
REMARK    3  A    between atoms: C6_7  and  C9_10 
REMARK    4  A    between atoms: C6_7  and  N2_13 
REMARK    5  A    between atoms: N2_13  and  C10_14 
ROOT
ATOM      1  N1  <0> d          -1.395  -1.879   0.150  0.00  0.00    -0.071 N 
ATOM      2  C4  <0> d          -0.780  -2.462   1.349  0.00  0.00     0.238 C 
ATOM      3  C5  <0> d          -0.711  -3.983   1.203  0.00  0.00     0.070 C 
ATOM      4  C6  <0> d          -2.128  -4.539   1.034  0.00  0.00     0.122 C 
ATOM      5  C7  <0> d          -2.786  -3.870  -0.176  0.00  0.00     0.070 C 
ATOM      6  C8  <0> d          -2.778  -2.352   0.020  0.00  0.00     0.238 C 
ATOM      7  H21 <0> d          -0.868  -2.157  -0.665  0.00  0.00     0.279 HD
ENDROOT
BRANCH   4   8
ATOM      8  C9  <0> d          -2.062  -6.028   0.812  0.00  0.00     0.202 C 
ATOM      9  O1  <0> d          -2.616  -6.785   1.590  0.00  0.00    -0.646 OA
ATOM     10  O2  <0> d          -1.454  -6.476  -0.146  0.00  0.00    -0.646 OA
ENDBRANCH   4   8
BRANCH   4  11
ATOM     11  N2  <0> d          -2.913  -4.256   2.238  0.00  0.00    -0.371 N 
ATOM     12  H16 <0> d          -2.492  -3.831   3.002  0.00  0.00     0.161 HD
BRANCH  11  13
ATOM     13  C10 <0> d          -4.267  -4.597   2.285  0.00  0.00     0.029 A 
ATOM     14  C15 <0> d          -5.054  -4.175   3.349  0.00  0.00     0.030 A 
ATOM     15  C14 <0> d          -6.394  -4.508   3.390  0.00  0.00     0.021 A 
ATOM     16  C13 <0> d          -6.949  -5.272   2.379  0.00  0.00     0.011 A 
ATOM     17  C12 <0> d          -6.166  -5.700   1.322  0.00  0.00     0.021 A 
ATOM     18 Br1  <0> d          -8.782  -5.733   2.443  0.00  0.00    -0.051 Br
ATOM     19  C11 <0> d          -4.827  -5.364   1.272  0.00  0.00     0.030 A 
ENDBRANCH  11  13
ENDBRANCH   4  11
BRANCH   1  20
ATOM     20  C3  <0> d          -1.388  -0.415   0.260  0.00  0.00     0.234 C 
BRANCH  20  21
ATOM     21  C2  <0> d           0.057   0.089   0.270  0.00  0.00     0.023 C 
ATOM     22  C1  <0> d           0.064   1.615   0.384  0.00  0.00     0.007 C 
ENDBRANCH  20  21
ENDBRANCH   1  20
TORSDOF 5
