REMARK  2 active torsions:
REMARK  status: ('A' for Active; 'I' for Inactive)
REMARK    1  A    between atoms: C3_3  and  C7_8 
REMARK    2  A    between atoms: C12_18  and  N4_22 
ROOT
ATOM      1  C7  <0> d           3.672   2.183  -0.022  0.00  0.00     0.087 C 
ATOM      2  C8  <0> d           4.470   1.829  -1.283  0.00  0.00     0.169 A 
ATOM      3  C9  <0> d           3.555   1.795  -2.471  0.00  0.00     0.238 A 
ATOM      4  O1  <0> d           2.933   2.793  -2.769  0.00  0.00    -0.272 OA
ATOM      5  N1  <0> d           3.408   0.686  -3.213  0.00  0.00    -0.277 N 
ATOM      6  C10 <0> d           4.068  -0.445  -2.917  0.00  0.00     0.350 A 
ATOM      7  O2  <0> d           3.925  -1.419  -3.631  0.00  0.00    -0.244 OA
ATOM      8  N2  <0> d           4.881  -0.527  -1.854  0.00  0.00    -0.172 NA
ATOM      9  C11 <0> d           5.105   0.478  -1.059  0.00  0.00     0.167 A 
ATOM     10  O3  <0> d           5.912   0.347   0.018  0.00  0.00    -0.277 OA
ATOM     11  C12 <0> d           5.509   0.951   1.157  0.00  0.00     0.161 C 
ATOM     12  C13 <0> d           4.479   1.823   1.196  0.00  0.00     0.083 C 
ATOM     13  C14 <0> d           4.141   2.432   2.448  0.00  0.00     0.100 C 
ATOM     14  N3  <0> d           3.873   2.915   3.440  0.00  0.00    -0.191 NA
ATOM     15  H7  <0> d           2.813   0.702  -3.979  0.00  0.00     0.173 HD
ENDROOT
BRANCH   1  16
ATOM     16  C3  <0> d           2.377   1.411  -0.013  0.00  0.00    -0.046 A 
ATOM     17  C2  <0> d           1.171   2.086   0.002  0.00  0.00     0.008 A 
ATOM     18  C1  <0> d          -0.017   1.378   0.010  0.00  0.00     0.002 A 
ATOM     19  C6  <0> d           0.002  -0.004   0.002  0.00  0.00     0.018 A 
ATOM     20  C5  <0> d           1.209  -0.679  -0.013  0.00  0.00     0.007 A 
ATOM     21  C4  <0> d           2.397   0.029  -0.021  0.00  0.00     0.026 A 
ATOM     22  I1  <0> d           1.238  -2.774  -0.025  0.00  0.00    -0.045 I 
ENDBRANCH   1  16
BRANCH  11  23
ATOM     23  N4  <0> d           6.174   0.666   2.324  0.00  0.00    -0.379 N 
ATOM     24  H8  <0> d           6.917   0.042   2.319  0.00  0.00     0.158 HD
ATOM     25  H9  <0> d           5.902   1.089   3.153  0.00  0.00     0.158 HD
ENDBRANCH  11  23
TORSDOF 2
