REMARK  4 active torsions:
REMARK  status: ('A' for Active; 'I' for Inactive)
REMARK    1  A    between atoms: N2_5  and  C6_8 
REMARK    2  A    between atoms: C6_8  and  C7_9 
REMARK    3  A    between atoms: C11_13  and  C13_15 
REMARK    4  A    between atoms: C17_19  and  N5_25 
ROOT
ATOM      1  C7  <0> d          -4.732  -1.710   0.726  0.00  0.00    -0.029 A 
ATOM      2  C8  <0> d          -4.039  -2.681   0.025  0.00  0.00     0.009 A 
ATOM      3  C9  <0> d          -2.891  -2.351  -0.673  0.00  0.00     0.002 A 
ATOM      4  C10 <0> d          -2.430  -1.050  -0.673  0.00  0.00     0.014 A 
ATOM      5  C11 <0> d          -3.125  -0.067   0.031  0.00  0.00    -0.004 A 
ATOM      6  C12 <0> d          -4.278  -0.407   0.737  0.00  0.00     0.022 A 
ENDROOT
BRANCH   5   7
ATOM      7  C13 <0> d          -2.635   1.332   0.034  0.00  0.00     0.099 A 
ATOM      8  N4  <0> d          -3.377   2.412   0.047  0.00  0.00    -0.173 NA
ATOM      9  N3  <0> d          -2.565   3.550   0.045  0.00  0.00    -0.277 N 
ATOM     10  C19 <0> d          -1.248   3.166   0.030  0.00  0.00     0.065 A 
ATOM     11  H1  <0> d          -2.826   4.619   0.054  0.00  0.00     0.189 HD
ATOM     12  C14 <0> d          -1.232   1.759   0.017  0.00  0.00     0.024 A 
ATOM     13  C18 <0> d          -0.044   3.865   0.023  0.00  0.00     0.060 A 
ATOM     14  C15 <0> d          -0.013   1.076   0.008  0.00  0.00     0.018 A 
ATOM     15  C16 <0> d           1.158   1.775   0.001  0.00  0.00     0.030 A 
ATOM     16  C17 <0> d           1.151   3.171   0.008  0.00  0.00     0.028 A 
BRANCH  16  17
ATOM     17  N5  <0> d           2.360   3.870  -0.000  0.00  0.00    -0.399 N 
ATOM     18  H22 <0> d           2.359   4.970   0.005  0.00  0.00     0.156 HD
ATOM     19  H23 <0> d           3.313   3.321  -0.012  0.00  0.00     0.156 HD
ENDBRANCH  16  17
ENDBRANCH   5   7
BRANCH   1  20
ATOM     20  C6  <0> d          -5.981  -2.078   1.484  0.00  0.00     0.311 C 
BRANCH  20  21
ATOM     21  N2  <0> d          -5.626  -2.466   2.855  0.00  0.00     0.095 N 
ATOM     22  C3  <0> d          -6.826  -2.602   3.692  0.00  0.00     0.300 C 
ATOM     23  C2  <0> d          -6.409  -2.928   5.128  0.00  0.00     0.264 C 
ATOM     24  N1  <0> d          -5.621  -4.169   5.137  0.00  0.00    -0.072 N 
ATOM     25  C1  <0> d          -5.266  -4.557   6.508  0.00  0.00     0.269 C 
ATOM     26  C5  <0> d          -4.421  -4.033   4.300  0.00  0.00     0.264 C 
ATOM     27  H24 <0> d          -6.244  -4.970   4.711  0.00  0.00     0.279 HD
ATOM     28  C4  <0> d          -4.838  -3.706   2.864  0.00  0.00     0.300 C 
ENDBRANCH  20  21
ENDBRANCH   1  20
TORSDOF 4
