REMARK  5 active torsions:
REMARK  status: ('A' for Active; 'I' for Inactive)
REMARK    1  A    between atoms: C7_11  and  N3_13 
REMARK       I    between atoms: N3_13  and  C8_14 
REMARK    2  A    between atoms: C8_14  and  C9_16 
REMARK    3  A    between atoms: C9_16  and  N4_17 
REMARK    4  A    between atoms: N4_17  and  C11_19 
REMARK    5  A    between atoms: C11_19  and  C12_20 
ROOT
ATOM      1  N3  <0> d           0.427  -2.783   1.088  0.00  0.00    -0.329 N 
ATOM      2  C8  <0> d           0.626  -3.556   2.175  0.00  0.00     0.245 C 
ATOM      3  O3  <0> d           1.464  -3.246   2.994  0.00  0.00    -0.272 OA
ATOM      4  H7  <0> d          -0.243  -3.031   0.433  0.00  0.00     0.165 HD
ENDROOT
BRANCH   1   5
ATOM      5  C7  <0> d           1.224  -1.569   0.898  0.00  0.00     0.264 C 
ATOM      6  C6  <0> d           1.502  -1.354  -0.567  0.00  0.00     0.070 A 
ATOM      7  C3  <0> d           0.646  -0.387  -1.016  0.00  0.00     0.012 A 
ATOM      8  C5  <0> d           2.405  -1.919  -1.485  0.00  0.00     0.272 A 
ATOM      9  C2  <0> d          -0.205   0.045   0.151  0.00  0.00     0.156 C 
ATOM     10  C4  <0> d           0.712  -0.009  -2.362  0.00  0.00     0.060 A 
ATOM     11  C1  <0> d          -0.334   1.569   0.174  0.00  0.00     0.045 C 
ATOM     12  O2  <0> d           0.480  -0.413   1.333  0.00  0.00    -0.353 OA
ATOM     13  C18 <0> d          -0.217   1.054  -2.891  0.00  0.00     0.073 C 
ATOM     14  N1  <0> d           1.576  -0.577  -3.159  0.00  0.00    -0.176 NA
ATOM     15  N2  <0> d           2.390  -1.487  -2.763  0.00  0.00    -0.243 N 
ATOM     16  H2  <0> d           3.012  -1.875  -3.399  0.00  0.00     0.192 HD
ATOM     17  O1  <0> d           3.188  -2.785  -1.131  0.00  0.00    -0.266 OA
ENDBRANCH   1   5
BRANCH   2  18
ATOM     18  C9  <0> d          -0.194  -4.805   2.370  0.00  0.00     0.336 C 
BRANCH  18  19
ATOM     19  N4  <0> d           0.210  -5.465   3.619  0.00  0.00    -0.063 N 
ATOM     20  C10 <0> d          -0.121  -4.600   4.760  0.00  0.00     0.270 C 
ATOM     21  H22 <0> d           1.204  -5.635   3.603  0.00  0.00     0.280 HD
BRANCH  19  22
ATOM     22  C11 <0> d          -0.503  -6.743   3.751  0.00  0.00     0.274 C 
BRANCH  22  23
ATOM     23  C12 <0> d           0.010  -7.482   4.959  0.00  0.00    -0.015 A 
ATOM     24  C17 <0> d           1.236  -8.121   4.911  0.00  0.00     0.018 A 
ATOM     25  C16 <0> d           1.708  -8.796   6.022  0.00  0.00     0.019 A 
ATOM     26 Br1  <0> d           2.268  -8.067   3.328  0.00  0.00    -0.051 Br
ATOM     27  C15 <0> d           0.951  -8.840   7.177  0.00  0.00     0.001 A 
ATOM     28  C14 <0> d          -0.277  -8.205   7.224  0.00  0.00     0.001 A 
ATOM     29  C13 <0> d          -0.747  -7.527   6.115  0.00  0.00     0.010 A 
ENDBRANCH  22  23
ENDBRANCH  19  22
ENDBRANCH  18  19
ENDBRANCH   2  18
TORSDOF 5
