REMARK  3 active torsions:
REMARK  status: ('A' for Active; 'I' for Inactive)
REMARK    1  A    between atoms: S1_2  and  C2_5 
REMARK    2  A    between atoms: C2_5  and  C3_6 
REMARK    3  A    between atoms: C4_8  and  C5_11 
ROOT
ATOM      1  C3  <0> d           0.984  -1.879  -1.702  0.00  0.00     0.170 A 
ATOM      2  N1  <0> d           1.984  -2.641  -1.246  0.00  0.00    -0.205 NA
ATOM      3  C4  <0> d           1.771  -3.890  -1.553  0.00  0.00     0.210 A 
ATOM      4  O3  <0> d           0.615  -3.966  -2.223  0.00  0.00    -0.193 OA
ATOM      5  N2  <0> d           0.115  -2.639  -2.304  0.00  0.00    -0.110 NA
ENDROOT
BRANCH   3   6
ATOM      6  C5  <0> d           2.672  -5.050  -1.212  0.00  0.00     0.333 C 
ATOM      7  N3  <0> d           2.820  -5.920  -2.386  0.00  0.00     0.100 N 
ATOM      8  C11 <0> d           3.572  -7.144  -2.072  0.00  0.00     0.276 C 
ATOM      9  H13 <0> d           1.922  -6.142  -2.787  0.00  0.00     0.317 HD
ATOM     10  C10 <0> d           2.695  -8.060  -1.201  0.00  0.00     0.076 C 
ATOM     11  C9  <0> d           2.094  -7.221  -0.122  0.00  0.00    -0.007 A 
ATOM     12  C6  <0> d           2.057  -5.859  -0.075  0.00  0.00    -0.004 A 
ATOM     13  S2  <0> d           1.278  -7.718   1.369  0.00  0.00    -0.106 SA
ATOM     14  C7  <0> d           1.442  -5.292   1.039  0.00  0.00     0.018 A 
ATOM     15  C8  <0> d           0.919  -6.086   2.002  0.00  0.00     0.051 A 
ENDBRANCH   3   6
BRANCH   1  16
ATOM     16  C2  <0> d           0.877  -0.385  -1.541  0.00  0.00     0.222 C 
BRANCH  16  17
ATOM     17  S1  <0> d           0.002  -0.004   0.002  0.00  0.00     0.147 S 
ATOM     18  C1  <0> d          -0.022   1.810   0.012  0.00  0.00     0.161 C 
ATOM     19  O1  <0> d           0.798  -0.449   1.092  0.00  0.00    -0.228 OA
ATOM     20  O2  <0> d          -1.335  -0.471  -0.113  0.00  0.00    -0.228 OA
ENDBRANCH  16  17
ENDBRANCH   1  16
TORSDOF 3
