REMARK  6 active torsions:
REMARK  status: ('A' for Active; 'I' for Inactive)
REMARK    1  A    between atoms: C2_2  and  C3_3 
REMARK    2  A    between atoms: C2_2  and  O3_20 
REMARK    3  A    between atoms: C3_3  and  N1_4 
REMARK    4  A    between atoms: C5_6  and  O2_19 
REMARK    5  A    between atoms: C8_10  and  C9_11 
REMARK    6  A    between atoms: C9_11  and  N2_12 
ROOT
ATOM      1  N1  <0> d           0.957  -2.192   1.476  0.00  0.00    -0.353 N 
ATOM      2  C4  <0> d          -0.063  -2.936   1.978  0.00  0.00     0.131 A 
ATOM      3  C5  <0> d          -0.185  -4.246   1.657  0.00  0.00     0.131 A 
ATOM      4  C6  <0> d           0.767  -4.836   0.788  0.00  0.00     0.208 A 
ATOM      5  O1  <0> d           0.683  -6.016   0.480  0.00  0.00    -0.285 OA
ATOM      6  C7  <0> d           1.815  -4.032   0.285  0.00  0.00     0.084 A 
ATOM      7  C8  <0> d           1.878  -2.729   0.639  0.00  0.00     0.041 A 
ENDROOT
BRANCH   7   8
ATOM      8  C9  <0> d           2.989  -1.865   0.102  0.00  0.00     0.291 C 
BRANCH   8   9
ATOM      9  N2  <0> d           2.480  -1.047  -1.007  0.00  0.00    -0.066 N 
ATOM     10  C15 <0> d           3.484  -0.165  -1.411  0.00  0.00     0.235 C 
ATOM     11  C14 <0> d           2.998   0.799  -2.513  0.00  0.00     0.028 C 
ATOM     12  C13 <0> d           2.994   0.073  -3.834  0.00  0.00     0.002 C 
ATOM     13  C12 <0> d           1.624  -0.559  -4.152  0.00  0.00     0.002 C 
ATOM     14  C11 <0> d           0.992  -1.210  -2.907  0.00  0.00     0.028 C 
ATOM     15  C10 <0> d           2.022  -1.944  -2.086  0.00  0.00     0.235 C 
ATOM     16  H25 <0> d           1.691  -0.510  -0.678  0.00  0.00     0.280 HD
ENDBRANCH   8   9
ENDBRANCH   7   8
BRANCH   1  17
ATOM     17  C3  <0> d           1.060  -0.778   1.842  0.00  0.00     0.159 C 
BRANCH  17  18
ATOM     18  C2  <0> d           0.093   0.043   0.986  0.00  0.00     0.132 C 
ATOM     19  C1  <0> d           0.311   1.533   1.255  0.00  0.00     0.041 C 
BRANCH  18  20
ATOM     20  O3  <0> d          -1.252  -0.309   1.317  0.00  0.00    -0.394 OA
ATOM     21  H24 <0> d          -1.484  -0.150   2.242  0.00  0.00     0.210 HD
ENDBRANCH  18  20
ENDBRANCH  17  18
ENDBRANCH   1  17
BRANCH   3  22
ATOM     22  O2  <0> d          -1.208  -4.987   2.163  0.00  0.00    -0.356 OA
ATOM     23  H23 <0> d          -1.206  -5.910   1.874  0.00  0.00     0.218 HD
ENDBRANCH   3  22
TORSDOF 6
