REMARK  4 active torsions:
REMARK  status: ('A' for Active; 'I' for Inactive)
REMARK    1  A    between atoms: C3_3  and  C6_8 
REMARK    2  A    between atoms: C6_8  and  N3_10 
REMARK       I    between atoms: N3_10  and  C8_11 
REMARK    3  A    between atoms: C8_11  and  C9_13 
REMARK       I    between atoms: N4_15  and  C17_23 
REMARK    4  A    between atoms: C17_23  and  C18_25 
REMARK       I    between atoms: N6_28  and  C23_31 
ROOT
ATOM      1  C9  <0> d          -2.957  -1.302  -4.401  0.00  0.00     0.106 C 
ATOM      2  C10 <0> d          -2.449  -0.042  -5.137  0.00  0.00     0.140 C 
ATOM      3  N4  <0> d          -3.003  -0.160  -6.507  0.00  0.00    -0.350 N 
ATOM      4  C11 <0> d          -4.371  -0.696  -6.306  0.00  0.00     0.136 C 
ATOM      5  C12 <0> d          -4.218  -1.727  -5.170  0.00  0.00    -0.007 C 
ATOM      6  C13 <0> d          -5.436  -1.685  -4.253  0.00  0.00     0.039 C 
ATOM      7  C14 <0> d          -6.668  -2.168  -5.024  0.00  0.00     0.233 C 
ATOM      8  N5  <0> d          -6.441  -3.535  -5.505  0.00  0.00    -0.075 N 
ATOM      9  C15 <0> d          -5.326  -3.552  -6.460  0.00  0.00     0.233 C 
ATOM     10  C16 <0> d          -4.037  -3.127  -5.749  0.00  0.00     0.039 C 
ATOM     11  C17 <0> d          -2.400   0.150  -7.671  0.00  0.00     0.224 C 
ATOM     12  O2  <0> d          -2.991  -0.003  -8.720  0.00  0.00    -0.273 OA
ATOM     13  H22 <0> d          -6.221  -4.134  -4.723  0.00  0.00     0.277 HD
ATOM     14  H39 <0> d          -7.276  -3.874  -5.960  0.00  0.00     0.277 HD
ENDROOT
BRANCH   1  15
ATOM     15  C8  <0> d          -3.300  -0.971  -2.971  0.00  0.00     0.224 C 
ATOM     16  N3  <0> d          -3.221  -1.924  -2.022  0.00  0.00    -0.353 N 
ATOM     17  H13 <0> d          -2.942  -2.823  -2.258  0.00  0.00     0.163 HD
ATOM     18  O1  <0> d          -3.648   0.152  -2.676  0.00  0.00    -0.273 OA
BRANCH  16  19
ATOM     19  C6  <0> d          -3.555  -1.603  -0.632  0.00  0.00     0.113 C 
ATOM     20  C7  <0> d          -2.327  -1.013   0.065  0.00  0.00     0.037 C 
BRANCH  19  21
ATOM     21  C3  <0> d          -3.984  -2.857   0.085  0.00  0.00    -0.006 A 
ATOM     22  C2  <0> d          -3.239  -4.176   0.190  0.00  0.00     0.160 A 
ATOM     23  C1  <0> d          -1.898  -3.985   0.903  0.00  0.00     0.041 C 
ATOM     24  N2  <0> d          -4.145  -5.009   1.000  0.00  0.00    -0.183 NA
ATOM     25  N1  <0> d          -5.137  -4.322   1.274  0.00  0.00    -0.159 NA
ATOM     26  C4  <0> d          -5.108  -3.067   0.774  0.00  0.00     0.059 A 
ATOM     27  C5  <0> d          -6.196  -2.043   0.968  0.00  0.00     0.072 C 
ENDBRANCH  19  21
ENDBRANCH  16  19
ENDBRANCH   1  15
BRANCH  11  28
ATOM     28  C18 <0> d          -0.992   0.687  -7.671  0.00  0.00     0.081 C 
ATOM     29  C22 <0> d          -0.548   0.955  -9.111  0.00  0.00     0.034 C 
ATOM     30  C21 <0> d           0.895   1.468  -9.110  0.00  0.00     0.126 C 
ATOM     31  N6  <0> d           0.981   2.637  -8.225  0.00  0.00    -0.352 N 
ATOM     32  C20 <0> d           0.496   2.514  -6.843  0.00  0.00     0.126 C 
ATOM     33  C23 <0> d           1.494   3.800  -8.671  0.00  0.00     0.215 C 
ATOM     34  C19 <0> d          -0.943   1.990  -6.870  0.00  0.00     0.034 C 
ATOM     35  O3  <0> d           1.559   4.759  -7.931  0.00  0.00    -0.274 OA
ATOM     36  C24 <0> d           1.987   3.911 -10.091  0.00  0.00     0.117 C 
ENDBRANCH  11  28
TORSDOF 4
