REMARK  6 active torsions:
REMARK  status: ('A' for Active; 'I' for Inactive)
REMARK    1  A    between atoms: C5_5  and  N4_20 
REMARK    2  A    between atoms: C7_7  and  N1_8 
REMARK       I    between atoms: N1_8  and  C8_9 
REMARK    3  A    between atoms: C8_9  and  C9_11 
REMARK    4  A    between atoms: C9_11  and  N2_13 
REMARK    5  A    between atoms: N2_13  and  C12_15 
REMARK    6  A    between atoms: C12_15  and  C14_17 
ROOT
ATOM      1  C14 <0> d           0.344   0.136   7.930  0.00  0.00     0.156 C 
ATOM      2  C15 <0> d           0.023   1.441   7.329  0.00  0.00     0.061 C 
ATOM      3  N3  <0> d          -0.224   2.447   6.865  0.00  0.00    -0.197 NA
ENDROOT
BRANCH   1   4
ATOM      4  C12 <0> d          -0.553  -0.942   7.318  0.00  0.00     0.197 C 
ATOM      5  C13 <0> d          -0.404  -2.241   8.112  0.00  0.00     0.041 C 
BRANCH   4   6
ATOM      6  N2  <0> d          -0.156  -1.174   5.922  0.00  0.00    -0.058 N 
ATOM      7  C11 <0> d           1.294  -1.400   5.856  0.00  0.00     0.271 C 
ATOM      8  H23 <0> d          -0.640  -1.984   5.565  0.00  0.00     0.281 HD
BRANCH   6   9
ATOM      9  C9  <0> d          -0.506   0.001   5.112  0.00  0.00     0.275 C 
ATOM     10  C10 <0> d          -1.994   0.313   5.282  0.00  0.00     0.050 C 
BRANCH   9  11
ATOM     11  C8  <0> d          -0.215  -0.285   3.662  0.00  0.00     0.253 C 
ATOM     12  N1  <0> d           0.041   0.731   2.813  0.00  0.00    -0.325 N 
ATOM     13  H9  <0> d           0.092   1.640   3.147  0.00  0.00     0.169 HD
ATOM     14  O1  <0> d          -0.210  -1.428   3.258  0.00  0.00    -0.271 OA
BRANCH  12  15
ATOM     15  C7  <0> d           0.231   0.473   1.451  0.00  0.00     0.043 A 
ATOM     16  C2  <0> d          -0.108   1.435   0.508  0.00  0.00    -0.035 A 
ATOM     17  C1  <0> d          -0.681   2.756   0.952  0.00  0.00     0.050 C 
ATOM     18  C3  <0> d           0.085   1.184  -0.838  0.00  0.00     0.011 A 
ATOM     19  C4  <0> d           0.610  -0.026  -1.249  0.00  0.00     0.029 A 
ATOM     20  C5  <0> d           0.946  -0.994  -0.311  0.00  0.00     0.027 A 
ATOM     21  C6  <0> d           0.754  -0.745   1.041  0.00  0.00     0.059 A 
BRANCH  20  22
ATOM     22  N4  <0> d           1.476  -2.217  -0.727  0.00  0.00    -0.399 N 
ATOM     23  H21 <0> d           1.609  -2.392  -1.672  0.00  0.00     0.156 HD
ATOM     24  H22 <0> d           1.710  -2.893  -0.072  0.00  0.00     0.156 HD
ENDBRANCH  20  22
ENDBRANCH  12  15
ENDBRANCH   9  11
ENDBRANCH   6   9
ENDBRANCH   4   6
ENDBRANCH   1   4
TORSDOF 6
