REMARK  4 active torsions:
REMARK  status: ('A' for Active; 'I' for Inactive)
REMARK    1  A    between atoms: C7_7  and  N1_8 
REMARK       I    between atoms: N1_8  and  C8_9 
REMARK    2  A    between atoms: C8_9  and  C9_11 
REMARK    3  A    between atoms: C11_13  and  N3_18 
REMARK    4  A    between atoms: N3_18  and  N4_19 
ROOT
ATOM      1  N1  <0> d          -0.055   0.024   2.405  0.00  0.00    -0.322 N 
ATOM      2  C8  <0> d          -0.230  -0.642   3.564  0.00  0.00     0.256 C 
ATOM      3  O1  <0> d          -0.263  -1.856   3.568  0.00  0.00    -0.267 OA
ATOM      4  H6  <0> d           0.040   0.989   2.409  0.00  0.00     0.169 HD
ENDROOT
BRANCH   2   5
ATOM      5  C9  <0> d          -0.383   0.108   4.832  0.00  0.00     0.039 A 
ATOM      6  C13 <0> d          -0.348   1.507   4.849  0.00  0.00     0.061 A 
ATOM      7  C12 <0> d          -0.499   2.170   6.051  0.00  0.00     0.129 A 
ATOM      8  N2  <0> d          -0.664   1.504   7.178  0.00  0.00    -0.218 NA
ATOM      9 Cl1  <0> d          -0.465   3.906   6.081  0.00  0.00    -0.062 Cl
ATOM     10  C11 <0> d          -0.698   0.181   7.211  0.00  0.00     0.140 A 
ATOM     11  C10 <0> d          -0.559  -0.562   6.044  0.00  0.00     0.068 A 
BRANCH  10  12
ATOM     12  N3  <0> d          -0.875  -0.473   8.425  0.00  0.00    -0.308 N 
ATOM     13  H9  <0> d          -0.901  -1.442   8.455  0.00  0.00     0.182 HD
BRANCH  12  14
ATOM     14  N4  <0> d          -1.012   0.250   9.576  0.00  0.00    -0.248 NA
ATOM     15  H10 <0> d          -1.132  -0.357  10.373  0.00  0.00     0.143 HD
ATOM     16  H11 <0> d          -0.227   0.870   9.709  0.00  0.00     0.143 HD
ENDBRANCH  12  14
ENDBRANCH  10  12
ENDBRANCH   2   5
BRANCH   1  17
ATOM     17  C7  <0> d          -0.009  -0.678   1.196  0.00  0.00     0.047 A 
ATOM     18  C2  <0> d           1.204  -0.865   0.545  0.00  0.00    -0.033 A 
ATOM     19  C1  <0> d           2.473  -0.312   1.141  0.00  0.00     0.050 C 
ATOM     20  C3  <0> d           1.247  -1.564  -0.645  0.00  0.00     0.028 A 
ATOM     21  C4  <0> d           0.082  -2.072  -1.193  0.00  0.00     0.012 A 
ATOM     22  C5  <0> d          -1.128  -1.882  -0.550  0.00  0.00     0.028 A 
ATOM     23 Br1  <0> d           0.145  -3.027  -2.824  0.00  0.00    -0.051 Br
ATOM     24  C6  <0> d          -1.177  -1.184   0.641  0.00  0.00    -0.033 A 
ATOM     25  C14 <0> d          -2.496  -0.977   1.340  0.00  0.00     0.050 C 
ENDBRANCH   1  17
TORSDOF 4
