REMARK  5 active torsions:
REMARK  status: ('A' for Active; 'I' for Inactive)
REMARK    1  A    between atoms: C3_4  and  C5_7 
REMARK    2  A    between atoms: C5_7  and  N3_8 
REMARK       I    between atoms: N3_8  and  C7_10 
REMARK    3  A    between atoms: C7_10  and  C8_12 
REMARK    4  A    between atoms: C8_12  and  C9_13 
REMARK    5  A    between atoms: C13_19  and  N5_29 
ROOT
ATOM      1  C9  <0> d           1.230  -0.868  -0.172  0.00  0.00     0.288 C 
ATOM      2  C10 <0> d          -0.095  -0.169  -0.057  0.00  0.00     0.249 C 
ATOM      3  O2  <0> d          -1.109  -0.831  -0.122  0.00  0.00    -0.271 OA
ATOM      4  N4  <0> d          -0.203   1.153   0.115  0.00  0.00    -0.358 N 
ATOM      5  C11 <0> d           0.953   2.043   0.171  0.00  0.00     0.150 C 
ATOM      6  C12 <0> d           2.221   1.238   0.459  0.00  0.00     0.256 C 
ATOM      7  H14 <0> d          -1.089   1.537   0.203  0.00  0.00     0.162 HD
ATOM      8  N5  <0> d           2.279   0.117  -0.500  0.00  0.00    -0.051 N 
ATOM      9  H28 <0> d           2.117   0.476  -1.448  0.00  0.00     0.281 HD
ENDROOT
BRANCH   1  10
ATOM     10  C8  <0> d           1.159  -1.910  -1.290  0.00  0.00     0.146 C 
BRANCH  10  11
ATOM     11  C7  <0> d           0.889  -1.220  -2.603  0.00  0.00     0.222 C 
ATOM     12  N3  <0> d           0.687  -1.950  -3.718  0.00  0.00    -0.352 N 
ATOM     13  C6  <0> d           0.731  -3.412  -3.655  0.00  0.00     0.152 C 
ATOM     14  O1  <0> d           0.853  -0.009  -2.656  0.00  0.00    -0.273 OA
BRANCH  12  15
ATOM     15  C5  <0> d           0.424  -1.279  -4.994  0.00  0.00     0.166 C 
BRANCH  15  16
ATOM     16  C3  <0> d           1.728  -1.020  -5.703  0.00  0.00    -0.004 A 
ATOM     17  C2  <0> d           2.490   0.093  -5.587  0.00  0.00     0.122 A 
ATOM     18  N1  <0> d           3.572  -0.065  -6.378  0.00  0.00    -0.285 N 
ATOM     19  C1  <0> d           4.661   0.900  -6.551  0.00  0.00     0.179 C 
ATOM     20  N2  <0> d           3.467  -1.312  -7.008  0.00  0.00    -0.185 NA
ATOM     21  C4  <0> d           2.362  -1.883  -6.603  0.00  0.00     0.149 A 
ENDBRANCH  15  16
ENDBRANCH  12  15
ENDBRANCH  10  11
ENDBRANCH   1  10
BRANCH   8  22
ATOM     22  C13 <0> d           3.611  -0.527  -0.450  0.00  0.00     0.198 C 
ATOM     23  C21 <0> d           4.697   0.447  -0.955  0.00  0.00     0.072 C 
ATOM     24  C20 <0> d           5.922   0.143  -0.120  0.00  0.00    -0.050 A 
ATOM     25  C15 <0> d           5.555  -0.571   1.005  0.00  0.00    -0.050 A 
ATOM     26  C19 <0> d           7.253   0.467  -0.327  0.00  0.00     0.007 A 
ATOM     27  C14 <0> d           4.056  -0.801   1.003  0.00  0.00     0.072 C 
ATOM     28  C16 <0> d           6.520  -0.960   1.920  0.00  0.00     0.007 A 
ATOM     29  C17 <0> d           7.846  -0.637   1.711  0.00  0.00     0.001 A 
ATOM     30  C18 <0> d           8.213   0.078   0.586  0.00  0.00     0.001 A 
ENDBRANCH   8  22
TORSDOF 5
