REMARK  5 active torsions:
REMARK  status: ('A' for Active; 'I' for Inactive)
REMARK    1  A    between atoms: C2_2  and  O1_3 
REMARK    2  A    between atoms: O1_3  and  C3_4 
REMARK    3  A    between atoms: C5_6  and  C9_12 
REMARK    4  A    between atoms: C8_9  and  O2_10 
REMARK    5  A    between atoms: N1_13  and  O3_14 
ROOT
ATOM      1  C3  <0> d           0.777  -1.811  -1.336  0.00  0.00     0.103 A 
ATOM      2  C4  <0> d           0.244  -2.666  -0.389  0.00  0.00     0.052 A 
ATOM      3  C5  <0> d           0.354  -4.048  -0.559  0.00  0.00    -0.013 A 
ATOM      4  C6  <0> d           1.002  -4.560  -1.686  0.00  0.00     0.034 A 
ATOM      5  C7  <0> d           1.531  -3.702  -2.627  0.00  0.00     0.043 A 
ATOM      6  C8  <0> d           1.417  -2.329  -2.460  0.00  0.00     0.115 A 
ATOM      7  I1  <0> d           2.503  -4.473  -4.315  0.00  0.00    -0.042 I 
ENDROOT
BRANCH   3   8
ATOM      8  C9  <0> d          -0.212  -4.964   0.449  0.00  0.00     0.157 C 
ATOM      9  N1  <0> d          -0.109  -6.244   0.290  0.00  0.00    -0.148 NA
BRANCH   9  10
ATOM     10  O3  <0> d          -0.653  -7.123   1.257  0.00  0.00    -0.266 OA
ATOM     11  H10 <0> d          -0.527  -8.060   1.052  0.00  0.00     0.247 HD
ENDBRANCH   9  10
ENDBRANCH   3   8
BRANCH   1  12
ATOM     12  O1  <0> d           0.671  -0.465  -1.174  0.00  0.00    -0.349 OA
BRANCH  12  13
ATOM     13  C2  <0> d           0.002  -0.004   0.002  0.00  0.00     0.171 C 
ATOM     14  C1  <0> d          -0.019   1.526   0.010  0.00  0.00     0.034 C 
ENDBRANCH  12  13
ENDBRANCH   1  12
BRANCH   6  15
ATOM     15  O2  <0> d           1.935  -1.487  -3.393  0.00  0.00    -0.357 OA
ATOM     16  H8  <0> d           2.855  -1.236  -3.228  0.00  0.00     0.218 HD
ENDBRANCH   6  15
TORSDOF 5
