REMARK  5 active torsions:
REMARK  status: ('A' for Active; 'I' for Inactive)
REMARK    1  A    between atoms: C7_7  and  C13_19 
REMARK    2  A    between atoms: N1_9  and  S1_10 
REMARK    3  A    between atoms: S1_10  and  C9_13 
REMARK    4  A    between atoms: C13_19  and  C14_20 
REMARK    5  A    between atoms: C14_20  and  N3_21 
ROOT
ATOM      1  C1  <0> d          -0.540   1.187   0.124  0.00  0.00     0.001 A 
ATOM      2  C2  <0> d           0.575   1.982   0.319  0.00  0.00     0.002 A 
ATOM      3  C3  <0> d           1.825   1.411   0.424  0.00  0.00     0.031 A 
ATOM      4  C4  <0> d           1.976   0.025   0.335  0.00  0.00     0.051 A 
ATOM      5  C5  <0> d           0.852  -0.763   0.140  0.00  0.00    -0.025 A 
ATOM      6  C6  <0> d          -0.399  -0.185   0.035  0.00  0.00     0.010 A 
ATOM      7  C7  <0> d           1.284  -2.211   0.081  0.00  0.00     0.041 A 
ATOM      8  C8  <0> d           2.810  -2.166   0.267  0.00  0.00     0.151 A 
ATOM      9  N1  <0> d           3.137  -0.745   0.415  0.00  0.00    -0.271 N 
ENDROOT
BRANCH   9  10
ATOM     10  S1  <0> d           4.662  -0.141   0.643  0.00  0.00     0.266 S 
ATOM     11  O1  <0> d           5.564  -1.107   0.121  0.00  0.00    -0.200 OA
ATOM     12  O2  <0> d           4.638   1.204   0.187  0.00  0.00    -0.200 OA
BRANCH  10  13
ATOM     13  C9  <0> d           4.943  -0.079   2.382  0.00  0.00     0.096 A 
ATOM     14  C12 <0> d           5.474  -1.059   3.140  0.00  0.00     0.112 A 
ATOM     15  N2  <0> d           5.526  -0.620   4.430  0.00  0.00    -0.374 N 
ATOM     16  C11 <0> d           5.016   0.644   4.483  0.00  0.00     0.089 A 
ATOM     17  H2  <0> d           5.866  -1.124   5.185  0.00  0.00     0.164 HD
ATOM     18  C10 <0> d           4.649   1.003   3.236  0.00  0.00     0.043 A 
ENDBRANCH  10  13
ENDBRANCH   9  10
BRANCH   7  19
ATOM     19  C13 <0> d           0.927  -2.819  -1.276  0.00  0.00     0.038 C 
BRANCH  19  20
ATOM     20  C14 <0> d           1.248  -4.315  -1.264  0.00  0.00     0.230 C 
BRANCH  20  21
ATOM     21  N3  <0> d           0.793  -4.923  -2.522  0.00  0.00    -0.079 N 
ATOM     22  H16 <0> d          -0.203  -4.793  -2.618  0.00  0.00     0.274 HD
ATOM     23  H17 <0> d           1.266  -4.484  -3.298  0.00  0.00     0.274 HD
ATOM     24  H18 <0> d           1.004  -5.910  -2.514  0.00  0.00     0.274 HD
ENDBRANCH  20  21
ENDBRANCH  19  20
ENDBRANCH   7  19
TORSDOF 5
