REMARK  5 active torsions:
REMARK  status: ('A' for Active; 'I' for Inactive)
REMARK    1  A    between atoms: C7_7  and  C8_8 
REMARK    2  A    between atoms: C8_8  and  C9_9 
REMARK       I    between atoms: C9_9  and  N1_11 
REMARK    3  A    between atoms: C11_13  and  C18_21 
REMARK       I    between atoms: C18_21  and  N3_23 
REMARK    4  A    between atoms: N3_23  and  C19_24 
REMARK    5  A    between atoms: C19_24  and  C20_25 
ROOT
ATOM      1  C9  <0> d          -1.553   0.371   2.921  0.00  0.00     0.224 C 
ATOM      2  O1  <0> d          -2.489   0.099   2.199  0.00  0.00    -0.273 OA
ATOM      3  N1  <0> d          -1.758   1.074   4.053  0.00  0.00    -0.350 N 
ATOM      4  C10 <0> d          -0.750   1.505   5.050  0.00  0.00     0.140 C 
ATOM      5  C11 <0> d          -1.190   2.928   5.460  0.00  0.00     0.106 C 
ATOM      6  C12 <0> d          -2.696   2.978   5.152  0.00  0.00    -0.007 C 
ATOM      7  C13 <0> d          -3.042   1.596   4.578  0.00  0.00     0.136 C 
ATOM      8  C14 <0> d          -2.988   4.060   4.118  0.00  0.00     0.039 C 
ATOM      9  C15 <0> d          -4.498   4.129   3.871  0.00  0.00     0.233 C 
ATOM     10  N2  <0> d          -5.189   4.428   5.131  0.00  0.00    -0.075 N 
ATOM     11  C16 <0> d          -4.978   3.337   6.089  0.00  0.00     0.233 C 
ATOM     12  C17 <0> d          -3.489   3.234   6.430  0.00  0.00     0.039 C 
ATOM     13  H20 <0> d          -4.825   5.287   5.516  0.00  0.00     0.277 HD
ATOM     14  H36 <0> d          -6.176   4.533   4.954  0.00  0.00     0.277 HD
ENDROOT
BRANCH   5  15
ATOM     15  C18 <0> d          -0.945   3.149   6.931  0.00  0.00     0.224 C 
ATOM     16  O2  <0> d          -1.008   2.216   7.703  0.00  0.00    -0.273 OA
ATOM     17  N3  <0> d          -0.656   4.384   7.387  0.00  0.00    -0.358 N 
ATOM     18  H25 <0> d          -0.605   5.130   6.770  0.00  0.00     0.162 HD
BRANCH  17  19
ATOM     19  C19 <0> d          -0.418   4.599   8.817  0.00  0.00     0.156 C 
BRANCH  19  20
ATOM     20  C20 <0> d          -0.113   6.078   9.066  0.00  0.00     0.166 C 
ATOM     21  O4  <0> d          -1.292   6.892   8.860  0.00  0.00    -0.347 OA
ATOM     22  C22 <0> d          -1.082   8.056   9.677  0.00  0.00     0.157 C 
ATOM     23  O3  <0> d          -0.176   7.720  10.736  0.00  0.00    -0.353 OA
ATOM     24  C23 <0> d          -0.486   9.180   8.827  0.00  0.00     0.078 C 
ATOM     25  C24 <0> d          -2.416   8.517  10.269  0.00  0.00     0.078 C 
ATOM     26  C21 <0> d           0.191   6.337  10.563  0.00  0.00     0.205 C 
ENDBRANCH  19  20
ENDBRANCH  17  19
ENDBRANCH   5  15
BRANCH   1  27
ATOM     27  C8  <0> d          -0.162  -0.075   2.554  0.00  0.00     0.142 C 
BRANCH  27  28
ATOM     28  C7  <0> d          -0.206  -0.836   1.254  0.00  0.00    -0.043 A 
ATOM     29  C2  <0> d          -0.162  -0.155   0.052  0.00  0.00    -0.055 A 
ATOM     30  C1  <0> d          -0.069   1.350   0.042  0.00  0.00     0.049 C 
ATOM     31  C3  <0> d          -0.196  -0.853  -1.141  0.00  0.00     0.007 A 
ATOM     32  C4  <0> d          -0.281  -2.232  -1.132  0.00  0.00     0.001 A 
ATOM     33  C5  <0> d          -0.330  -2.914   0.070  0.00  0.00     0.001 A 
ATOM     34  C6  <0> d          -0.294  -2.216   1.263  0.00  0.00     0.008 A 
ENDBRANCH  27  28
ENDBRANCH   1  27
TORSDOF 5
