REMARK  8 active torsions:
REMARK  status: ('A' for Active; 'I' for Inactive)
REMARK    1  A    between atoms: C2_2  and  C17_27 
REMARK    2  A    between atoms: N1_5  and  N3_9 
REMARK       I    between atoms: N3_9  and  C5_10 
REMARK    3  A    between atoms: C5_10  and  C6_12 
REMARK    4  A    between atoms: C6_12  and  N6_37 
REMARK    5  A    between atoms: C8_14  and  C9_15 
REMARK    6  A    between atoms: C8_14  and  N6_37 
REMARK    7  A    between atoms: C17_27  and  C18_28 
REMARK    8  A    between atoms: C18_28  and  C19_29 
ROOT
ATOM      1  N3  <0> d          -6.052   0.899  -0.682  0.00  0.00    -0.255 N 
ATOM      2  C5  <0> d          -4.771   0.553  -0.448  0.00  0.00     0.262 C 
ATOM      3  O3  <0> d          -4.452  -0.618  -0.429  0.00  0.00    -0.270 OA
ATOM      4  H6  <0> d          -6.307   1.835  -0.697  0.00  0.00     0.191 HD
ENDROOT
BRANCH   1   5
ATOM      5  N1  <0> d          -7.016  -0.093  -0.904  0.00  0.00    -0.167 N 
ATOM      6  C3  <0> d          -7.943  -0.464   0.002  0.00  0.00     0.275 A 
ATOM      7  C2  <0> d          -8.758  -1.552  -0.668  0.00  0.00     0.114 A 
ATOM      8  O1  <0> d          -8.093  -0.020   1.120  0.00  0.00    -0.268 OA
ATOM      9  C1  <0> d          -8.643  -2.866   0.108  0.00  0.00     0.049 C 
ATOM     10  N2  <0> d          -8.138  -1.680  -1.998  0.00  0.00    -0.323 N 
ATOM     11  C4  <0> d          -7.135  -0.785  -2.043  0.00  0.00     0.345 A 
ATOM     12  H5  <0> d          -8.404  -2.288  -2.705  0.00  0.00     0.165 HD
ATOM     13  O2  <0> d          -6.414  -0.625  -3.008  0.00  0.00    -0.245 OA
BRANCH   7  14
ATOM     14  C17 <0> d         -10.223  -1.128  -0.792  0.00  0.00     0.045 C 
BRANCH  14  15
ATOM     15  C18 <0> d         -11.021  -2.244  -1.470  0.00  0.00     0.041 C 
BRANCH  15  16
ATOM     16  C19 <0> d         -12.464  -1.826  -1.592  0.00  0.00    -0.058 A 
ATOM     17  C24 <0> d         -12.895  -1.149  -2.718  0.00  0.00     0.007 A 
ATOM     18  C23 <0> d         -14.218  -0.767  -2.830  0.00  0.00     0.001 A 
ATOM     19  C22 <0> d         -15.111  -1.060  -1.816  0.00  0.00     0.000 A 
ATOM     20  C21 <0> d         -14.680  -1.737  -0.691  0.00  0.00     0.001 A 
ATOM     21  C20 <0> d         -13.358  -2.125  -0.581  0.00  0.00     0.007 A 
ENDBRANCH  15  16
ENDBRANCH  14  15
ENDBRANCH   7  14
ENDBRANCH   1   5
BRANCH   2  22
ATOM     22  C6  <0> d          -3.733   1.619  -0.210  0.00  0.00     0.338 C 
BRANCH  22  23
ATOM     23  N6  <0> d          -2.421   0.971  -0.003  0.00  0.00    -0.060 N 
ATOM     24  C7  <0> d          -2.426   0.216   1.268  0.00  0.00     0.270 C 
ATOM     25  H27 <0> d          -2.245   0.320  -0.777  0.00  0.00     0.280 HD
BRANCH  23  26
ATOM     26  C8  <0> d          -1.352   1.991   0.019  0.00  0.00     0.313 C 
BRANCH  26  27
ATOM     27  C9  <0> d          -0.015   1.294   0.009  0.00  0.00     0.133 A 
ATOM     28  N5  <0> d           0.002  -0.004   0.002  0.00  0.00    -0.233 NA
ATOM     29  C16 <0> d           1.167  -0.699  -0.013  0.00  0.00     0.074 A 
ATOM     30  C11 <0> d           2.388   0.010  -0.021  0.00  0.00     0.061 A 
ATOM     31  C15 <0> d           1.186  -2.096  -0.021  0.00  0.00     0.032 A 
ATOM     32  C10 <0> d           2.333   1.479  -0.012  0.00  0.00     0.259 A 
ATOM     33  C12 <0> d           3.597  -0.682  -0.036  0.00  0.00     0.019 A 
ATOM     34  N4  <0> d           1.109   2.057   0.003  0.00  0.00    -0.309 N 
ATOM     35  O4  <0> d           3.349   2.150  -0.019  0.00  0.00    -0.267 OA
ATOM     36  H1  <0> d           1.034   3.024   0.008  0.00  0.00     0.170 HD
ATOM     37  C13 <0> d           3.591  -2.060  -0.044  0.00  0.00     0.001 A 
ATOM     38  C14 <0> d           2.392  -2.761  -0.037  0.00  0.00     0.002 A 
ENDBRANCH  26  27
ENDBRANCH  23  26
ENDBRANCH  22  23
ENDBRANCH   2  22
TORSDOF 8
