REMARK  3 active torsions:
REMARK  status: ('A' for Active; 'I' for Inactive)
REMARK    1  A    between atoms: C5_5  and  C8_8 
REMARK       I    between atoms: C8_8  and  N1_10 
REMARK    2  A    between atoms: N1_10  and  C9_11 
REMARK    3  A    between atoms: C10_14  and  S2_16 
ROOT
ATOM      1  C8  <0> d           0.308  -2.909  -0.016  0.00  0.00     0.257 C 
ATOM      2  O1  <0> d          -0.827  -2.473  -0.002  0.00  0.00    -0.267 OA
ATOM      3  N1  <0> d           1.355  -2.061  -0.022  0.00  0.00    -0.300 N 
ATOM      4  H8  <0> d           2.382  -2.455  -0.034  0.00  0.00     0.171 HD
ENDROOT
BRANCH   3   5
ATOM      5  C9  <0> d           1.138  -0.688  -0.013  0.00  0.00     0.197 A 
ATOM      6  S1  <0> d           2.312   0.664  -0.016  0.00  0.00    -0.017 SA
ATOM      7  C10 <0> d           1.091   1.974   0.002  0.00  0.00     0.217 A 
ATOM      8  N3  <0> d          -0.015   1.257   0.009  0.00  0.00    -0.128 NA
ATOM      9  N2  <0> d           0.002  -0.004   0.002  0.00  0.00    -0.122 NA
BRANCH   7  10
ATOM     10  S2  <0> d           1.307   3.723   0.009  0.00  0.00     0.197 S 
ATOM     11  O2  <0> d           2.571   3.935  -0.605  0.00  0.00    -0.221 OA
ATOM     12  O3  <0> d           0.120   4.237  -0.580  0.00  0.00    -0.221 OA
ATOM     13  C11 <0> d           1.381   4.177   1.764  0.00  0.00     0.169 C 
ENDBRANCH   7  10
ENDBRANCH   3   5
BRANCH   1  14
ATOM     14  C5  <0> d           0.539  -4.369  -0.026  0.00  0.00     0.032 A 
ATOM     15  C4  <0> d          -0.544  -5.250  -0.020  0.00  0.00     0.017 A 
ATOM     16  C3  <0> d          -0.321  -6.611  -0.030  0.00  0.00     0.007 A 
ATOM     17  C2  <0> d           0.972  -7.104  -0.046  0.00  0.00    -0.062 A 
ATOM     18  C1  <0> d           1.207  -8.592  -0.057  0.00  0.00     0.048 C 
ATOM     19  C7  <0> d           2.049  -6.236  -0.052  0.00  0.00     0.007 A 
ATOM     20  C6  <0> d           1.841  -4.872  -0.048  0.00  0.00     0.017 A 
ENDBRANCH   1  14
TORSDOF 3
