REMARK  9 active torsions:
REMARK  status: ('A' for Active; 'I' for Inactive)
REMARK    1  A    between atoms: C2_2  and  C3_3 
REMARK    2  A    between atoms: C3_3  and  N3_37 
REMARK    3  A    between atoms: C8_9  and  N1_16 
REMARK    4  A    between atoms: C9_10  and  C10_11 
REMARK    5  A    between atoms: C10_11  and  O2_13 
REMARK    6  A    between atoms: O2_13  and  C11_14 
REMARK       I    between atoms: N1_16  and  C13_17 
REMARK    7  A    between atoms: C13_17  and  C14_19 
REMARK    8  A    between atoms: C17_22  and  S2_25 
REMARK    9  A    between atoms: S2_25  and  N2_28 
ROOT
ATOM      1  N1  <0> d           1.257  -2.000   6.363  0.00  0.00    -0.316 N 
ATOM      2  C13 <0> d           0.081  -1.813   5.732  0.00  0.00     0.256 C 
ATOM      3  O3  <0> d          -0.964  -2.010   6.321  0.00  0.00    -0.267 OA
ATOM      4  H18 <0> d           2.090  -1.843   5.893  0.00  0.00     0.169 HD
ENDROOT
BRANCH   1   5
ATOM      5  C8  <0> d           1.275  -2.417   7.684  0.00  0.00     0.094 A 
ATOM      6  S1  <0> d          -0.069  -2.760   8.723  0.00  0.00    -0.074 SA
ATOM      7  C7  <0> d           0.812  -3.214  10.189  0.00  0.00     0.018 A 
ATOM      8  C6  <0> d           2.117  -3.095   9.858  0.00  0.00    -0.023 A 
ATOM      9  C26 <0> d           0.267  -3.641  11.515  0.00  0.00     0.281 C 
ATOM     10  C5  <0> d           3.198  -3.406  10.886  0.00  0.00     0.068 C 
ATOM     11  C9  <0> d           2.376  -2.668   8.495  0.00  0.00     0.080 A 
ATOM     12  C4  <0> d           2.554  -3.392  12.275  0.00  0.00     0.240 C 
ATOM     13  N3  <0> d           1.370  -4.276  12.276  0.00  0.00    -0.066 N 
ATOM     14  H36 <0> d           1.618  -5.165  11.826  0.00  0.00     0.280 HD
BRANCH  13  15
ATOM     15  C3  <0> d           0.939  -4.543  13.665  0.00  0.00     0.234 C 
BRANCH  15  16
ATOM     16  C2  <0> d           0.663  -3.231  14.401  0.00  0.00     0.023 C 
ATOM     17  C1  <0> d           0.221  -3.533  15.834  0.00  0.00     0.007 C 
ENDBRANCH  15  16
ENDBRANCH  13  15
BRANCH  11  18
ATOM     18  C10 <0> d           3.742  -2.504   7.995  0.00  0.00     0.296 C 
ATOM     19  O1  <0> d           4.305  -1.431   8.105  0.00  0.00    -0.259 OA
BRANCH  18  20
ATOM     20  O2  <0> d           4.377  -3.542   7.413  0.00  0.00    -0.318 OA
BRANCH  20  21
ATOM     21  C11 <0> d           5.730  -3.307   6.941  0.00  0.00     0.174 C 
ATOM     22  C12 <0> d           6.282  -4.590   6.316  0.00  0.00     0.034 C 
ENDBRANCH  20  21
ENDBRANCH  18  20
ENDBRANCH  11  18
ENDBRANCH   1   5
BRANCH   2  23
ATOM     23  C14 <0> d           0.062  -1.368   4.323  0.00  0.00     0.032 A 
ATOM     24  C19 <0> d           1.259  -1.141   3.643  0.00  0.00     0.018 A 
ATOM     25  C18 <0> d           1.234  -0.730   2.326  0.00  0.00     0.026 A 
ATOM     26  C17 <0> d           0.025  -0.534   1.682  0.00  0.00     0.079 A 
ATOM     27  C16 <0> d          -1.166  -0.757   2.350  0.00  0.00     0.026 A 
ATOM     28  C15 <0> d          -1.155  -1.173   3.666  0.00  0.00     0.018 A 
BRANCH  26  29
ATOM     29  S2  <0> d           0.002  -0.004   0.002  0.00  0.00     0.260 S 
ATOM     30  O4  <0> d          -1.243  -0.424  -0.539  0.00  0.00    -0.200 OA
ATOM     31  O5  <0> d           1.248  -0.390  -0.563  0.00  0.00    -0.200 OA
BRANCH  29  32
ATOM     32  N2  <0> d          -0.020   1.652   0.011  0.00  0.00    -0.306 N 
ATOM     33  C24 <0> d           1.234   2.417   0.003  0.00  0.00     0.139 C 
ATOM     34  C23 <0> d           1.217   3.403   1.176  0.00  0.00     0.000 C 
ATOM     35  C22 <0> d          -0.046   4.264   1.096  0.00  0.00     0.007 C 
ATOM     36  C25 <0> d           2.453   4.301   1.106  0.00  0.00     0.011 C 
ATOM     37  C21 <0> d          -1.283   3.369   1.199  0.00  0.00     0.021 C 
ATOM     38  C20 <0> d          -1.295   2.383   0.021  0.00  0.00     0.135 C 
ENDBRANCH  29  32
ENDBRANCH  26  29
ENDBRANCH   2  23
TORSDOF 9
