REMARK  4 active torsions:
REMARK  status: ('A' for Active; 'I' for Inactive)
REMARK    1  A    between atoms: C2_2  and  C9_12 
REMARK    2  A    between atoms: C9_12  and  N1_13 
REMARK    3  A    between atoms: C14_18  and  C15_19 
REMARK    4  A    between atoms: C15_19  and  O3_20 
ROOT
ATOM      1  C1  <0> d          -0.350   1.626  -0.214  0.00  0.00     0.048 A 
ATOM      2  C2  <0> d           0.914   2.185  -0.169  0.00  0.00    -0.028 A 
ATOM      3  C3  <0> d           2.032   1.374  -0.203  0.00  0.00     0.035 A 
ATOM      4  C4  <0> d           1.891  -0.000  -0.282  0.00  0.00     0.070 A 
ATOM      5  C5  <0> d           0.625  -0.567  -0.329  0.00  0.00     0.123 A 
ATOM      6  C6  <0> d          -0.499   0.250  -0.293  0.00  0.00     0.104 A 
ATOM      7  O1  <0> d          -1.750  -0.286  -0.329  0.00  0.00    -0.346 OA
ATOM      8  C7  <0> d          -1.858  -1.639  -0.783  0.00  0.00     0.202 C 
ATOM      9  C8  <0> d          -0.778  -2.470  -0.077  0.00  0.00     0.202 C 
ATOM     10  O2  <0> d           0.501  -1.920  -0.412  0.00  0.00    -0.344 OA
ATOM     11 Cl1  <0> d           3.298  -1.016  -0.325  0.00  0.00    -0.081 Cl
ENDROOT
BRANCH   2  12
ATOM     12  C9  <0> d           1.072   3.681  -0.084  0.00  0.00     0.274 C 
BRANCH  12  13
ATOM     13  N1  <0> d           1.108   4.090   1.326  0.00  0.00    -0.061 N 
ATOM     14  C14 <0> d           1.367   5.533   1.409  0.00  0.00     0.211 C 
ATOM     15  C13 <0> d           1.487   5.950   2.876  0.00  0.00     0.035 C 
ATOM     16  C12 <0> d           0.179   5.622   3.602  0.00  0.00     0.004 C 
ATOM     17  C11 <0> d          -0.120   4.129   3.446  0.00  0.00     0.028 C 
ATOM     18  C10 <0> d          -0.180   3.779   1.958  0.00  0.00     0.236 C 
ATOM     19  H21 <0> d           1.843   3.590   1.802  0.00  0.00     0.280 HD
BRANCH  14  20
ATOM     20  C15 <0> d           2.672   5.858   0.679  0.00  0.00     0.197 C 
BRANCH  20  21
ATOM     21  O3  <0> d           3.761   5.208   1.338  0.00  0.00    -0.399 OA
ATOM     22  H20 <0> d           4.622   5.371   0.928  0.00  0.00     0.209 HD
ENDBRANCH  20  21
ENDBRANCH  14  20
ENDBRANCH  12  13
ENDBRANCH   2  12
TORSDOF 4
