REMARK  4 active torsions:
REMARK  status: ('A' for Active; 'I' for Inactive)
REMARK    1  A    between atoms: C7_7  and  N2_14 
REMARK    2  A    between atoms: N2_14  and  C12_15 
REMARK    3  A    between atoms: C15_18  and  S2_21 
REMARK    4  A    between atoms: S2_21  and  N3_24 
ROOT
ATOM      1  C1  <0> d           1.978  -0.663  -3.117  0.00  0.00     0.001 A 
ATOM      2  C2  <0> d           3.164   0.022  -2.861  0.00  0.00     0.002 A 
ATOM      3  C3  <0> d           3.738  -0.006  -1.627  0.00  0.00     0.030 A 
ATOM      4  C4  <0> d           3.130  -0.734  -0.590  0.00  0.00     0.045 A 
ATOM      5  C5  <0> d           1.925  -1.429  -0.854  0.00  0.00     0.018 A 
ATOM      6  C6  <0> d           1.361  -1.379  -2.136  0.00  0.00     0.016 A 
ATOM      7  C7  <0> d           1.328  -2.155   0.195  0.00  0.00     0.054 A 
ATOM      8  C8  <0> d           1.941  -2.164   1.455  0.00  0.00     0.002 A 
ATOM      9  C9  <0> d           3.115  -1.462   1.638  0.00  0.00     0.028 A 
ATOM     10  N1  <0> d           3.659  -0.784   0.629  0.00  0.00    -0.358 N 
ATOM     11  C10 <0> d           3.730  -1.514   3.039  0.00  0.00     0.131 C 
ATOM     12  S1  <0> d           2.329  -2.145   4.048  0.00  0.00    -0.158 SA
ATOM     13  C11 <0> d           1.388  -2.913   2.667  0.00  0.00     0.117 C 
ATOM     14  H16 <0> d           4.485  -0.301   0.791  0.00  0.00     0.166 HD
ENDROOT
BRANCH   7  15
ATOM     15  N2  <0> d           0.148  -2.852  -0.016  0.00  0.00    -0.355 N 
ATOM     16  H9  <0> d          -0.706  -2.416   0.129  0.00  0.00     0.166 HD
BRANCH  15  17
ATOM     17  C12 <0> d           0.189  -4.184  -0.438  0.00  0.00     0.032 A 
ATOM     18  C17 <0> d          -0.985  -4.920  -0.533  0.00  0.00     0.031 A 
ATOM     19  C16 <0> d          -0.942  -6.234  -0.956  0.00  0.00     0.027 A 
ATOM     20  C15 <0> d           0.270  -6.820  -1.274  0.00  0.00     0.079 A 
ATOM     21  C14 <0> d           1.441  -6.091  -1.175  0.00  0.00     0.027 A 
ATOM     22  C13 <0> d           1.404  -4.775  -0.759  0.00  0.00     0.031 A 
BRANCH  20  23
ATOM     23  S2  <0> d           0.322  -8.499  -1.807  0.00  0.00     0.256 S 
ATOM     24  O1  <0> d          -0.962  -8.796  -2.338  0.00  0.00    -0.201 OA
ATOM     25  O2  <0> d           1.513  -8.647  -2.567  0.00  0.00    -0.201 OA
BRANCH  23  26
ATOM     26  N3  <0> d           0.503  -9.437  -0.455  0.00  0.00    -0.324 N 
ATOM     27  H14 <0> d           0.558  -9.021   0.420  0.00  0.00     0.169 HD
ATOM     28  H15 <0> d           0.553 -10.402  -0.537  0.00  0.00     0.169 HD
ENDBRANCH  23  26
ENDBRANCH  20  23
ENDBRANCH  15  17
ENDBRANCH   7  15
TORSDOF 4
