REMARK  3 active torsions:
REMARK  status: ('A' for Active; 'I' for Inactive)
REMARK    1  A    between atoms: N1_6  and  C7_8 
REMARK    2  A    between atoms: C7_8  and  C8_9 
REMARK    3  A    between atoms: C10_13  and  N4_14 
ROOT
ATOM      1  C8  <0> d           1.321  -3.966   2.518  0.00  0.00     0.032 A 
ATOM      2  C9  <0> d           0.394  -4.706   3.257  0.00  0.00     0.151 A 
ATOM      3  N2  <0> d           0.627  -5.978   3.054  0.00  0.00    -0.183 NA
ATOM      4  N3  <0> d           1.713  -6.093   2.177  0.00  0.00    -0.259 N 
ATOM      5  C10 <0> d           2.123  -4.845   1.855  0.00  0.00     0.126 A 
ATOM      6  C11 <0> d           2.299  -7.345   1.690  0.00  0.00     0.181 C 
ENDROOT
BRANCH   1   7
ATOM      7  C7  <0> d           1.413  -2.463   2.461  0.00  0.00     0.278 C 
BRANCH   7   8
ATOM      8  N1  <0> d           0.768  -1.979   1.233  0.00  0.00    -0.067 N 
ATOM      9  C5  <0> d           1.518  -2.460   0.066  0.00  0.00     0.235 C 
ATOM     10  C4  <0> d           0.805  -2.027  -1.217  0.00  0.00     0.028 C 
ATOM     11  C3  <0> d           0.721  -0.499  -1.257  0.00  0.00     0.007 C 
ATOM     12  C2  <0> d           0.002  -0.004   0.002  0.00  0.00     0.007 C 
ATOM     13  C1  <0> d          -0.019   1.526   0.010  0.00  0.00     0.011 C 
ATOM     14  C6  <0> d           0.744  -0.512   1.240  0.00  0.00     0.239 C 
ATOM     15  H21 <0> d          -0.177  -2.330   1.192  0.00  0.00     0.280 HD
ENDBRANCH   7   8
ENDBRANCH   1   7
BRANCH   5  16
ATOM     16  N4  <0> d           3.174  -4.518   1.004  0.00  0.00    -0.384 N 
ATOM     17  H16 <0> d           3.393  -3.588   0.838  0.00  0.00     0.157 HD
ATOM     18  H17 <0> d           3.689  -5.221   0.577  0.00  0.00     0.157 HD
ENDBRANCH   5  16
TORSDOF 3
