REMARK  3 active torsions:
REMARK  status: ('A' for Active; 'I' for Inactive)
REMARK    1  A    between atoms: C2_2  and  N1_3 
REMARK       I    between atoms: N1_3  and  C3_4 
REMARK    2  A    between atoms: C3_4  and  C4_6 
REMARK    3  A    between atoms: N4_20  and  C16_23 
ROOT
ATOM      1  C4  <0> d           0.596  -2.132  -1.030  0.00  0.00     0.076 A 
ATOM      2  C5  <0> d           0.116  -2.848   0.058  0.00  0.00     0.042 A 
ATOM      3  C6  <0> d           0.149  -4.250   0.028  0.00  0.00     0.080 A 
ATOM      4  C7  <0> d           0.675  -4.936  -1.090  0.00  0.00     0.149 A 
ATOM      5  N2  <0> d           0.697  -6.263  -1.085  0.00  0.00    -0.212 NA
ATOM      6  C8  <0> d           0.236  -6.967  -0.051  0.00  0.00     0.139 A 
ATOM      7  C9  <0> d           0.287  -8.372  -0.107  0.00  0.00     0.052 A 
ATOM      8  C10 <0> d          -0.180  -9.104   0.944  0.00  0.00     0.012 A 
ATOM      9  C11 <0> d          -0.706  -8.447   2.065  0.00  0.00    -0.046 A 
ATOM     10  C12 <0> d          -0.748  -7.096   2.101  0.00  0.00     0.108 A 
ATOM     11  N3  <0> d          -0.283  -6.356   1.056  0.00  0.00    -0.272 N 
ATOM     12  C13 <0> d          -0.340  -5.007   1.125  0.00  0.00     0.267 A 
ATOM     13  O2  <0> d          -0.800  -4.454   2.107  0.00  0.00    -0.267 OA
ATOM     14  C14 <0> d          -1.225  -9.248   3.232  0.00  0.00     0.049 C 
ATOM     15  N4  <0> d           1.159  -4.242  -2.171  0.00  0.00    -0.317 N 
ATOM     16  C15 <0> d           1.140  -2.864  -2.184  0.00  0.00     0.118 A 
ATOM     17  N5  <0> d           1.603  -2.210  -3.219  0.00  0.00    -0.384 N 
ATOM     18  H14 <0> d           2.009  -2.760  -4.081  0.00  0.00     0.157 HD
ATOM     19  H20 <0> d           1.586  -1.110  -3.228  0.00  0.00     0.157 HD
ENDROOT
BRANCH   1  20
ATOM     20  C3  <0> d           0.567  -0.665  -1.026  0.00  0.00     0.255 C 
ATOM     21  N1  <0> d          -0.032  -0.005  -0.015  0.00  0.00    -0.357 N 
ATOM     22  H6  <0> d          -0.499  -0.567   0.808  0.00  0.00     0.162 HD
ATOM     23  O1  <0> d           1.084  -0.043  -1.936  0.00  0.00    -0.268 OA
BRANCH  21  24
ATOM     24  C2  <0> d          -0.060   1.459  -0.011  0.00  0.00     0.118 C 
ATOM     25  C1  <0> d          -0.794   1.952   1.238  0.00  0.00     0.026 C 
ENDBRANCH  21  24
ENDBRANCH   1  20
BRANCH  15  26
ATOM     26  C16 <0> d           1.700  -4.972  -3.320  0.00  0.00     0.128 C 
ATOM     27  C17 <0> d           3.199  -5.202  -3.119  0.00  0.00     0.027 C 
ENDBRANCH  15  26
TORSDOF 3
