REMARK  6 active torsions:
REMARK  status: ('A' for Active; 'I' for Inactive)
REMARK    1  A    between atoms: C2_2  and  C3_3 
REMARK    2  A    between atoms: N2_9  and  C7_12 
REMARK    3  A    between atoms: C7_12  and  C8_13 
REMARK    4  A    between atoms: C8_13  and  O3_14 
REMARK    5  A    between atoms: N3_16  and  N4_17 
REMARK       I    between atoms: N4_17  and  C10_18 
REMARK    6  A    between atoms: C10_18  and  C11_20 
ROOT
ATOM      1  C3  <0> d          -1.034   6.077  -1.980  0.00  0.00     0.124 A 
ATOM      2  C4  <0> d          -1.021   7.508  -2.332  0.00  0.00     0.265 A 
ATOM      3  O1  <0> d          -1.530   7.902  -3.364  0.00  0.00    -0.267 OA
ATOM      4  N1  <0> d          -0.429   8.369  -1.478  0.00  0.00    -0.299 N 
ATOM      5  C5  <0> d           0.137   7.948  -0.338  0.00  0.00     0.183 A 
ATOM      6  S1  <0> d           0.866   9.112   0.683  0.00  0.00    -0.040 SA
ATOM      7  N2  <0> d           0.162   6.663   0.045  0.00  0.00    -0.288 N 
ATOM      8  C6  <0> d          -0.397   5.693  -0.707  0.00  0.00     0.267 A 
ATOM      9  O2  <0> d          -0.372   4.531  -0.346  0.00  0.00    -0.267 OA
ATOM     10  H4  <0> d          -0.411   9.314  -1.695  0.00  0.00     0.171 HD
ENDROOT
BRANCH   1  11
ATOM     11  C2  <0> d          -1.622   5.137  -2.804  0.00  0.00     0.043 C 
ATOM     12  C1  <0> d          -2.393   5.579  -4.021  0.00  0.00     0.071 C 
ATOM     13  N3  <0> d          -1.507   3.824  -2.520  0.00  0.00    -0.301 N 
ATOM     14  H12 <0> d          -1.081   3.542  -1.695  0.00  0.00     0.186 HD
BRANCH  13  15
ATOM     15  N4  <0> d          -2.001   2.867  -3.416  0.00  0.00    -0.270 N 
ATOM     16  C10 <0> d          -1.797   1.555  -3.181  0.00  0.00     0.240 C 
ATOM     17  O4  <0> d          -1.186   1.204  -2.195  0.00  0.00    -0.271 OA
ATOM     18  H13 <0> d          -2.490   3.148  -4.205  0.00  0.00     0.190 HD
BRANCH  16  19
ATOM     19  C11 <0> d          -2.329   0.526  -4.145  0.00  0.00     0.079 C 
ATOM     20  C16 <0> d          -1.963  -0.874  -3.649  0.00  0.00     0.014 C 
ATOM     21  C15 <0> d          -2.503  -1.919  -4.627  0.00  0.00     0.001 C 
ATOM     22  C14 <0> d          -4.025  -1.793  -4.720  0.00  0.00     0.000 C 
ATOM     23  C13 <0> d          -4.391  -0.392  -5.217  0.00  0.00     0.001 C 
ATOM     24  C12 <0> d          -3.851   0.653  -4.238  0.00  0.00     0.014 C 
ENDBRANCH  16  19
ENDBRANCH  13  15
ENDBRANCH   1  11
BRANCH   7  25
ATOM     25  C7  <0> d           0.806   6.307   1.311  0.00  0.00     0.161 C 
BRANCH  25  26
ATOM     26  C8  <0> d          -0.224   6.363   2.441  0.00  0.00     0.187 C 
BRANCH  26  27
ATOM     27  O3  <0> d          -1.220   5.361   2.228  0.00  0.00    -0.394 OA
ATOM     28  C9  <0> d          -2.236   5.328   3.232  0.00  0.00     0.201 C 
ENDBRANCH  26  27
ENDBRANCH  25  26
ENDBRANCH   7  25
TORSDOF 6
