REMARK  4 active torsions:
REMARK  status: ('A' for Active; 'I' for Inactive)
REMARK    1  A    between atoms: C3_3  and  C4_7 
REMARK       I    between atoms: C4_7  and  N3_9 
REMARK    2  A    between atoms: N3_9  and  C5_10 
REMARK    3  A    between atoms: C5_10  and  C6_11 
REMARK    4  A    between atoms: C6_11  and  O2_13 
ROOT
ATOM      1  C4  <0> d          -0.006  -0.306  -2.574  0.00  0.00     0.262 C 
ATOM      2  O1  <0> d          -0.024   0.881  -2.836  0.00  0.00    -0.267 OA
ATOM      3  N3  <0> d           0.001  -1.216  -3.568  0.00  0.00    -0.354 N 
ATOM      4  H5  <0> d           0.015  -2.163  -3.360  0.00  0.00     0.162 HD
ENDROOT
BRANCH   1   5
ATOM      5  C3  <0> d           0.006  -0.750  -1.171  0.00  0.00     0.118 A 
ATOM      6  C2  <0> d           0.002  -0.004   0.002  0.00  0.00     0.077 A 
ATOM      7  C1  <0> d          -0.018   1.503   0.010  0.00  0.00     0.074 C 
ATOM      8  N2  <0> d           0.023  -0.719   1.099  0.00  0.00    -0.146 NA
ATOM      9  N1  <0> d           0.035  -2.005   1.082  0.00  0.00    -0.110 NA
ATOM     10  S1  <0> d           0.032  -2.401  -0.490  0.00  0.00     0.042 SA
ENDBRANCH   1   5
BRANCH   3  11
ATOM     11  C5  <0> d          -0.011  -0.774  -4.965  0.00  0.00     0.154 C 
BRANCH  11  12
ATOM     12  C6  <0> d           0.001  -1.995  -5.887  0.00  0.00     0.132 C 
ATOM     13  C7  <0> d          -0.013  -1.534  -7.345  0.00  0.00     0.041 C 
BRANCH  12  14
ATOM     14  O2  <0> d           1.179  -2.765  -5.641  0.00  0.00    -0.394 OA
ATOM     15  H11 <0> d           2.003  -2.283  -5.796  0.00  0.00     0.210 HD
ENDBRANCH  12  14
ENDBRANCH  11  12
ENDBRANCH   3  11
TORSDOF 4
