REMARK  5 active torsions:
REMARK  status: ('A' for Active; 'I' for Inactive)
REMARK    1  A    between atoms: S1_2  and  N1_5 
REMARK    2  A    between atoms: N1_5  and  C2_6 
REMARK    3  A    between atoms: C7_11  and  N2_12 
REMARK    4  A    between atoms: N2_12  and  C8_13 
REMARK    5  A    between atoms: C8_13  and  C9_14 
ROOT
ATOM      1  C2  <0> d           2.113   0.014  -1.599  0.00  0.00     0.068 A 
ATOM      2  C3  <0> d           3.020  -0.002  -0.551  0.00  0.00     0.032 A 
ATOM      3  C4  <0> d           4.321   0.418  -0.756  0.00  0.00     0.002 A 
ATOM      4  C5  <0> d           4.722   0.855  -2.006  0.00  0.00     0.002 A 
ATOM      5  C6  <0> d           3.824   0.874  -3.057  0.00  0.00     0.031 A 
ATOM      6  C7  <0> d           2.518   0.450  -2.861  0.00  0.00     0.056 A 
ENDROOT
BRANCH   6   7
ATOM      7  N2  <0> d           1.609   0.463  -3.925  0.00  0.00    -0.384 N 
ATOM      8  H9  <0> d           0.695   0.170  -3.786  0.00  0.00     0.160 HD
BRANCH   7   9
ATOM      9  C8  <0> d           2.037   0.921  -5.249  0.00  0.00     0.163 C 
BRANCH   9  10
ATOM     10  C9  <0> d           0.878   0.838  -6.209  0.00  0.00     0.020 A 
ATOM     11  C14 <0> d           0.029   1.919  -6.364  0.00  0.00     0.044 A 
ATOM     12  C13 <0> d          -1.031   1.844  -7.250  0.00  0.00     0.024 A 
ATOM     13 Cl1  <0> d           0.299   3.372  -5.454  0.00  0.00    -0.084 Cl
ATOM     14  C12 <0> d          -1.250   0.685  -7.971  0.00  0.00     0.005 A 
ATOM     15  C11 <0> d          -0.407  -0.398  -7.812  0.00  0.00     0.043 A 
ATOM     16  C10 <0> d           0.658  -0.323  -6.931  0.00  0.00     0.126 A 
ATOM     17  F1  <0> d           1.483  -1.381  -6.776  0.00  0.00    -0.205 F 
ENDBRANCH   9  10
ENDBRANCH   7   9
ENDBRANCH   6   7
BRANCH   1  18
ATOM     18  N1  <0> d           0.795  -0.411  -1.394  0.00  0.00    -0.283 N 
ATOM     19  H4  <0> d           0.322  -0.884  -2.097  0.00  0.00     0.178 HD
BRANCH  18  20
ATOM     20  S1  <0> d           0.042  -0.107   0.050  0.00  0.00     0.227 S 
ATOM     21  C1  <0> d           0.038   1.701   0.201  0.00  0.00     0.186 C 
ATOM     22  O1  <0> d           0.896  -0.678   1.031  0.00  0.00    -0.206 OA
ATOM     23  O2  <0> d          -1.284  -0.587  -0.125  0.00  0.00    -0.206 OA
ENDBRANCH  18  20
ENDBRANCH   1  18
TORSDOF 5
