REMARK  3 active torsions:
REMARK  status: ('A' for Active; 'I' for Inactive)
REMARK    1  A    between atoms: C9_10  and  C11_14 
REMARK       I    between atoms: C11_14  and  N3_16 
REMARK    2  A    between atoms: N3_16  and  C12_17 
REMARK    3  A    between atoms: C13_18  and  C20_26 
REMARK       I    between atoms: C20_26  and  N4_28 
ROOT
ATOM      1  C11 <0> d           0.091  -5.228   3.424  0.00  0.00     0.281 C 
ATOM      2  O2  <0> d           0.091  -4.750   4.543  0.00  0.00    -0.265 OA
ATOM      3  N3  <0> d           0.108  -6.566   3.263  0.00  0.00    -0.315 N 
ATOM      4  H10 <0> d           0.109  -6.947   2.371  0.00  0.00     0.170 HD
ENDROOT
BRANCH   3   5
ATOM      5  C12 <0> d           0.126  -7.397   4.371  0.00  0.00     0.093 A 
ATOM      6  S1  <0> d           0.129  -6.957   5.991  0.00  0.00    -0.075 SA
ATOM      7  C15 <0> d           0.152  -8.560   6.739  0.00  0.00    -0.008 A 
ATOM      8  C14 <0> d           0.165  -9.423   5.700  0.00  0.00    -0.026 A 
ATOM      9  C16 <0> d           0.160  -8.906   8.196  0.00  0.00     0.047 C 
ATOM     10  C13 <0> d           0.150  -8.783   4.396  0.00  0.00     0.073 A 
ATOM     11  C19 <0> d           0.193 -10.928   5.922  0.00  0.00     0.041 C 
ATOM     12  C18 <0> d           0.653 -11.203   7.356  0.00  0.00     0.005 C 
ATOM     13  C17 <0> d          -0.195 -10.393   8.340  0.00  0.00     0.005 C 
BRANCH  10  14
ATOM     14  C20 <0> d           0.161  -9.570   3.159  0.00  0.00     0.254 C 
ATOM     15  O3  <0> d           1.219  -9.878   2.643  0.00  0.00    -0.268 OA
ATOM     16  N4  <0> d          -1.002  -9.952   2.594  0.00  0.00    -0.361 N 
ATOM     17  C21 <0> d          -0.991 -10.738   1.358  0.00  0.00     0.149 C 
ATOM     18  H19 <0> d          -1.845  -9.706   3.005  0.00  0.00     0.162 HD
ENDBRANCH  10  14
ENDBRANCH   3   5
BRANCH   1  19
ATOM     19  C9  <0> d           0.073  -4.343   2.245  0.00  0.00     0.195 A 
ATOM     20  C8  <0> d           0.054  -2.878   2.413  0.00  0.00     0.220 A 
ATOM     21  C6  <0> d           0.037  -2.081   1.173  0.00  0.00     0.045 A 
ATOM     22  O1  <0> d           0.052  -2.356   3.514  0.00  0.00    -0.285 OA
ATOM     23  C5  <0> d           0.040  -2.783  -0.049  0.00  0.00     0.066 A 
ATOM     24  C7  <0> d           0.023  -0.689   1.186  0.00  0.00     0.024 A 
ATOM     25  C4  <0> d           0.024  -2.063  -1.241  0.00  0.00     0.033 A 
ATOM     26  N2  <0> d           0.058  -4.156  -0.041  0.00  0.00    -0.273 N 
ATOM     27  C3  <0> d           0.006  -0.686  -1.207  0.00  0.00     0.009 A 
ATOM     28  C2  <0> d           0.002  -0.004   0.002  0.00  0.00    -0.061 A 
ATOM     29  C1  <0> d          -0.018   1.503   0.010  0.00  0.00     0.048 C 
ATOM     30  N1  <0> d           0.074  -4.852   1.033  0.00  0.00    -0.163 NA
ATOM     31  C10 <0> d           0.061  -4.859  -1.326  0.00  0.00     0.180 C 
ENDBRANCH   1  19
TORSDOF 3
