REMARK  5 active torsions:
REMARK  status: ('A' for Active; 'I' for Inactive)
REMARK       I    between atoms: N1_2  and  C3_4 
REMARK    1  A    between atoms: C3_4  and  C4_6 
REMARK    2  A    between atoms: C4_6  and  N2_7 
REMARK    3  A    between atoms: C6_9  and  N4_12 
REMARK       I    between atoms: N4_12  and  C8_13 
REMARK    4  A    between atoms: C8_13  and  C9_15 
REMARK    5  A    between atoms: C11_17  and  C12_18 
ROOT
ATOM      1  N4  <0> d           1.224  -4.514  -5.346  0.00  0.00    -0.324 N 
ATOM      2  C8  <0> d           0.755  -4.618  -6.605  0.00  0.00     0.227 C 
ATOM      3  O2  <0> d          -0.243  -4.011  -6.933  0.00  0.00    -0.273 OA
ATOM      4  H13 <0> d           2.021  -5.000  -5.083  0.00  0.00     0.169 HD
ENDROOT
BRANCH   1   5
ATOM      5  C6  <0> d           0.555  -3.702  -4.410  0.00  0.00     0.071 A 
ATOM      6  C5  <0> d           0.917  -3.509  -3.116  0.00  0.00     0.144 A 
ATOM      7  N2  <0> d           0.014  -2.659  -2.561  0.00  0.00    -0.270 N 
ATOM      8  N3  <0> d          -0.928  -2.329  -3.544  0.00  0.00    -0.182 NA
ATOM      9  C7  <0> d          -0.603  -2.947  -4.650  0.00  0.00     0.169 A 
BRANCH   7  10
ATOM     10  C4  <0> d           0.021  -2.178  -1.177  0.00  0.00     0.253 C 
BRANCH  10  11
ATOM     11  C3  <0> d           0.000  -0.672  -1.169  0.00  0.00     0.238 C 
ATOM     12  N1  <0> d           0.002  -0.004   0.002  0.00  0.00    -0.359 N 
ATOM     13  C1  <0> d          -0.018   1.461   0.010  0.00  0.00     0.152 C 
ATOM     14  C2  <0> d           0.024  -0.743   1.267  0.00  0.00     0.152 C 
ATOM     15  O1  <0> d          -0.018  -0.060  -2.216  0.00  0.00    -0.271 OA
ENDBRANCH  10  11
ENDBRANCH   7  10
ENDBRANCH   1   5
BRANCH   2  16
ATOM     16  C9  <0> d           1.471  -5.487  -7.606  0.00  0.00     0.087 A 
ATOM     17  C11 <0> d           0.888  -5.565  -9.019  0.00  0.00     0.032 A 
ATOM     18  C10 <0> d           0.760  -6.760  -8.071  0.00  0.00     0.025 A 
BRANCH  17  19
ATOM     19  C12 <0> d           1.858  -5.687 -10.166  0.00  0.00    -0.053 A 
ATOM     20  C17 <0> d           1.887  -4.718 -11.152  0.00  0.00     0.007 A 
ATOM     21  C16 <0> d           2.780  -4.828 -12.201  0.00  0.00     0.001 A 
ATOM     22  C15 <0> d           3.637  -5.910 -12.270  0.00  0.00     0.000 A 
ATOM     23  C14 <0> d           3.604  -6.881 -11.287  0.00  0.00     0.001 A 
ATOM     24  C13 <0> d           2.714  -6.770 -10.235  0.00  0.00     0.007 A 
ENDBRANCH  17  19
ENDBRANCH   2  16
TORSDOF 5
