REMARK  5 active torsions:
REMARK  status: ('A' for Active; 'I' for Inactive)
REMARK    1  A    between atoms: C5_5  and  N1_9 
REMARK       I    between atoms: N1_9  and  C8_10 
REMARK    2  A    between atoms: C8_10  and  C9_12 
REMARK    3  A    between atoms: C13_19  and  S1_24 
REMARK    4  A    between atoms: S1_24  and  C16_25 
REMARK    5  A    between atoms: C16_25  and  C17_26 
ROOT
ATOM      1  C9  <0> d           0.274  -6.351   1.011  0.00  0.00     0.107 C 
ATOM      2  C10 <0> d           1.589  -6.735   0.329  0.00  0.00     0.118 C 
ATOM      3  C11 <0> d           1.880  -8.196   0.508  0.00  0.00     0.223 C 
ATOM      4  O2  <0> d           2.663  -8.722  -0.254  0.00  0.00    -0.273 OA
ATOM      5  N2  <0> d           1.323  -8.953   1.464  0.00  0.00    -0.314 N 
ATOM      6  C12 <0> d           0.376  -8.438   2.303  0.00  0.00     0.123 C 
ATOM      7  N3  <0> d          -0.421  -9.223   2.969  0.00  0.00    -0.208 NA
ATOM      8  C13 <0> d          -1.432  -8.752   3.709  0.00  0.00     0.193 C 
ATOM      9  N4  <0> d          -1.715  -7.459   3.777  0.00  0.00    -0.187 NA
ATOM     10  C14 <0> d          -0.962  -6.549   3.174  0.00  0.00     0.258 C 
ATOM     11  O3  <0> d          -1.282  -5.378   3.230  0.00  0.00    -0.270 OA
ATOM     12  C15 <0> d           0.274  -6.939   2.425  0.00  0.00     0.163 C 
ATOM     13  H12 <0> d           1.596  -9.878   1.561  0.00  0.00     0.170 HD
ENDROOT
BRANCH   1  14
ATOM     14  C8  <0> d           0.160  -4.850   1.085  0.00  0.00     0.228 C 
ATOM     15  N1  <0> d          -0.887  -4.225   0.510  0.00  0.00    -0.327 N 
ATOM     16  H9  <0> d          -1.605  -4.744   0.116  0.00  0.00     0.169 HD
ATOM     17  O1  <0> d           1.010  -4.205   1.662  0.00  0.00    -0.273 OA
BRANCH  15  18
ATOM     18  C5  <0> d          -0.937  -2.826   0.482  0.00  0.00     0.036 A 
ATOM     19  C4  <0> d           0.237  -2.090   0.386  0.00  0.00     0.030 A 
ATOM     20  C3  <0> d           0.185  -0.710   0.358  0.00  0.00     0.011 A 
ATOM     21  C2  <0> d          -1.034  -0.061   0.425  0.00  0.00    -0.040 A 
ATOM     22  C1  <0> d          -1.087   1.445   0.395  0.00  0.00     0.050 C 
ATOM     23  C7  <0> d          -2.205  -0.791   0.526  0.00  0.00     0.042 A 
ATOM     24  C6  <0> d          -2.160  -2.173   0.550  0.00  0.00     0.053 A 
ATOM     25 Cl1  <0> d          -3.733   0.028   0.617  0.00  0.00    -0.084 Cl
ENDBRANCH  15  18
ENDBRANCH   1  14
BRANCH   8  26
ATOM     26  S1  <0> d          -2.421  -9.889   4.623  0.00  0.00    -0.085 SA
BRANCH  26  27
ATOM     27  C16 <0> d          -3.641  -8.838   5.458  0.00  0.00     0.121 C 
BRANCH  27  28
ATOM     28  C17 <0> d          -4.562  -9.697   6.286  0.00  0.00    -0.048 A 
ATOM     29  C22 <0> d          -4.246  -9.979   7.602  0.00  0.00     0.011 A 
ATOM     30  C21 <0> d          -5.092 -10.763   8.363  0.00  0.00     0.043 A 
ATOM     31  C20 <0> d          -6.251 -11.274   7.804  0.00  0.00     0.116 A 
ATOM     32  C19 <0> d          -6.563 -10.996   6.484  0.00  0.00     0.043 A 
ATOM     33  F1  <0> d          -7.077 -12.044   8.546  0.00  0.00    -0.206 F 
ATOM     34  C18 <0> d          -5.718 -10.207   5.726  0.00  0.00     0.011 A 
ENDBRANCH  27  28
ENDBRANCH  26  27
ENDBRANCH   8  26
TORSDOF 5
