REMARK  4 active torsions:
REMARK  status: ('A' for Active; 'I' for Inactive)
REMARK    1  A    between atoms: C6_8  and  C10_13 
REMARK       I    between atoms: C10_13  and  N2_15 
REMARK    2  A    between atoms: N2_15  and  C11_16 
REMARK    3  A    between atoms: C15_20  and  C17_22 
REMARK    4  A    between atoms: C17_22  and  N3_23 
ROOT
ATOM      1  C10 <0> d           0.090  -5.884   1.395  0.00  0.00     0.256 C 
ATOM      2  O3  <0> d           0.103  -5.897   2.610  0.00  0.00    -0.267 OA
ATOM      3  N2  <0> d           0.101  -7.044   0.709  0.00  0.00    -0.323 N 
ATOM      4  H7  <0> d           0.023  -7.037  -0.258  0.00  0.00     0.169 HD
ENDROOT
BRANCH   1   5
ATOM      5  C6  <0> d           0.062  -4.595   0.668  0.00  0.00     0.033 A 
ATOM      6  C5  <0> d           0.047  -4.583  -0.726  0.00  0.00     0.018 A 
ATOM      7  C4  <0> d           0.020  -3.381  -1.414  0.00  0.00     0.019 A 
ATOM      8  C3  <0> d           0.009  -2.185  -0.714  0.00  0.00     0.048 A 
ATOM      9  C2  <0> d          -0.019  -0.759  -1.112  0.00  0.00     0.261 A 
ATOM     10  C8  <0> d           0.024  -2.191   0.696  0.00  0.00     0.049 A 
ATOM     11  N1  <0> d          -0.020  -0.004   0.002  0.00  0.00    -0.284 N 
ATOM     12  O1  <0> d          -0.038  -0.341  -2.252  0.00  0.00    -0.267 OA
ATOM     13  C1  <0> d          -0.043   1.460   0.009  0.00  0.00     0.163 C 
ATOM     14  C9  <0> d           0.010  -0.771   1.107  0.00  0.00     0.261 A 
ATOM     15  O2  <0> d           0.021  -0.364   2.251  0.00  0.00    -0.267 OA
ATOM     16  C7  <0> d           0.050  -3.393   1.382  0.00  0.00     0.035 A 
ENDBRANCH   1   5
BRANCH   3  17
ATOM     17  C11 <0> d           0.226  -8.258   1.391  0.00  0.00     0.035 A 
ATOM     18  C16 <0> d           0.934  -9.308   0.820  0.00  0.00     0.038 A 
ATOM     19  C15 <0> d           1.060 -10.504   1.499  0.00  0.00    -0.038 A 
ATOM     20  C14 <0> d           0.472 -10.661   2.740  0.00  0.00     0.009 A 
ATOM     21  C13 <0> d          -0.238  -9.620   3.309  0.00  0.00     0.003 A 
ATOM     22  C12 <0> d          -0.363  -8.420   2.639  0.00  0.00     0.029 A 
BRANCH  19  23
ATOM     23  C17 <0> d           1.834 -11.641   0.883  0.00  0.00     0.167 C 
BRANCH  23  24
ATOM     24  N3  <0> d           0.931 -12.468   0.079  0.00  0.00    -0.346 N 
ATOM     25  C20 <0> d           0.648 -12.304  -1.231  0.00  0.00     0.209 A 
ATOM     26  N4  <0> d          -0.194 -13.232  -1.597  0.00  0.00    -0.255 NA
ATOM     27  C19 <0> d          -0.482 -14.008  -0.541  0.00  0.00     0.135 A 
ATOM     28  C18 <0> d           0.212 -13.547   0.517  0.00  0.00     0.111 A 
ENDBRANCH  23  24
ENDBRANCH  19  23
ENDBRANCH   3  17
TORSDOF 4
