REMARK  7 active torsions:
REMARK  status: ('A' for Active; 'I' for Inactive)
REMARK    1  A    between atoms: C3_3  and  S2_6 
REMARK    2  A    between atoms: S2_6  and  C5_9 
REMARK    3  A    between atoms: C7_12  and  S3_16 
REMARK    4  A    between atoms: C8_14  and  N3_15 
REMARK    5  A    between atoms: S3_16  and  C9_17 
REMARK    6  A    between atoms: C9_17  and  C10_18 
REMARK       I    between atoms: C10_18  and  N4_20 
REMARK    7  A    between atoms: N4_20  and  C11_21 
ROOT
ATOM      1  C5  <0> d          -2.879   4.550   1.755  0.00  0.00     0.127 A 
ATOM      2  C6  <0> d          -2.718   5.816   2.285  0.00  0.00     0.147 A 
ATOM      3  N1  <0> d          -3.030   6.032   3.554  0.00  0.00    -0.234 NA
ATOM      4  C7  <0> d          -3.484   5.050   4.321  0.00  0.00     0.190 A 
ATOM      5  N2  <0> d          -3.647   3.821   3.852  0.00  0.00    -0.204 NA
ATOM      6  C8  <0> d          -3.358   3.536   2.586  0.00  0.00     0.147 A 
ENDROOT
BRANCH   4   7
ATOM      7  S3  <0> d          -3.879   5.386   6.004  0.00  0.00    -0.081 SA
BRANCH   7   8
ATOM      8  C9  <0> d          -3.474   7.149   6.076  0.00  0.00     0.185 C 
BRANCH   8   9
ATOM      9  C10 <0> d          -3.741   7.670   7.464  0.00  0.00     0.232 C 
ATOM     10  O3  <0> d          -4.164   6.923   8.322  0.00  0.00    -0.272 OA
ATOM     11  N4  <0> d          -3.511   8.966   7.754  0.00  0.00    -0.324 N 
ATOM     12  H9  <0> d          -3.113   9.549   7.088  0.00  0.00     0.169 HD
BRANCH  11  13
ATOM     13  C11 <0> d          -3.846   9.472   9.016  0.00  0.00     0.076 A 
ATOM     14  C16 <0> d          -4.309  10.777   9.143  0.00  0.00     0.143 A 
ATOM     15  C15 <0> d          -4.640  11.274  10.390  0.00  0.00     0.047 A 
ATOM     16  F1  <0> d          -4.436  11.559   8.048  0.00  0.00    -0.204 F 
ATOM     17  C14 <0> d          -4.511  10.475  11.511  0.00  0.00     0.045 A 
ATOM     18  C13 <0> d          -4.050   9.174  11.388  0.00  0.00     0.118 A 
ATOM     19  C12 <0> d          -3.723   8.670  10.142  0.00  0.00     0.074 A 
ATOM     20  F2  <0> d          -3.925   8.396  12.485  0.00  0.00    -0.206 F 
ENDBRANCH  11  13
ENDBRANCH   8   9
ENDBRANCH   7   8
ENDBRANCH   4   7
BRANCH   6  21
ATOM     21  N3  <0> d          -3.530   2.250   2.099  0.00  0.00    -0.383 N 
ATOM     22  H5  <0> d          -3.316   2.050   1.174  0.00  0.00     0.157 HD
ATOM     23  H6  <0> d          -3.863   1.551   2.683  0.00  0.00     0.157 HD
ENDBRANCH   6  21
BRANCH   1  24
ATOM     24  S2  <0> d          -2.481   4.222   0.070  0.00  0.00     0.218 S 
ATOM     25  O1  <0> d          -2.003   5.442  -0.479  0.00  0.00    -0.216 OA
ATOM     26  O2  <0> d          -3.588   3.521  -0.479  0.00  0.00    -0.216 OA
BRANCH  24  27
ATOM     27  C3  <0> d          -1.122   3.100   0.065  0.00  0.00     0.104 A 
ATOM     28  C2  <0> d          -1.134   1.745   0.056  0.00  0.00     0.032 A 
ATOM     29  C1  <0> d           0.069   1.064   0.057  0.00  0.00     0.009 A 
ATOM     30  C4  <0> d           1.225   1.772   0.056  0.00  0.00     0.051 A 
ATOM     31  S1  <0> d           0.628   3.454   0.061  0.00  0.00    -0.090 SA
ENDBRANCH  24  27
ENDBRANCH   1  24
TORSDOF 7
