REMARK  5 active torsions:
REMARK  status: ('A' for Active; 'I' for Inactive)
REMARK    1  A    between atoms: C2_2  and  C5_5 
REMARK    2  A    between atoms: C11_12  and  N2_17 
REMARK    3  A    between atoms: C12_13  and  C13_14 
REMARK       I    between atoms: C13_14  and  N1_16 
REMARK       I    between atoms: N2_17  and  C14_18 
REMARK    4  A    between atoms: C14_18  and  C15_20 
REMARK    5  A    between atoms: C16_21  and  N5_25 
ROOT
ATOM      1  C5  <0> d           0.718  -0.497  -1.257  0.00  0.00    -0.002 C 
ATOM      2  C6  <0> d          -0.014   0.016  -2.500  0.00  0.00     0.010 C 
ATOM      3  C7  <0> d           0.558  -0.659  -3.745  0.00  0.00     0.036 C 
ATOM      4  C8  <0> d           2.076  -0.490  -3.755  0.00  0.00    -0.051 C 
ATOM      5  C9  <0> d           2.738  -0.191  -2.643  0.00  0.00    -0.016 C 
ATOM      6  C10 <0> d           2.155   0.039  -1.276  0.00  0.00     0.051 C 
ATOM      7  S1  <0> d           4.466  -0.132  -3.057  0.00  0.00    -0.107 SA
ATOM      8  C11 <0> d           4.370  -0.912  -4.723  0.00  0.00     0.168 C 
ATOM      9  C12 <0> d           2.876  -0.637  -5.024  0.00  0.00     0.140 C 
ENDROOT
BRANCH   8  10
ATOM     10  N2  <0> d           4.652  -2.348  -4.663  0.00  0.00    -0.344 N 
ATOM     11  C14 <0> d           5.827  -2.824  -5.121  0.00  0.00     0.251 C 
ATOM     12  O2  <0> d           6.650  -2.063  -5.585  0.00  0.00    -0.271 OA
ATOM     13  H22 <0> d           3.994  -2.957  -4.292  0.00  0.00     0.163 HD
BRANCH  11  14
ATOM     14  C15 <0> d           6.117  -4.301  -5.059  0.00  0.00     0.280 A 
ATOM     15  N4  <0> d           7.248  -4.647  -5.937  0.00  0.00    -0.172 NA
ATOM     16  N3  <0> d           8.147  -5.108  -5.224  0.00  0.00    -0.164 NA
ATOM     17  C17 <0> d           7.848  -5.163  -3.907  0.00  0.00     0.174 A 
ATOM     18  C16 <0> d           6.620  -4.692  -3.680  0.00  0.00     0.135 A 
BRANCH  18  19
ATOM     19  N5  <0> d           5.912  -4.576  -2.385  0.00  0.00    -0.116 N 
ATOM     20  O3  <0> d           6.454  -4.935  -1.366  0.00  0.00    -0.532 OA
ATOM     21  O4  <0> d           4.792  -4.123  -2.347  0.00  0.00    -0.532 OA
ENDBRANCH  18  19
ENDBRANCH  11  14
ENDBRANCH   8  10
BRANCH   9  22
ATOM     22  C13 <0> d           2.761   0.631  -5.830  0.00  0.00     0.226 C 
ATOM     23  O1  <0> d           2.096   1.556  -5.413  0.00  0.00    -0.273 OA
ATOM     24  N1  <0> d           3.395   0.737  -7.014  0.00  0.00    -0.369 N 
ATOM     25  H20 <0> d           3.926  -0.003  -7.348  0.00  0.00     0.159 HD
ATOM     26  H21 <0> d           3.321   1.554  -7.533  0.00  0.00     0.159 HD
ENDBRANCH   9  22
BRANCH   1  27
ATOM     27  C2  <0> d           0.002  -0.004   0.002  0.00  0.00    -0.047 C 
ATOM     28  C1  <0> d          -0.019   1.526   0.010  0.00  0.00     0.015 C 
ATOM     29  C3  <0> d           0.742  -0.511   1.242  0.00  0.00     0.015 C 
ATOM     30  C4  <0> d          -1.433  -0.534   0.013  0.00  0.00     0.015 C 
ENDBRANCH   1  27
TORSDOF 5
