REMARK  4 active torsions:
REMARK  status: ('A' for Active; 'I' for Inactive)
REMARK    1  A    between atoms: N1_6  and  C7_8 
REMARK    2  A    between atoms: C7_8  and  C9_10 
REMARK    3  A    between atoms: C9_10  and  N2_11 
REMARK       I    between atoms: N2_11  and  C10_12 
REMARK       I    between atoms: C10_12  and  N3_14 
REMARK    4  A    between atoms: C13_17  and  C16_20 
ROOT
ATOM      1  N2  <0> d           3.065  -0.566   2.182  0.00  0.00    -0.341 N 
ATOM      2  C10 <0> d           4.245   0.042   1.946  0.00  0.00     0.318 C 
ATOM      3  O1  <0> d           5.264  -0.617   1.873  0.00  0.00    -0.247 OA
ATOM      4  N3  <0> d           4.295   1.380   1.790  0.00  0.00    -0.331 N 
ATOM      5  C11 <0> d           5.547   2.062   1.420  0.00  0.00     0.132 C 
ATOM      6  C12 <0> d           5.332   2.741   0.066  0.00  0.00     0.059 C 
ATOM      7  C13 <0> d           4.021   3.470   0.048  0.00  0.00    -0.046 C 
ATOM      8  C14 <0> d           3.034   3.239   0.882  0.00  0.00     0.001 C 
ATOM      9  C15 <0> d           3.101   2.216   1.976  0.00  0.00     0.155 C 
ATOM     10  H20 <0> d           2.264  -0.035   2.310  0.00  0.00     0.164 HD
ENDROOT
BRANCH   1  11
ATOM     11  C9  <0> d           2.994  -2.028   2.244  0.00  0.00     0.157 C 
BRANCH  11  12
ATOM     12  C7  <0> d           1.534  -2.461   2.393  0.00  0.00     0.202 C 
ATOM     13  C8  <0> d           1.446  -3.987   2.329  0.00  0.00     0.042 C 
BRANCH  12  14
ATOM     14  N1  <0> d           0.736  -1.878   1.306  0.00  0.00    -0.065 N 
ATOM     15  C5  <0> d           1.208  -2.404   0.019  0.00  0.00     0.235 C 
ATOM     16  C4  <0> d           0.435  -1.739  -1.122  0.00  0.00     0.028 C 
ATOM     17  C3  <0> d          -1.058  -2.039  -0.963  0.00  0.00     0.007 C 
ATOM     18  C2  <0> d          -1.522  -1.553   0.413  0.00  0.00     0.007 C 
ATOM     19  C1  <0> d          -2.995  -1.918   0.614  0.00  0.00     0.011 C 
ATOM     20  C6  <0> d          -0.677  -2.224   1.498  0.00  0.00     0.239 C 
ATOM     21  H32 <0> d           0.840  -0.874   1.316  0.00  0.00     0.280 HD
ENDBRANCH  12  14
ENDBRANCH  11  12
ENDBRANCH   1  11
BRANCH   7  22
ATOM     22  C16 <0> d           3.829   4.516  -0.975  0.00  0.00    -0.001 A 
ATOM     23  C19 <0> d           3.010   4.415  -2.194  0.00  0.00     0.022 A 
ATOM     24  C18 <0> d           3.131   5.653  -2.851  0.00  0.00     0.138 A 
ATOM     25  C20 <0> d           2.216   3.414  -2.753  0.00  0.00     0.017 A 
ATOM     26  N4  <0> d           3.966   6.438  -2.091  0.00  0.00    -0.349 N 
ATOM     27  N5  <0> d           2.489   5.858  -3.994  0.00  0.00    -0.242 NA
ATOM     28  C17 <0> d           4.376   5.758  -0.980  0.00  0.00     0.102 A 
ATOM     29  H3  <0> d           4.226   7.346  -2.312  0.00  0.00     0.167 HD
ATOM     30  C22 <0> d           1.740   4.925  -4.543  0.00  0.00     0.119 A 
ATOM     31  C21 <0> d           1.575   3.684  -3.949  0.00  0.00     0.020 A 
ENDBRANCH   7  22
TORSDOF 4
