REMARK  1 active torsions:
REMARK  status: ('A' for Active; 'I' for Inactive)
REMARK    1  A    between atoms: N2_8  and  C8_10 
ROOT
ATOM      1  C1  <0> d           0.312   1.637   0.098  0.00  0.00     0.013 C 
ATOM      2  C2  <0> d           0.161   0.115   0.067  0.00  0.00     0.035 C 
ATOM      3  C3  <0> d          -1.323  -0.250   0.129  0.00  0.00     0.238 C 
ATOM      4  N1  <0> d          -1.654  -1.155  -0.980  0.00  0.00    -0.075 N 
ATOM      5  C4  <0> d          -1.171  -2.507  -0.673  0.00  0.00     0.234 C 
ATOM      6  C5  <0> d           0.342  -2.572  -0.886  0.00  0.00     0.057 C 
ATOM      7  C6  <0> d           1.041  -2.770   0.460  0.00  0.00     0.275 C 
ATOM      8  N2  <0> d           0.438  -1.880   1.460  0.00  0.00     0.099 N 
ATOM      9  C7  <0> d           0.887  -0.494   1.268  0.00  0.00     0.279 C 
ATOM     10  H7  <0> d          -2.655  -1.177  -1.108  0.00  0.00     0.277 HD
ATOM     11  H25 <0> d          -1.214  -0.825  -1.825  0.00  0.00     0.277 HD
ENDROOT
BRANCH   8  12
ATOM     12  C8  <0> d           0.731  -2.344   2.823  0.00  0.00     0.170 C 
ATOM     13  C11 <0> d           0.028  -1.408   3.826  0.00  0.00     0.181 C 
ATOM     14  S1  <0> d          -0.960  -2.566   4.861  0.00  0.00     0.147 S 
ATOM     15  C10 <0> d          -0.084  -4.130   4.418  0.00  0.00     0.143 C 
ATOM     16  O1  <0> d          -0.733  -2.276   6.233  0.00  0.00    -0.228 OA
ATOM     17  O2  <0> d          -2.291  -2.619   4.364  0.00  0.00    -0.228 OA
ATOM     18  C9  <0> d           0.299  -3.804   2.947  0.00  0.00     0.057 C 
ATOM     19  C12 <0> d           2.242  -2.262   3.053  0.00  0.00     0.050 C 
ENDBRANCH   8  12
TORSDOF 1
