REMARK  3 active torsions:
REMARK  status: ('A' for Active; 'I' for Inactive)
REMARK    1  A    between atoms: N1_5  and  C5_9 
REMARK    2  A    between atoms: C5_9  and  C6_10 
REMARK    3  A    between atoms: C7_13  and  C8_15 
ROOT
ATOM      1  C6  <0> d          -2.944   1.168   1.441  0.00  0.00     0.188 A 
ATOM      2  N3  <0> d          -3.581   2.037   2.176  0.00  0.00    -0.125 NA
ATOM      3  N4  <0> d          -3.817   1.529   3.334  0.00  0.00    -0.121 NA
ATOM      4  C7  <0> d          -3.327   0.312   3.381  0.00  0.00     0.202 A 
ATOM      5  O3  <0> d          -2.764   0.062   2.182  0.00  0.00    -0.271 OA
ENDROOT
BRANCH   1   6
ATOM      6  C5  <0> d          -2.487   1.371   0.020  0.00  0.00     0.225 C 
BRANCH   6   7
ATOM      7  N1  <0> d          -1.137   1.940   0.018  0.00  0.00    -0.260 N 
ATOM      8  C3  <0> d          -0.871   3.261   0.028  0.00  0.00     0.256 A 
ATOM      9  C2  <0> d           0.640   3.376   0.014  0.00  0.00     0.108 A 
ATOM     10  O1  <0> d          -1.675   4.169   0.040  0.00  0.00    -0.270 OA
ATOM     11  C1  <0> d           1.137   4.092   1.272  0.00  0.00     0.049 C 
ATOM     12  N2  <0> d           1.094   1.974   0.002  0.00  0.00    -0.325 N 
ATOM     13  C14 <0> d           1.116   4.106  -1.243  0.00  0.00     0.049 C 
ATOM     14  C4  <0> d          -0.014   1.211   0.009  0.00  0.00     0.326 A 
ATOM     15  H4  <0> d           2.012   1.662  -0.009  0.00  0.00     0.165 HD
ATOM     16  O2  <0> d           0.002  -0.004   0.002  0.00  0.00    -0.247 OA
ENDBRANCH   6   7
ENDBRANCH   1   6
BRANCH   4  17
ATOM     17  C8  <0> d          -3.381  -0.611   4.535  0.00  0.00     0.019 A 
ATOM     18  C13 <0> d          -4.000  -0.214   5.721  0.00  0.00     0.017 A 
ATOM     19  C12 <0> d          -4.048  -1.080   6.794  0.00  0.00     0.020 A 
ATOM     20  C11 <0> d          -3.484  -2.341   6.695  0.00  0.00     0.011 A 
ATOM     21  C10 <0> d          -2.870  -2.740   5.520  0.00  0.00     0.020 A 
ATOM     22 Br1  <0> d          -3.555  -3.523   8.169  0.00  0.00    -0.051 Br
ATOM     23  C9  <0> d          -2.819  -1.885   4.439  0.00  0.00     0.017 A 
ENDBRANCH   4  17
TORSDOF 3
