REMARK  4 active torsions:
REMARK  status: ('A' for Active; 'I' for Inactive)
REMARK    1  A    between atoms: S1_2  and  N1_5 
REMARK    2  A    between atoms: C4_8  and  N2_11 
REMARK    3  A    between atoms: N2_11  and  C7_12 
REMARK    4  A    between atoms: C12_17  and  O3_18 
ROOT
ATOM      1  N2  <0> d           2.260  -3.397  -3.953  0.00  0.00    -0.064 N 
ATOM      2  H15 <0> d           3.255  -3.541  -4.039  0.00  0.00     0.278 HD
ATOM      3  H25 <0> d           1.873  -4.091  -3.331  0.00  0.00     0.278 HD
ENDROOT
BRANCH   1   4
ATOM      4  C4  <0> d           2.004  -2.056  -3.411  0.00  0.00     0.189 C 
ATOM      5  C3  <0> d           0.507  -1.894  -3.139  0.00  0.00     0.053 C 
ATOM      6  C2  <0> d           0.239  -0.482  -2.607  0.00  0.00     0.137 C 
ATOM      7  N1  <0> d           1.094  -0.249  -1.435  0.00  0.00    -0.311 N 
ATOM      8  C6  <0> d           2.542  -0.459  -1.565  0.00  0.00     0.137 C 
ATOM      9  C5  <0> d           2.784  -1.876  -2.107  0.00  0.00     0.053 C 
BRANCH   7  10
ATOM     10  S1  <0> d           0.439   0.249   0.002  0.00  0.00     0.224 S 
ATOM     11  C1  <0> d           0.453   2.061  -0.082  0.00  0.00     0.186 C 
ATOM     12  O1  <0> d           1.352  -0.203   0.993  0.00  0.00    -0.206 OA
ATOM     13  O2  <0> d          -0.898  -0.231  -0.024  0.00  0.00    -0.206 OA
ENDBRANCH   7  10
ENDBRANCH   1   4
BRANCH   1  14
ATOM     14  C7  <0> d           1.631  -3.519  -5.275  0.00  0.00     0.214 C 
ATOM     15  C12 <0> d           1.770  -4.959  -5.775  0.00  0.00     0.148 C 
ATOM     16  C11 <0> d           1.116  -5.086  -7.152  0.00  0.00     0.034 C 
ATOM     17  C10 <0> d           1.805  -4.136  -8.134  0.00  0.00     0.003 C 
ATOM     18  C9  <0> d           1.665  -2.697  -7.634  0.00  0.00     0.002 C 
ATOM     19  C8  <0> d           2.320  -2.570  -6.257  0.00  0.00     0.036 C 
BRANCH  15  20
ATOM     20  O3  <0> d           1.127  -5.846  -4.858  0.00  0.00    -0.393 OA
ATOM     21  H24 <0> d           1.176  -6.778  -5.112  0.00  0.00     0.210 HD
ENDBRANCH  15  20
ENDBRANCH   1  14
TORSDOF 4
