REMARK  6 active torsions:
REMARK  status: ('A' for Active; 'I' for Inactive)
REMARK    1  A    between atoms: C5_5  and  N1_8 
REMARK    2  A    between atoms: N1_8  and  C8_9 
REMARK    3  A    between atoms: N2_11  and  C9_12 
REMARK    4  A    between atoms: N2_11  and  C20_26 
REMARK    5  A    between atoms: C9_12  and  C10_13 
REMARK    6  A    between atoms: C20_26  and  C21_27 
ROOT
ATOM      1  C8  <0> d          -5.006   0.981   0.354  0.00  0.00     0.174 C 
ATOM      2  S1  <0> d          -6.391   1.629   1.123  0.00  0.00    -0.041 SA
ATOM      3  N2  <0> d          -4.438   1.639  -0.676  0.00  0.00    -0.351 N 
ENDROOT
BRANCH   3   4
ATOM      4  C9  <0> d          -5.006   2.908  -1.137  0.00  0.00     0.169 C 
BRANCH   4   5
ATOM      5  C10 <0> d          -6.035   2.639  -2.205  0.00  0.00     0.029 A 
ATOM      6  C18 <0> d          -5.630   2.486  -3.549  0.00  0.00     0.253 A 
ATOM      7  N3  <0> d          -6.518   2.245  -4.529  0.00  0.00    -0.322 N 
ATOM      8  O1  <0> d          -4.447   2.575  -3.827  0.00  0.00    -0.268 OA
ATOM      9  C17 <0> d          -7.865   2.137  -4.256  0.00  0.00     0.045 A 
ATOM     10  H1  <0> d          -6.196   2.142  -5.471  0.00  0.00     0.169 HD
ATOM     11  C12 <0> d          -8.320   2.282  -2.932  0.00  0.00    -0.009 A 
ATOM     12  C16 <0> d          -8.783   1.888  -5.271  0.00  0.00     0.037 A 
ATOM     13  C11 <0> d          -7.345   2.539  -1.871  0.00  0.00     0.028 A 
ATOM     14  C13 <0> d          -9.686   2.174  -2.650  0.00  0.00     0.014 A 
ATOM     15  C14 <0> d         -10.569   1.929  -3.662  0.00  0.00     0.007 A 
ATOM     16  C15 <0> d         -10.124   1.786  -4.969  0.00  0.00    -0.060 A 
ATOM     17  C19 <0> d         -11.117   1.516  -6.070  0.00  0.00     0.048 C 
ENDBRANCH   4   5
ENDBRANCH   3   4
BRANCH   3  18
ATOM     18  C20 <0> d          -3.252   1.085  -1.334  0.00  0.00     0.157 C 
BRANCH  18  19
ATOM     19  C21 <0> d          -1.992   1.606  -0.640  0.00  0.00     0.139 C 
ATOM     20  O2  <0> d          -1.912   1.073   0.692  0.00  0.00    -0.384 OA
ATOM     21  C24 <0> d          -0.511   0.878   0.985  0.00  0.00     0.168 C 
ATOM     22  C23 <0> d           0.063   0.329  -0.347  0.00  0.00     0.029 C 
ATOM     23  C22 <0> d          -0.740   1.131  -1.401  0.00  0.00     0.035 C 
ENDBRANCH  18  19
ENDBRANCH   3  18
BRANCH   1  24
ATOM     24  N1  <0> d          -4.483  -0.187   0.778  0.00  0.00    -0.333 N 
ATOM     25  H10 <0> d          -3.748  -0.594   0.293  0.00  0.00     0.168 HD
BRANCH  24  26
ATOM     26  C5  <0> d          -5.000  -0.811   1.919  0.00  0.00     0.034 A 
ATOM     27  C4  <0> d          -5.186  -2.187   1.934  0.00  0.00     0.030 A 
ATOM     28  C3  <0> d          -5.696  -2.801   3.062  0.00  0.00     0.009 A 
ATOM     29  C2  <0> d          -6.023  -2.046   4.173  0.00  0.00    -0.062 A 
ATOM     30  C1  <0> d          -6.580  -2.719   5.401  0.00  0.00     0.048 C 
ATOM     31  C7  <0> d          -5.839  -0.676   4.161  0.00  0.00     0.009 A 
ATOM     32  C6  <0> d          -5.324  -0.057   3.039  0.00  0.00     0.030 A 
ENDBRANCH  24  26
ENDBRANCH   1  24
TORSDOF 6
