REMARK  3 active torsions:
REMARK  status: ('A' for Active; 'I' for Inactive)
REMARK    1  A    between atoms: N1_2  and  C2_3 
REMARK       I    between atoms: N1_2  and  C6_9 
REMARK    2  A    between atoms: C5_7  and  O1_8 
REMARK    3  A    between atoms: C6_9  and  C7_11 
ROOT
ATOM      1  C1  <0> d           0.757   1.332  -0.077  0.00  0.00     0.153 C 
ATOM      2  N1  <0> d           0.373  -0.081  -0.049  0.00  0.00    -0.343 N 
ATOM      3  C6  <0> d          -0.102  -0.673  -1.163  0.00  0.00     0.255 C 
ATOM      4  O2  <0> d          -0.511  -1.817  -1.117  0.00  0.00    -0.267 OA
ENDROOT
BRANCH   2   5
ATOM      5  C2  <0> d           0.505  -0.852   1.190  0.00  0.00     0.143 C 
ATOM      6  C5  <0> d           1.970  -0.841   1.674  0.00  0.00     0.168 C 
ATOM      7  C4  <0> d           1.925  -0.164   3.063  0.00  0.00     0.266 C 
ATOM      8  N2  <0> d           0.534  -0.376   3.539  0.00  0.00    -0.071 N 
ATOM      9  C3  <0> d          -0.300  -0.184   2.325  0.00  0.00     0.260 C 
ATOM     10  H8  <0> d           0.294   0.305   4.244  0.00  0.00     0.277 HD
ATOM     11  H16 <0> d           0.423  -1.312   3.899  0.00  0.00     0.277 HD
BRANCH   6  12
ATOM     12  O1  <0> d           2.466  -2.176   1.786  0.00  0.00    -0.392 OA
ATOM     13  H11 <0> d           3.383  -2.231   2.087  0.00  0.00     0.210 HD
ENDBRANCH   6  12
ENDBRANCH   2   5
BRANCH   3  14
ATOM     14  C7  <0> d          -0.124   0.069  -2.442  0.00  0.00     0.048 A 
ATOM     15  C12 <0> d          -1.264   0.043  -3.248  0.00  0.00     0.022 A 
ATOM     16  C11 <0> d          -1.280   0.742  -4.438  0.00  0.00     0.019 A 
ATOM     17  I1  <0> d          -2.950  -1.047  -2.647  0.00  0.00    -0.043 I 
ATOM     18  C10 <0> d          -0.166   1.458  -4.838  0.00  0.00     0.001 A 
ATOM     19  C9  <0> d           0.969   1.483  -4.046  0.00  0.00     0.001 A 
ATOM     20  C8  <0> d           0.997   0.793  -2.852  0.00  0.00     0.018 A 
ENDBRANCH   3  14
TORSDOF 3
