REMARK  5 active torsions:
REMARK  status: ('A' for Active; 'I' for Inactive)
REMARK    1  A    between atoms: C6_6  and  N1_8 
REMARK       I    between atoms: N1_8  and  C9_10 
REMARK    2  A    between atoms: C9_10  and  C10_12 
REMARK       I    between atoms: C10_12  and  N2_14 
REMARK    3  A    between atoms: N2_14  and  C11_15 
REMARK    4  A    between atoms: C11_15  and  C12_16 
REMARK    5  A    between atoms: C15_19  and  C18_22 
ROOT
ATOM      1  C10 <0> d          -0.180  -5.077   3.389  0.00  0.00     0.310 C 
ATOM      2  O2  <0> d          -0.091  -4.634   4.516  0.00  0.00    -0.262 OA
ATOM      3  N2  <0> d          -0.389  -6.394   3.197  0.00  0.00    -0.349 N 
ATOM      4  H12 <0> d          -0.459  -6.747   2.296  0.00  0.00     0.163 HD
ENDROOT
BRANCH   3   5
ATOM      5  C11 <0> d          -0.509  -7.292   4.348  0.00  0.00     0.161 C 
BRANCH   5   6
ATOM      6  C12 <0> d          -0.737  -8.701   3.863  0.00  0.00    -0.040 A 
ATOM      7  C17 <0> d           0.344  -9.530   3.622  0.00  0.00     0.010 A 
ATOM      8  C16 <0> d           0.142 -10.823   3.184  0.00  0.00     0.014 A 
ATOM      9  C15 <0> d          -1.156 -11.290   2.974  0.00  0.00    -0.008 A 
ATOM     10  C14 <0> d          -2.241 -10.447   3.214  0.00  0.00     0.014 A 
ATOM     11  C13 <0> d          -2.026  -9.158   3.657  0.00  0.00     0.010 A 
BRANCH   9  12
ATOM     12  C18 <0> d          -1.380 -12.673   2.499  0.00  0.00     0.061 A 
ATOM     13  N4  <0> d          -2.586 -13.258   2.254  0.00  0.00    -0.278 N 
ATOM     14  N3  <0> d          -2.345 -14.567   1.819  0.00  0.00    -0.187 NA
ATOM     15  H1  <0> d          -3.456 -12.841   2.360  0.00  0.00     0.189 HD
ATOM     16  C20 <0> d          -1.052 -14.771   1.809  0.00  0.00     0.141 A 
ATOM     17  C19 <0> d          -0.415 -13.603   2.230  0.00  0.00     0.053 A 
ENDBRANCH   9  12
ENDBRANCH   5   6
ENDBRANCH   3   5
BRANCH   1  18
ATOM     18  C9  <0> d          -0.057  -4.161   2.216  0.00  0.00     0.315 C 
ATOM     19  N1  <0> d           0.067  -2.832   2.408  0.00  0.00    -0.314 N 
ATOM     20  C8  <0> d           0.213  -2.299   3.764  0.00  0.00     0.160 C 
ATOM     21  O1  <0> d          -0.069  -4.612   1.089  0.00  0.00    -0.262 OA
BRANCH  19  22
ATOM     22  C6  <0> d           0.056  -1.964   1.313  0.00  0.00     0.037 A 
ATOM     23  C5  <0> d           0.069  -2.473   0.021  0.00  0.00     0.030 A 
ATOM     24  C4  <0> d           0.057  -1.612  -1.059  0.00  0.00     0.003 A 
ATOM     25  C3  <0> d           0.033  -0.245  -0.855  0.00  0.00     0.007 A 
ATOM     26  C2  <0> d           0.020   0.265   0.430  0.00  0.00    -0.060 A 
ATOM     27  C1  <0> d          -0.006   1.756   0.648  0.00  0.00     0.048 C 
ATOM     28  C7  <0> d           0.037  -0.590   1.514  0.00  0.00     0.036 A 
ENDBRANCH  19  22
ENDBRANCH   1  18
TORSDOF 5
