REMARK  4 active torsions:
REMARK  status: ('A' for Active; 'I' for Inactive)
REMARK    1  A    between atoms: O1_2  and  C2_3 
REMARK    2  A    between atoms: C3_4  and  C7_9 
REMARK    3  A    between atoms: C7_9  and  N2_10 
REMARK    4  A    between atoms: N2_10  and  C8_11 
ROOT
ATOM      1  C8  <0> d           1.823  -3.678   1.346  0.00  0.00     0.313 A 
ATOM      2  C9  <0> d           2.373  -3.819   2.747  0.00  0.00     0.008 A 
ATOM      3  C10 <0> d           1.873  -4.390   3.896  0.00  0.00     0.013 A 
ATOM      4  C11 <0> d           2.620  -4.367   5.060  0.00  0.00     0.020 A 
ATOM      5  C12 <0> d           3.869  -3.771   5.064  0.00  0.00     0.013 A 
ATOM      6  C13 <0> d           4.372  -3.198   3.914  0.00  0.00     0.049 A 
ATOM      7  C14 <0> d           3.624  -3.217   2.738  0.00  0.00     0.044 A 
ATOM      8  N3  <0> d           3.909  -2.714   1.468  0.00  0.00    -0.324 N 
ATOM      9  C15 <0> d           2.910  -2.941   0.593  0.00  0.00     0.257 A 
ATOM     10  O2  <0> d           2.885  -2.618  -0.576  0.00  0.00    -0.270 OA
ATOM     11 Br1  <0> d           4.891  -3.739   6.655  0.00  0.00    -0.051 Br
ATOM     12  H14 <0> d           4.732  -2.254   1.240  0.00  0.00     0.169 HD
ENDROOT
BRANCH   1  13
ATOM     13  N2  <0> d           0.582  -2.892   1.357  0.00  0.00    -0.054 N 
ATOM     14  H10 <0> d           0.779  -1.957   1.682  0.00  0.00     0.278 HD
ATOM     15  H15 <0> d          -0.087  -3.328   1.974  0.00  0.00     0.278 HD
BRANCH  13  16
ATOM     16  C7  <0> d           0.029  -2.831  -0.002  0.00  0.00     0.276 C 
BRANCH  16  17
ATOM     17  C3  <0> d          -1.244  -2.025   0.009  0.00  0.00     0.020 A 
ATOM     18  C2  <0> d          -1.198  -0.636   0.010  0.00  0.00     0.171 A 
ATOM     19  N1  <0> d          -2.313   0.075   0.025  0.00  0.00    -0.237 NA
ATOM     20  C6  <0> d          -3.501  -0.500   0.028  0.00  0.00     0.119 A 
ATOM     21  C5  <0> d          -3.622  -1.875   0.027  0.00  0.00     0.020 A 
ATOM     22  C4  <0> d          -2.475  -2.658   0.018  0.00  0.00     0.014 A 
BRANCH  18  23
ATOM     23  O1  <0> d           0.002  -0.004   0.002  0.00  0.00    -0.339 OA
ATOM     24  C1  <0> d          -0.017   1.425   0.010  0.00  0.00     0.211 C 
ENDBRANCH  18  23
ENDBRANCH  16  17
ENDBRANCH  13  16
ENDBRANCH   1  13
TORSDOF 4
