REMARK  7 active torsions:
REMARK  status: ('A' for Active; 'I' for Inactive)
REMARK    1  A    between atoms: C6_6  and  C8_8 
REMARK    2  A    between atoms: C8_8  and  C9_9 
REMARK    3  A    between atoms: C9_9  and  N1_10 
REMARK       I    between atoms: N1_10  and  C10_11 
REMARK    4  A    between atoms: C10_11  and  C11_13 
REMARK       I    between atoms: N2_15  and  C19_23 
REMARK    5  A    between atoms: C19_23  and  C20_25 
REMARK    6  A    between atoms: C24_29  and  O3_32 
REMARK    7  A    between atoms: O3_32  and  C27_33 
ROOT
ATOM      1  C11 <0> d           2.970  -5.338   6.330  0.00  0.00     0.106 C 
ATOM      2  C12 <0> d           2.385  -4.353   7.366  0.00  0.00     0.141 C 
ATOM      3  N2  <0> d           3.122  -4.644   8.618  0.00  0.00    -0.346 N 
ATOM      4  C13 <0> d           4.515  -4.892   8.176  0.00  0.00     0.136 C 
ATOM      5  C14 <0> d           4.368  -5.689   6.865  0.00  0.00    -0.007 C 
ATOM      6  C15 <0> d           4.467  -7.186   7.144  0.00  0.00     0.039 C 
ATOM      7  C16 <0> d           5.883  -7.519   7.621  0.00  0.00     0.233 C 
ATOM      8  N3  <0> d           6.853  -7.128   6.590  0.00  0.00    -0.075 N 
ATOM      9  C17 <0> d           6.816  -5.674   6.394  0.00  0.00     0.233 C 
ATOM     10  C18 <0> d           5.439  -5.263   5.866  0.00  0.00     0.039 C 
ATOM     11  C19 <0> d           2.636  -4.676   9.875  0.00  0.00     0.254 C 
ATOM     12  O2  <0> d           3.390  -4.838  10.814  0.00  0.00    -0.267 OA
ATOM     13  H22 <0> d           7.779  -7.404   6.880  0.00  0.00     0.277 HD
ATOM     14  H36 <0> d           6.624  -7.589   5.723  0.00  0.00     0.277 HD
ENDROOT
BRANCH   1  15
ATOM     15  C10 <0> d           3.075  -4.679   4.979  0.00  0.00     0.224 C 
ATOM     16  N1  <0> d           3.028  -5.426   3.859  0.00  0.00    -0.360 N 
ATOM     17  H13 <0> d           2.927  -6.389   3.922  0.00  0.00     0.162 HD
ATOM     18  O1  <0> d           3.201  -3.475   4.901  0.00  0.00    -0.273 OA
BRANCH  16  19
ATOM     19  C9  <0> d           3.130  -4.785   2.546  0.00  0.00     0.127 C 
BRANCH  19  20
ATOM     20  C8  <0> d           3.050  -5.850   1.450  0.00  0.00     0.058 C 
BRANCH  20  21
ATOM     21  C6  <0> d           3.155  -5.190   0.100  0.00  0.00    -0.056 A 
ATOM     22  C5  <0> d           4.394  -5.011  -0.487  0.00  0.00     0.007 A 
ATOM     23  C4  <0> d           4.490  -4.406  -1.727  0.00  0.00     0.001 A 
ATOM     24  C3  <0> d           3.348  -3.981  -2.379  0.00  0.00     0.007 A 
ATOM     25  C2  <0> d           2.109  -4.161  -1.792  0.00  0.00    -0.061 A 
ATOM     26  C1  <0> d           0.864  -3.698  -2.504  0.00  0.00     0.048 C 
ATOM     27  C7  <0> d           2.013  -4.761  -0.551  0.00  0.00     0.013 A 
ENDBRANCH  20  21
ENDBRANCH  19  20
ENDBRANCH  16  19
ENDBRANCH   1  15
BRANCH  11  28
ATOM     28  C20 <0> d           1.185  -4.513  10.111  0.00  0.00     0.040 A 
ATOM     29  C25 <0> d           0.558  -5.228  11.130  0.00  0.00    -0.012 A 
ATOM     30  C24 <0> d          -0.800  -5.067  11.349  0.00  0.00     0.086 A 
ATOM     31  C26 <0> d           1.355  -6.170  11.995  0.00  0.00     0.052 C 
ATOM     32  C23 <0> d          -1.535  -4.203  10.548  0.00  0.00     0.038 A 
ATOM     33  C22 <0> d          -0.915  -3.497   9.534  0.00  0.00     0.004 A 
ATOM     34  C21 <0> d           0.439  -3.646   9.311  0.00  0.00     0.018 A 
BRANCH  30  35
ATOM     35  O3  <0> d          -1.415  -5.759  12.344  0.00  0.00    -0.279 OA
BRANCH  35  36
ATOM     36  C27 <0> d          -1.416  -5.224  13.576  0.00  0.00     0.260 C 
ATOM     37  O4  <0> d          -0.964  -4.118  13.755  0.00  0.00    -0.265 OA
ATOM     38  C28 <0> d          -1.982  -6.003  14.735  0.00  0.00     0.126 C 
ENDBRANCH  35  36
ENDBRANCH  30  35
ENDBRANCH  11  28
TORSDOF 7
