REMARK  6 active torsions:
REMARK  status: ('A' for Active; 'I' for Inactive)
REMARK    1  A    between atoms: C2_2  and  C3_3 
REMARK    2  A    between atoms: C3_3  and  N1_4 
REMARK    3  A    between atoms: C6_7  and  C12_14 
REMARK    4  A    between atoms: C8_9  and  C9_11 
REMARK    5  A    between atoms: N3_16  and  S1_17 
REMARK    6  A    between atoms: S1_17  and  N4_20 
ROOT
ATOM      1  N1  <0> d          -1.131  -1.994  -0.014  0.00  0.00    -0.283 N 
ATOM      2  C4  <0> d          -1.271  -2.674  -1.212  0.00  0.00     0.150 A 
ATOM      3  C5  <0> d          -1.247  -4.079  -1.191  0.00  0.00     0.093 A 
ATOM      4  C6  <0> d          -1.387  -4.789  -2.394  0.00  0.00     0.042 A 
ATOM      5  C7  <0> d          -1.547  -4.050  -3.569  0.00  0.00     0.044 A 
ATOM      6  C8  <0> d          -1.560  -2.668  -3.501  0.00  0.00     0.042 A 
ATOM      7  N2  <0> d          -1.425  -2.029  -2.356  0.00  0.00    -0.234 NA
ATOM      8  C15 <0> d          -1.074  -4.761   0.101  0.00  0.00     0.264 A 
ATOM      9  O4  <0> d          -1.047  -5.975   0.167  0.00  0.00    -0.267 OA
ATOM     10  N5  <0> d          -0.947  -4.002   1.212  0.00  0.00    -0.274 N 
ATOM     11  H1  <0> d          -0.832  -4.433   2.073  0.00  0.00     0.173 HD
ATOM     12  C16 <0> d          -0.971  -2.662   1.141  0.00  0.00     0.331 A 
ATOM     13  O5  <0> d          -0.846  -2.024   2.168  0.00  0.00    -0.246 OA
ENDROOT
BRANCH   4  14
ATOM     14  C12 <0> d          -1.367  -6.270  -2.417  0.00  0.00     0.224 C 
ATOM     15  O1  <0> d          -2.251  -6.971  -1.671  0.00  0.00    -0.168 OA
ATOM     16  N3  <0> d          -0.500  -6.896  -3.155  0.00  0.00    -0.117 NA
BRANCH  16  17
ATOM     17  S1  <0> d          -0.477  -8.552  -3.180  0.00  0.00     0.343 S 
ATOM     18  O2  <0> d          -0.086  -8.973  -1.881  0.00  0.00    -0.180 OA
ATOM     19  O3  <0> d          -1.697  -8.966  -3.781  0.00  0.00    -0.180 OA
BRANCH  17  20
ATOM     20  N4  <0> d           0.736  -9.009  -4.211  0.00  0.00    -0.301 N 
ATOM     21  C13 <0> d           2.093  -9.215  -3.699  0.00  0.00     0.163 C 
ATOM     22  C14 <0> d           0.452  -9.207  -5.634  0.00  0.00     0.163 C 
ENDBRANCH  17  20
ENDBRANCH  16  17
ENDBRANCH   4  14
BRANCH   6  23
ATOM     23  C9  <0> d          -1.732  -1.872  -4.770  0.00  0.00     0.038 A 
ATOM     24  C11 <0> d          -0.477  -1.579  -5.595  0.00  0.00     0.011 A 
ATOM     25  C10 <0> d          -1.502  -2.599  -6.096  0.00  0.00     0.011 A 
ENDBRANCH   6  23
BRANCH   1  26
ATOM     26  C3  <0> d          -1.153  -0.529  -0.005  0.00  0.00     0.135 C 
BRANCH  26  27
ATOM     27  C2  <0> d           0.270   0.003  -0.189  0.00  0.00     0.016 C 
ATOM     28  C1  <0> d           0.247   1.532  -0.181  0.00  0.00     0.006 C 
ENDBRANCH  26  27
ENDBRANCH   1  26
TORSDOF 6
