REMARK  5 active torsions:
REMARK  status: ('A' for Active; 'I' for Inactive)
REMARK    1  A    between atoms: C3_3  and  C5_6 
REMARK    2  A    between atoms: C5_6  and  N1_7 
REMARK       I    between atoms: N1_7  and  C6_8 
REMARK    3  A    between atoms: C6_8  and  C7_10 
REMARK       I    between atoms: N2_14  and  C10_15 
REMARK    4  A    between atoms: C10_15  and  C11_17 
REMARK       I    between atoms: N3_24  and  C19_27 
REMARK    5  A    between atoms: C19_27  and  C20_29 
ROOT
ATOM      1  C7  <0> d           5.936   0.506   2.950  0.00  0.00     0.206 C 
ATOM      2  C8  <0> d           5.402  -0.742   3.697  0.00  0.00     0.206 C 
ATOM      3  O3  <0> d           6.399  -0.936   4.728  0.00  0.00    -0.358 OA
ATOM      4  C9  <0> d           7.656  -0.611   4.113  0.00  0.00     0.142 C 
ATOM      5  N2  <0> d           7.403   0.317   2.997  0.00  0.00    -0.298 N 
ATOM      6  C10 <0> d           8.319   0.878   2.182  0.00  0.00     0.280 C 
ATOM      7  O4  <0> d           9.491   0.564   2.276  0.00  0.00    -0.265 OA
ATOM      8  C15 <0> d           8.312  -1.888   3.585  0.00  0.00     0.081 C 
ATOM      9  C16 <0> d           9.636  -1.533   2.902  0.00  0.00     0.130 C 
ATOM     10  N3  <0> d          10.464  -0.769   3.845  0.00  0.00    -0.351 N 
ATOM     11  C17 <0> d           9.896   0.433   4.471  0.00  0.00     0.130 C 
ATOM     12  C18 <0> d           8.569   0.060   5.139  0.00  0.00     0.081 C 
ATOM     13  C19 <0> d          11.721  -1.163   4.131  0.00  0.00     0.224 C 
ATOM     14  O6  <0> d          12.179  -2.157   3.608  0.00  0.00    -0.273 OA
ENDROOT
BRANCH   1  15
ATOM     15  C6  <0> d           5.445   0.526   1.526  0.00  0.00     0.243 C 
ATOM     16  N1  <0> d           4.291   1.151   1.219  0.00  0.00    -0.353 N 
ATOM     17  H7  <0> d           3.777   1.589   1.915  0.00  0.00     0.162 HD
ATOM     18  O2  <0> d           6.088  -0.021   0.655  0.00  0.00    -0.271 OA
BRANCH  16  19
ATOM     19  C5  <0> d           3.814   1.171  -0.166  0.00  0.00     0.187 C 
BRANCH  19  20
ATOM     20  C3  <0> d           2.513   1.928  -0.238  0.00  0.00     0.070 A 
ATOM     21  C2  <0> d           2.383   3.249  -0.453  0.00  0.00     0.036 A 
ATOM     22  C1  <0> d           0.997   3.531  -0.443  0.00  0.00     0.027 A 
ATOM     23  C4  <0> d           0.364   2.365  -0.224  0.00  0.00     0.142 A 
ATOM     24  O1  <0> d           1.287   1.397  -0.101  0.00  0.00    -0.325 OA
ENDBRANCH  19  20
ENDBRANCH  16  19
ENDBRANCH   1  15
BRANCH   6  25
ATOM     25  C11 <0> d           7.903   1.869   1.184  0.00  0.00     0.142 A 
ATOM     26  O5  <0> d           6.668   2.396   1.056  0.00  0.00    -0.317 OA
ATOM     27  C14 <0> d           6.659   3.267   0.040  0.00  0.00     0.143 A 
ATOM     28  C13 <0> d           7.893   3.307  -0.510  0.00  0.00     0.027 A 
ATOM     29  C12 <0> d           8.697   2.414   0.216  0.00  0.00     0.045 A 
ENDBRANCH   6  25
BRANCH  13  30
ATOM     30  C20 <0> d          12.558  -0.368   5.100  0.00  0.00     0.078 A 
ATOM     31  C22 <0> d          13.976  -0.867   5.383  0.00  0.00     0.015 A 
ATOM     32  C21 <0> d          13.762   0.390   4.537  0.00  0.00     0.015 A 
ENDBRANCH  13  30
TORSDOF 5
