REMARK  5 active torsions:
REMARK  status: ('A' for Active; 'I' for Inactive)
REMARK    1  A    between atoms: N2_4  and  C4_6 
REMARK    2  A    between atoms: C7_9  and  N3_13 
REMARK       I    between atoms: N3_13  and  C10_14 
REMARK    3  A    between atoms: C10_14  and  C11_16 
REMARK    4  A    between atoms: C11_16  and  C12_17 
REMARK    5  A    between atoms: C12_17  and  N4_18 
ROOT
ATOM      1  C4  <0> d           1.762  -1.721  -0.040  0.00  0.00     0.079 A 
ATOM      2  C5  <0> d           0.864  -2.765   0.137  0.00  0.00     0.036 A 
ATOM      3  C6  <0> d           1.313  -4.070   0.131  0.00  0.00     0.032 A 
ATOM      4  C7  <0> d           2.663  -4.340  -0.051  0.00  0.00     0.036 A 
ATOM      5  C8  <0> d           3.562  -3.296  -0.228  0.00  0.00     0.055 A 
ATOM      6  C9  <0> d           3.112  -1.990  -0.228  0.00  0.00     0.065 A 
ATOM      7 Cl1  <0> d           4.233  -0.685  -0.457  0.00  0.00    -0.082 Cl
ENDROOT
BRANCH   4   8
ATOM      8  N3  <0> d           3.119  -5.664  -0.057  0.00  0.00    -0.327 N 
ATOM      9  C10 <0> d           4.341  -5.958   0.429  0.00  0.00     0.223 C 
ATOM     10  O1  <0> d           5.008  -5.093   0.958  0.00  0.00    -0.273 OA
ATOM     11  H7  <0> d           2.555  -6.369  -0.410  0.00  0.00     0.169 HD
BRANCH   9  12
ATOM     12  C11 <0> d           4.879  -7.361   0.316  0.00  0.00     0.125 C 
BRANCH  12  13
ATOM     13  C12 <0> d           6.274  -7.424   0.941  0.00  0.00     0.161 C 
BRANCH  13  14
ATOM     14  N4  <0> d           6.797  -8.788   0.831  0.00  0.00    -0.262 N 
ATOM     15  N6  <0> d           6.181  -9.965   1.286  0.00  0.00    -0.165 NA
ATOM     16  C14 <0> d           6.984 -10.952   0.985  0.00  0.00     0.256 A 
ATOM     17  N5  <0> d           8.064 -10.462   0.378  0.00  0.00    -0.234 NA
ATOM     18  C13 <0> d           7.965  -9.161   0.279  0.00  0.00     0.229 A 
ENDBRANCH  13  14
ENDBRANCH  12  13
ENDBRANCH   9  12
ENDBRANCH   4   8
BRANCH   1  19
ATOM     19  N2  <0> d           1.305  -0.395  -0.033  0.00  0.00    -0.244 N 
ATOM     20  N1  <0> d           2.094   0.750  -0.205  0.00  0.00    -0.180 NA
ATOM     21  C2  <0> d           1.314   1.799  -0.137  0.00  0.00     0.140 A 
ATOM     22  C1  <0> d           0.004   1.357   0.080  0.00  0.00     0.040 A 
ATOM     23  C3  <0> d           0.025   0.005   0.140  0.00  0.00     0.120 A 
ENDBRANCH   1  19
TORSDOF 5
