REMARK  5 active torsions:
REMARK  status: ('A' for Active; 'I' for Inactive)
REMARK    1  A    between atoms: C2_2  and  N1_3 
REMARK    2  A    between atoms: C3_4  and  C5_8 
REMARK    3  A    between atoms: C5_8  and  N4_9 
REMARK    4  A    between atoms: C8_12  and  C11_16 
REMARK    5  A    between atoms: C9_13  and  O1_15 
ROOT
ATOM      1  N4  <0> d          -2.167   0.469   3.343  0.00  0.00    -0.062 N 
ATOM      2  C6  <0> d          -1.328   1.555   2.822  0.00  0.00     0.236 C 
ATOM      3  C7  <0> d          -1.831   2.897   3.360  0.00  0.00     0.040 C 
ATOM      4  C8  <0> d          -1.762   2.885   4.889  0.00  0.00     0.058 C 
ATOM      5  C9  <0> d          -2.581   1.704   5.419  0.00  0.00     0.153 C 
ATOM      6  C10 <0> d          -2.050   0.407   4.805  0.00  0.00     0.267 C 
ATOM      7  H23 <0> d          -3.129   0.640   3.091  0.00  0.00     0.280 HD
ENDROOT
BRANCH   1   8
ATOM      8  C5  <0> d          -1.730  -0.807   2.764  0.00  0.00     0.314 C 
BRANCH   8   9
ATOM      9  C3  <0> d          -1.983  -0.798   1.278  0.00  0.00     0.149 A 
ATOM     10  N1  <0> d          -3.144  -1.107   0.674  0.00  0.00    -0.254 N 
ATOM     11  N3  <0> d          -2.920  -0.967  -0.706  0.00  0.00    -0.164 NA
ATOM     12  C4  <0> d          -1.678  -0.586  -0.851  0.00  0.00     0.257 A 
ATOM     13  N2  <0> d          -1.113  -0.487   0.352  0.00  0.00    -0.224 NA
BRANCH  10  14
ATOM     14  C2  <0> d          -4.391  -1.514   1.324  0.00  0.00     0.148 C 
ATOM     15  C1  <0> d          -4.372  -3.025   1.563  0.00  0.00     0.028 C 
ENDBRANCH  10  14
ENDBRANCH   8   9
ENDBRANCH   1   8
BRANCH   5  16
ATOM     16  O1  <0> d          -2.465   1.643   6.842  0.00  0.00    -0.393 OA
ATOM     17  H17 <0> d          -2.959   0.917   7.246  0.00  0.00     0.210 HD
ENDBRANCH   5  16
BRANCH   4  18
ATOM     18  C11 <0> d          -2.327   4.174   5.429  0.00  0.00    -0.005 A 
ATOM     19  S1  <0> d          -3.965   4.854   5.229  0.00  0.00    -0.105 SA
ATOM     20  C14 <0> d          -3.734   6.350   6.176  0.00  0.00     0.051 A 
ATOM     21  C13 <0> d          -2.442   6.236   6.569  0.00  0.00     0.015 A 
ATOM     22  C12 <0> d          -1.721   5.121   6.186  0.00  0.00    -0.048 A 
ATOM     23  C15 <0> d          -0.282   4.960   6.605  0.00  0.00     0.049 C 
ENDBRANCH   4  18
TORSDOF 5
