REMARK  7 active torsions:
REMARK  status: ('A' for Active; 'I' for Inactive)
REMARK    1  A    between atoms: C5_5  and  N1_8 
REMARK    2  A    between atoms: C9_10  and  C16_21 
REMARK    3  A    between atoms: C10_12  and  N3_13 
REMARK       I    between atoms: N3_13  and  C11_14 
REMARK    4  A    between atoms: C11_14  and  C12_16 
REMARK    5  A    between atoms: C12_16  and  N4_17 
REMARK    6  A    between atoms: N4_17  and  C13_18 
REMARK    7  A    between atoms: C19_24  and  O2_27 
ROOT
ATOM      1  N1  <0> d           0.057  -4.171  -0.021  0.00  0.00    -0.154 N 
ATOM      2  C8  <0> d           0.068  -4.975  -1.144  0.00  0.00     0.146 A 
ATOM      3  C9  <0> d           0.085  -6.257  -0.738  0.00  0.00     0.076 A 
ATOM      4  N2  <0> d           0.085  -6.265   0.651  0.00  0.00    -0.187 N 
ATOM      5  C10 <0> d           0.073  -4.975   1.076  0.00  0.00     0.715 A 
ATOM      6  H27 <0> d           0.095  -7.052   1.218  0.00  0.00     0.184 HD
ENDROOT
BRANCH   5   7
ATOM      7  N3  <0> d           0.074  -4.568   2.345  0.00  0.00    -0.026 NA
ATOM      8  C11 <0> d           0.090  -5.460   3.329  0.00  0.00     0.285 C 
ATOM      9  O1  <0> d           0.105  -6.649   3.071  0.00  0.00    -0.269 OA
BRANCH   8  10
ATOM     10  C12 <0> d           0.091  -5.000   4.763  0.00  0.00     0.338 C 
BRANCH  10  11
ATOM     11  N4  <0> d           0.111  -6.169   5.653  0.00  0.00    -0.063 N 
ATOM     12  H11 <0> d          -0.706  -6.736   5.481  0.00  0.00     0.278 HD
ATOM     13  H26 <0> d           0.942  -6.714   5.473  0.00  0.00     0.278 HD
BRANCH  11  14
ATOM     14  C13 <0> d           0.112  -5.721   7.051  0.00  0.00     0.178 C 
ATOM     15  C14 <0> d           0.007  -6.935   7.976  0.00  0.00     0.039 C 
ATOM     16  C15 <0> d           1.411  -4.967   7.345  0.00  0.00     0.039 C 
ENDBRANCH  11  14
ENDBRANCH  10  11
ENDBRANCH   8  10
ENDBRANCH   5   7
BRANCH   1  17
ATOM     17  C5  <0> d           0.039  -2.771  -0.013  0.00  0.00     0.056 A 
ATOM     18  C4  <0> d           0.024  -2.068  -1.211  0.00  0.00     0.031 A 
ATOM     19  C3  <0> d           0.006  -0.687  -1.200  0.00  0.00     0.009 A 
ATOM     20  C2  <0> d           0.002  -0.004   0.002  0.00  0.00    -0.062 A 
ATOM     21  C1  <0> d          -0.018   1.503   0.010  0.00  0.00     0.048 C 
ATOM     22  C7  <0> d           0.023  -0.700   1.197  0.00  0.00     0.009 A 
ATOM     23  C6  <0> d           0.036  -2.081   1.192  0.00  0.00     0.031 A 
ENDBRANCH   1  17
BRANCH   3  24
ATOM     24  C16 <0> d           0.100  -7.448  -1.616  0.00  0.00    -0.007 A 
ATOM     25  C21 <0> d           0.117  -8.727  -1.059  0.00  0.00     0.016 A 
ATOM     26  C20 <0> d           0.125  -9.835  -1.880  0.00  0.00     0.037 A 
ATOM     27  C19 <0> d           0.129  -9.678  -3.260  0.00  0.00     0.068 A 
ATOM     28  C18 <0> d           0.118  -8.407  -3.817  0.00  0.00     0.037 A 
ATOM     29  C17 <0> d           0.104  -7.295  -3.003  0.00  0.00     0.016 A 
BRANCH  27  30
ATOM     30  O2  <0> d           0.143 -10.772  -4.066  0.00  0.00    -0.356 OA
ATOM     31  C22 <0> d           0.154 -12.050  -3.426  0.00  0.00     0.210 C 
ENDBRANCH  27  30
ENDBRANCH   3  24
TORSDOF 7
