REMARK  5 active torsions:
REMARK  status: ('A' for Active; 'I' for Inactive)
REMARK    1  A    between atoms: C2_2  and  C3_3 
REMARK    2  A    between atoms: C6_6  and  C9_9 
REMARK       I    between atoms: C9_9  and  N1_11 
REMARK    3  A    between atoms: C11_13  and  C18_21 
REMARK       I    between atoms: C18_21  and  N3_23 
REMARK    4  A    between atoms: N3_23  and  C19_24 
REMARK    5  A    between atoms: N4_27  and  C24_30 
ROOT
ATOM      1  C9  <0> d          -5.407  -2.002   0.044  0.00  0.00     0.253 C 
ATOM      2  O1  <0> d          -5.932  -2.317   1.094  0.00  0.00    -0.267 OA
ATOM      3  N1  <0> d          -6.082  -2.138  -1.115  0.00  0.00    -0.346 N 
ATOM      4  C10 <0> d          -5.573  -1.932  -2.492  0.00  0.00     0.141 C 
ATOM      5  C11 <0> d          -6.224  -3.061  -3.321  0.00  0.00     0.106 C 
ATOM      6  C12 <0> d          -7.489  -3.447  -2.535  0.00  0.00    -0.007 C 
ATOM      7  C13 <0> d          -7.498  -2.534  -1.300  0.00  0.00     0.136 C 
ATOM      8  C14 <0> d          -7.417  -4.908  -2.103  0.00  0.00     0.039 C 
ATOM      9  C15 <0> d          -8.710  -5.283  -1.373  0.00  0.00     0.233 C 
ATOM     10  N2  <0> d          -9.857  -5.071  -2.265  0.00  0.00    -0.075 N 
ATOM     11  C16 <0> d          -9.973  -3.647  -2.601  0.00  0.00     0.233 C 
ATOM     12  C17 <0> d          -8.733  -3.203  -3.383  0.00  0.00     0.039 C 
ATOM     13  H19 <0> d          -9.727  -5.606  -3.110  0.00  0.00     0.277 HD
ATOM     14  H40 <0> d         -10.700  -5.377  -1.803  0.00  0.00     0.277 HD
ENDROOT
BRANCH   5  15
ATOM     15  C18 <0> d          -5.290  -4.239  -3.428  0.00  0.00     0.224 C 
ATOM     16  O2  <0> d          -4.565  -4.523  -2.499  0.00  0.00    -0.273 OA
ATOM     17  N3  <0> d          -5.262  -4.976  -4.556  0.00  0.00    -0.356 N 
ATOM     18  H24 <0> d          -5.842  -4.749  -5.299  0.00  0.00     0.162 HD
BRANCH  17  19
ATOM     19  C19 <0> d          -4.354  -6.121  -4.659  0.00  0.00     0.087 C 
ATOM     20  C23 <0> d          -4.907  -7.120  -5.679  0.00  0.00     0.045 C 
ATOM     21  C22 <0> d          -3.973  -8.332  -5.759  0.00  0.00     0.126 C 
ATOM     22  N4  <0> d          -2.612  -7.861  -6.052  0.00  0.00    -0.367 N 
ATOM     23  C21 <0> d          -2.018  -6.833  -5.186  0.00  0.00     0.126 C 
ATOM     24  C20 <0> d          -2.974  -5.638  -5.112  0.00  0.00     0.045 C 
BRANCH  22  25
ATOM     25  C24 <0> d          -1.900  -8.379  -7.128  0.00  0.00     0.109 A 
ATOM     26  N5  <0> d          -2.070  -7.863  -8.336  0.00  0.00    -0.352 N 
ATOM     27  C28 <0> d          -1.410  -8.321  -9.383  0.00  0.00     0.089 A 
ATOM     28  H41 <0> d          -2.692  -7.128  -8.453  0.00  0.00     0.166 HD
ATOM     29  C27 <0> d          -0.521  -9.369  -9.256  0.00  0.00     0.018 A 
ATOM     30  C26 <0> d          -0.318  -9.942  -8.007  0.00  0.00     0.012 A 
ATOM     31  C25 <0> d          -1.020  -9.437  -6.927  0.00  0.00    -0.018 A 
ATOM     32  C29 <0> d          -0.833 -10.025  -5.552  0.00  0.00     0.052 C 
ENDBRANCH  22  25
ENDBRANCH  17  19
ENDBRANCH   5  15
BRANCH   1  33
ATOM     33  C6  <0> d          -4.028  -1.468   0.038  0.00  0.00     0.032 A 
ATOM     34  C5  <0> d          -3.151  -1.782   1.077  0.00  0.00     0.017 A 
ATOM     35  C4  <0> d          -1.865  -1.281   1.065  0.00  0.00     0.008 A 
ATOM     36  C3  <0> d          -1.445  -0.470   0.026  0.00  0.00    -0.059 A 
ATOM     37  C8  <0> d          -2.311  -0.151  -1.005  0.00  0.00     0.008 A 
ATOM     38  C7  <0> d          -3.597  -0.650  -1.008  0.00  0.00     0.017 A 
BRANCH  36  39
ATOM     39  C2  <0> d          -0.039   0.072   0.020  0.00  0.00     0.034 C 
ATOM     40  C1  <0> d          -0.008   1.416   0.750  0.00  0.00     0.010 C 
ENDBRANCH  36  39
ENDBRANCH   1  33
TORSDOF 5
