REMARK  4 active torsions:
REMARK  status: ('A' for Active; 'I' for Inactive)
REMARK    1  A    between atoms: C5_5  and  N1_9 
REMARK    2  A    between atoms: N1_9  and  C9_10 
REMARK    3  A    between atoms: N2_12  and  S1_13 
REMARK    4  A    between atoms: S1_13  and  C11_16 
ROOT
ATOM      1  C9  <0> d          -0.049  -4.894  -1.288  0.00  0.00     0.254 A 
ATOM      2  C10 <0> d           0.973  -6.008  -1.269  0.00  0.00     0.160 A 
ATOM      3  N2  <0> d           2.236  -5.742  -1.105  0.00  0.00    -0.142 NA
ATOM      4  N3  <0> d           0.559  -7.276  -1.424  0.00  0.00    -0.339 N 
ATOM      5  C15 <0> d          -0.713  -7.571  -1.591  0.00  0.00     0.060 A 
ATOM      6  C16 <0> d          -1.115  -8.921  -1.751  0.00  0.00     0.032 A 
ATOM      7  C17 <0> d          -2.419  -9.229  -1.923  0.00  0.00     0.002 A 
ATOM      8  C18 <0> d          -3.433  -8.257  -1.953  0.00  0.00     0.002 A 
ATOM      9  C19 <0> d          -3.159  -6.941  -1.811  0.00  0.00     0.031 A 
ATOM     10  C20 <0> d          -1.763  -6.522  -1.619  0.00  0.00     0.057 A 
ATOM     11  N4  <0> d          -1.461  -5.262  -1.477  0.00  0.00    -0.361 N 
ATOM     12  H19 <0> d          -2.153  -4.582  -1.495  0.00  0.00     0.162 HD
ATOM     13  H20 <0> d           1.213  -7.992  -1.412  0.00  0.00     0.167 HD
ENDROOT
BRANCH   1  14
ATOM     14  N1  <0> d           0.058  -4.167  -0.021  0.00  0.00    -0.362 N 
ATOM     15  H11 <0> d           0.037  -4.652   0.819  0.00  0.00     0.162 HD
BRANCH  14  16
ATOM     16  C5  <0> d           0.190  -2.777  -0.022  0.00  0.00     0.030 A 
ATOM     17  C4  <0> d           0.047  -2.065  -1.207  0.00  0.00     0.030 A 
ATOM     18  C3  <0> d           0.178  -0.691  -1.205  0.00  0.00     0.009 A 
ATOM     19  C2  <0> d           0.451  -0.022  -0.025  0.00  0.00    -0.056 A 
ATOM     20  C1  <0> d           0.594   1.478  -0.027  0.00  0.00     0.049 C 
ATOM     21  C7  <0> d           0.600  -0.728   1.154  0.00  0.00    -0.054 A 
ATOM     22  C6  <0> d           0.465  -2.103   1.160  0.00  0.00     0.036 A 
ATOM     23  C8  <0> d           0.903   0.004   2.436  0.00  0.00     0.049 C 
ENDBRANCH  14  16
ENDBRANCH   1  14
BRANCH   3  24
ATOM     24  S1  <0> d           3.345  -6.971  -1.087  0.00  0.00     0.291 S 
ATOM     25  O1  <0> d           3.075  -7.745   0.075  0.00  0.00    -0.198 OA
ATOM     26  O2  <0> d           3.351  -7.533  -2.392  0.00  0.00    -0.198 OA
BRANCH  24  27
ATOM     27  C11 <0> d           4.930  -6.239  -0.846  0.00  0.00     0.122 A 
ATOM     28  S2  <0> d           6.095  -5.654  -2.066  0.00  0.00    -0.088 SA
ATOM     29  C14 <0> d           7.370  -5.094  -0.949  0.00  0.00     0.051 A 
ATOM     30  C13 <0> d           6.834  -5.392   0.260  0.00  0.00     0.009 A 
ATOM     31  C12 <0> d           5.583  -5.979   0.312  0.00  0.00     0.033 A 
ENDBRANCH  24  27
ENDBRANCH   3  24
TORSDOF 4
