REMARK  5 active torsions:
REMARK  status: ('A' for Active; 'I' for Inactive)
REMARK    1  A    between atoms: C2_2  and  O1_3 
REMARK    2  A    between atoms: O1_3  and  C3_4 
REMARK    3  A    between atoms: N1_9  and  C8_10 
REMARK    4  A    between atoms: C13_15  and  O2_16 
REMARK    5  A    between atoms: C17_20  and  O3_22 
ROOT
ATOM      1  C3  <0> d           0.540  -2.040  -0.939  0.00  0.00     0.223 C 
ATOM      2  C4  <0> d           0.887  -2.155  -2.426  0.00  0.00     0.054 C 
ATOM      3  C5  <0> d           1.525  -3.520  -2.694  0.00  0.00     0.007 C 
ATOM      4  C6  <0> d           2.818  -3.649  -1.885  0.00  0.00     0.031 C 
ATOM      5  C7  <0> d           2.493  -3.548  -0.393  0.00  0.00     0.037 C 
ATOM      6  N1  <0> d           1.748  -2.307  -0.146  0.00  0.00    -0.342 N 
ATOM      7  C14 <0> d           3.791  -3.534   0.416  0.00  0.00     0.031 C 
ATOM      8  C15 <0> d           3.462  -3.428   1.906  0.00  0.00     0.005 C 
ATOM      9  C16 <0> d           2.609  -4.626   2.327  0.00  0.00     0.032 C 
ATOM     10  C17 <0> d           1.310  -4.637   1.519  0.00  0.00     0.120 C 
ATOM     11  C18 <0> d           1.638  -4.744   0.028  0.00  0.00     0.062 C 
ENDROOT
BRANCH   6  12
ATOM     12  C8  <0> d           2.183  -1.394   0.822  0.00  0.00     0.066 A 
ATOM     13  C13 <0> d           3.295  -0.592   0.575  0.00  0.00     0.092 A 
ATOM     14  C12 <0> d           3.717   0.314   1.535  0.00  0.00     0.039 A 
ATOM     15  C11 <0> d           3.042   0.413   2.737  0.00  0.00     0.003 A 
ATOM     16  C10 <0> d           1.942  -0.387   2.985  0.00  0.00     0.002 A 
ATOM     17  C9  <0> d           1.510  -1.289   2.030  0.00  0.00     0.032 A 
BRANCH  13  18
ATOM     18  O2  <0> d           3.961  -0.694  -0.606  0.00  0.00    -0.358 OA
ATOM     19  H18 <0> d           3.630  -0.104  -1.297  0.00  0.00     0.217 HD
ENDBRANCH  13  18
ENDBRANCH   6  12
BRANCH   1  20
ATOM     20  O1  <0> d           0.064  -0.723  -0.658  0.00  0.00    -0.367 OA
BRANCH  20  21
ATOM     21  C2  <0> d          -0.868  -0.659   0.424  0.00  0.00     0.166 C 
ATOM     22  C1  <0> d          -1.251   0.799   0.682  0.00  0.00     0.033 C 
ENDBRANCH  20  21
ENDBRANCH   1  20
BRANCH  10  23
ATOM     23  O3  <0> d           0.513  -5.756   1.913  0.00  0.00    -0.395 OA
ATOM     24  H27 <0> d           0.267  -5.753   2.848  0.00  0.00     0.210 HD
ENDBRANCH  10  23
TORSDOF 5
