REMARK  7 active torsions:
REMARK  status: ('A' for Active; 'I' for Inactive)
REMARK    1  A    between atoms: C4_4  and  N3_15 
REMARK    2  A    between atoms: C5_5  and  C7_7 
REMARK    3  A    between atoms: C7_7  and  N1_8 
REMARK       I    between atoms: N1_8  and  C8_9 
REMARK    4  A    between atoms: C8_9  and  C9_11 
REMARK    5  A    between atoms: C9_11  and  C10_12 
REMARK    6  A    between atoms: C10_12  and  C11_13 
REMARK    7  A    between atoms: C11_13  and  N2_14 
ROOT
ATOM      1  C7  <0> d           1.226  -2.187  -0.022  0.00  0.00     0.163 C 
ENDROOT
BRANCH   1   2
ATOM      2  C5  <0> d           1.207  -0.680  -0.013  0.00  0.00    -0.012 A 
ATOM      3  C4  <0> d           2.399   0.031  -0.021  0.00  0.00     0.066 A 
ATOM      4  C3  <0> d           2.377   1.419  -0.013  0.00  0.00     0.032 A 
ATOM      5  C2  <0> d           1.170   2.089   0.002  0.00  0.00     0.002 A 
ATOM      6  C1  <0> d          -0.017   1.378   0.010  0.00  0.00     0.001 A 
ATOM      7  C6  <0> d           0.002  -0.004   0.002  0.00  0.00     0.011 A 
BRANCH   3   8
ATOM      8  N3  <0> d           3.624  -0.652  -0.037  0.00  0.00    -0.245 N 
ATOM      9  N4  <0> d           3.792  -2.043  -0.046  0.00  0.00    -0.180 NA
ATOM     10  C14 <0> d           5.075  -2.300  -0.064  0.00  0.00     0.140 A 
ATOM     11  C13 <0> d           5.765  -1.083  -0.058  0.00  0.00     0.040 A 
ATOM     12  C12 <0> d           4.851  -0.085  -0.042  0.00  0.00     0.120 A 
ENDBRANCH   3   8
ENDBRANCH   1   2
BRANCH   1  13
ATOM     13  N1  <0> d           1.486  -2.680   1.333  0.00  0.00    -0.357 N 
ATOM     14  C8  <0> d           1.549  -4.005   1.567  0.00  0.00     0.217 C 
ATOM     15  O1  <0> d           1.390  -4.790   0.656  0.00  0.00    -0.274 OA
ATOM     16  H7  <0> d           1.613  -2.052   2.061  0.00  0.00     0.162 HD
BRANCH  14  17
ATOM     17  C9  <0> d           1.816  -4.512   2.961  0.00  0.00     0.104 C 
BRANCH  17  18
ATOM     18  C10 <0> d           1.836  -6.042   2.952  0.00  0.00     0.036 C 
BRANCH  18  19
ATOM     19  C11 <0> d           2.107  -6.557   4.367  0.00  0.00     0.230 C 
BRANCH  19  20
ATOM     20  N2  <0> d           2.127  -8.026   4.359  0.00  0.00    -0.079 N 
ATOM     21  H14 <0> d           1.234  -8.372   4.040  0.00  0.00     0.274 HD
ATOM     22  H15 <0> d           2.853  -8.349   3.738  0.00  0.00     0.274 HD
ATOM     23  H19 <0> d           2.306  -8.365   5.292  0.00  0.00     0.274 HD
ENDBRANCH  19  20
ENDBRANCH  18  19
ENDBRANCH  17  18
ENDBRANCH  14  17
ENDBRANCH   1  13
TORSDOF 7
