REMARK  6 active torsions:
REMARK  status: ('A' for Active; 'I' for Inactive)
REMARK    1  A    between atoms: C6_7  and  N2_8 
REMARK    2  A    between atoms: C18_20  and  N3_23 
REMARK    3  A    between atoms: C19_21  and  O1_22 
REMARK    4  A    between atoms: N3_23  and  C21_25 
REMARK    5  A    between atoms: C21_25  and  C22_26 
REMARK    6  A    between atoms: C22_26  and  O2_27 
ROOT
ATOM      1  N2  <0> d           4.906   4.235   0.933  0.00  0.00    -0.269 NA
ATOM      2  C7  <0> d           3.851   4.735   1.824  0.00  0.00     0.098 C 
ATOM      3  C8  <0> d           2.582   3.901   1.630  0.00  0.00     0.032 C 
ATOM      4  C9  <0> d           2.143   3.981   0.170  0.00  0.00     0.018 C 
ATOM      5  C10 <0> d           3.273   3.523  -0.749  0.00  0.00     0.032 C 
ATOM      6  C11 <0> d           4.520   4.370  -0.478  0.00  0.00     0.098 C 
ATOM      7  C12 <0> d           0.909   3.140  -0.055  0.00  0.00    -0.038 A 
ATOM      8  C13 <0> d           0.764   1.771  -0.203  0.00  0.00     0.009 A 
ATOM      9  C14 <0> d          -0.486   1.221  -0.404  0.00  0.00     0.001 A 
ATOM     10  C15 <0> d          -1.599   2.039  -0.462  0.00  0.00     0.001 A 
ATOM     11  C16 <0> d          -1.458   3.404  -0.308  0.00  0.00     0.010 A 
ATOM     12  C17 <0> d          -0.205   3.958  -0.107  0.00  0.00    -0.018 A 
ATOM     13  C18 <0> d           0.210   5.402   0.082  0.00  0.00     0.251 C 
ATOM     14  C19 <0> d           1.732   5.423  -0.177  0.00  0.00     0.166 C 
ENDROOT
BRANCH  14  15
ATOM     15  O1  <0> d           2.010   5.714  -1.548  0.00  0.00    -0.392 OA
ATOM     16  H21 <0> d           1.774   6.707  -1.958  0.00  0.00     0.210 HD
ENDBRANCH  14  15
BRANCH  13  17
ATOM     17  N3  <0> d          -0.080   5.842   1.453  0.00  0.00    -0.062 N 
ATOM     18  C20 <0> d          -1.472   5.548   1.818  0.00  0.00     0.270 C 
ATOM     19  H30 <0> d           0.574   5.278   2.135  0.00  0.00     0.280 HD
BRANCH  17  20
ATOM     20  C21 <0> d           0.218   7.271   1.621  0.00  0.00     0.261 C 
BRANCH  20  21
ATOM     21  C22 <0> d           0.295   7.604   3.113  0.00  0.00     0.192 C 
BRANCH  21  22
ATOM     22  O2  <0> d           1.402   6.915   3.698  0.00  0.00    -0.399 OA
ATOM     23  H29 <0> d           1.618   7.032   4.771  0.00  0.00     0.209 HD
ENDBRANCH  21  22
ENDBRANCH  20  21
ENDBRANCH  17  20
ENDBRANCH  13  17
BRANCH   1  24
ATOM     24  C6  <0> d           6.114   4.877   1.182  0.00  0.00     0.088 A 
ATOM     25  C2  <0> d           7.304   4.164   1.091  0.00  0.00    -0.024 A 
ATOM     26  C1  <0> d           7.293   2.702   0.726  0.00  0.00     0.052 C 
ATOM     27  C3  <0> d           8.499   4.815   1.341  0.00  0.00     0.011 A 
ATOM     28  C4  <0> d           8.463   6.162   1.675  0.00  0.00     0.018 A 
ATOM     29  C5  <0> d           7.245   6.808   1.746  0.00  0.00     0.089 A 
ATOM     30  N1  <0> d           6.121   6.163   1.498  0.00  0.00    -0.356 N 
ATOM     31  H31 <0> d           5.159   6.694   1.550  0.00  0.00     0.166 HD
ENDBRANCH   1  24
TORSDOF 6
