REMARK  2 active torsions:
REMARK  status: ('A' for Active; 'I' for Inactive)
REMARK    1  A    between atoms: N1_4  and  C6_8 
REMARK    2  A    between atoms: C10_13  and  N3_14 
ROOT
ATOM      1  C6  <0> d           0.642  -2.857  -2.173  0.00  0.00     0.059 A 
ATOM      2  C7  <0> d          -0.661  -3.322  -2.325  0.00  0.00     0.048 A 
ATOM      3  C8  <0> d          -0.953  -4.177  -3.369  0.00  0.00     0.090 A 
ATOM      4  N2  <0> d          -0.017  -4.554  -4.219  0.00  0.00    -0.373 N 
ATOM      5  C9  <0> d           1.231  -4.139  -4.114  0.00  0.00     0.118 A 
ATOM      6  C10 <0> d           1.607  -3.275  -3.098  0.00  0.00     0.068 A 
ATOM      7  H18 <0> d          -0.254  -5.156  -4.942  0.00  0.00     0.164 HD
ENDROOT
BRANCH   1   8
ATOM      8  N1  <0> d           0.977  -1.992  -1.131  0.00  0.00    -0.374 N 
ATOM      9  C3  <0> d           0.824  -0.535  -1.277  0.00  0.00     0.160 C 
ATOM     10  C2  <0> d           0.041  -0.009  -0.068  0.00  0.00     0.070 C 
ATOM     11  C1  <0> d           0.033   1.521  -0.092  0.00  0.00     0.047 C 
ATOM     12  O1  <0> d           0.668  -0.464   1.133  0.00  0.00    -0.378 OA
ATOM     13  C11 <0> d          -1.397  -0.528  -0.123  0.00  0.00     0.047 C 
ATOM     14  C5  <0> d           0.679  -1.886   1.285  0.00  0.00     0.188 C 
ATOM     15  C4  <0> d           1.494  -2.509   0.146  0.00  0.00     0.149 C 
ENDBRANCH   1   8
BRANCH   6  16
ATOM     16  N3  <0> d           2.931  -2.832  -2.994  0.00  0.00    -0.396 N 
ATOM     17  H13 <0> d           3.203  -2.291  -2.237  0.00  0.00     0.156 HD
ATOM     18  H14 <0> d           3.576  -3.066  -3.680  0.00  0.00     0.156 HD
ENDBRANCH   6  16
TORSDOF 2
