REMARK  7 active torsions:
REMARK  status: ('A' for Active; 'I' for Inactive)
REMARK    1  A    between atoms: C2_2  and  C3_3 
REMARK    2  A    between atoms: C3_3  and  C4_4 
REMARK    3  A    between atoms: C4_4  and  N1_5 
REMARK       I    between atoms: N1_5  and  C5_6 
REMARK    4  A    between atoms: C5_6  and  C6_8 
REMARK       I    between atoms: N2_10  and  C14_18 
REMARK    5  A    between atoms: C14_18  and  C15_20 
REMARK    6  A    between atoms: C19_24  and  O3_27 
REMARK    7  A    between atoms: O3_27  and  C22_28 
ROOT
ATOM      1  C6  <0> d          -4.080  -5.072  -0.368  0.00  0.00     0.106 C 
ATOM      2  C7  <0> d          -4.952  -4.394  -1.448  0.00  0.00     0.141 C 
ATOM      3  N2  <0> d          -4.860  -5.293  -2.623  0.00  0.00    -0.346 N 
ATOM      4  C8  <0> d          -4.896  -6.658  -2.046  0.00  0.00     0.136 C 
ATOM      5  C9  <0> d          -4.049  -6.558  -0.762  0.00  0.00    -0.007 C 
ATOM      6  C10 <0> d          -4.665  -7.411   0.344  0.00  0.00     0.039 C 
ATOM      7  C11 <0> d          -4.569  -8.889  -0.044  0.00  0.00     0.233 C 
ATOM      8  N3  <0> d          -3.162  -9.254  -0.246  0.00  0.00    -0.075 N 
ATOM      9  C12 <0> d          -2.604  -8.496  -1.372  0.00  0.00     0.233 C 
ATOM     10  C13 <0> d          -2.616  -7.001  -1.040  0.00  0.00     0.039 C 
ATOM     11  C14 <0> d          -4.765  -4.947  -3.922  0.00  0.00     0.254 C 
ATOM     12  O2  <0> d          -4.792  -5.805  -4.783  0.00  0.00    -0.267 OA
ATOM     13  H20 <0> d          -2.638  -9.045   0.591  0.00  0.00     0.277 HD
ATOM     14  H34 <0> d          -3.097 -10.242  -0.442  0.00  0.00     0.277 HD
ENDROOT
BRANCH  11  15
ATOM     15  C15 <0> d          -4.627  -3.524  -4.301  0.00  0.00     0.040 A 
ATOM     16  C20 <0> d          -3.827  -3.163  -5.384  0.00  0.00    -0.012 A 
ATOM     17  C19 <0> d          -3.707  -1.829  -5.736  0.00  0.00     0.086 A 
ATOM     18  C21 <0> d          -3.100  -4.221  -6.173  0.00  0.00     0.052 C 
ATOM     19  C18 <0> d          -4.373  -0.855  -5.005  0.00  0.00     0.038 A 
ATOM     20  C17 <0> d          -5.163  -1.211  -3.927  0.00  0.00     0.004 A 
ATOM     21  C16 <0> d          -5.294  -2.538  -3.571  0.00  0.00     0.018 A 
BRANCH  17  22
ATOM     22  O3  <0> d          -2.932  -1.472  -6.794  0.00  0.00    -0.279 OA
BRANCH  22  23
ATOM     23  C22 <0> d          -3.490  -1.481  -8.015  0.00  0.00     0.260 C 
ATOM     24  O4  <0> d          -4.670  -1.708  -8.139  0.00  0.00    -0.265 OA
ATOM     25  C23 <0> d          -2.644  -1.207  -9.232  0.00  0.00     0.126 C 
ENDBRANCH  22  23
ENDBRANCH  17  22
ENDBRANCH  11  15
BRANCH   1  26
ATOM     26  C5  <0> d          -2.688  -4.497  -0.380  0.00  0.00     0.224 C 
ATOM     27  N1  <0> d          -1.947  -4.500   0.746  0.00  0.00    -0.361 N 
ATOM     28  H11 <0> d          -2.311  -4.873   1.564  0.00  0.00     0.162 HD
ATOM     29  O1  <0> d          -2.233  -4.031  -1.404  0.00  0.00    -0.273 OA
BRANCH  27  30
ATOM     30  C4  <0> d          -0.593  -3.941   0.734  0.00  0.00     0.122 C 
BRANCH  30  31
ATOM     31  C3  <0> d           0.024  -4.069   2.128  0.00  0.00     0.019 C 
BRANCH  31  32
ATOM     32  C2  <0> d           1.438  -3.485   2.116  0.00  0.00    -0.003 C 
ATOM     33  C1  <0> d           2.054  -3.612   3.510  0.00  0.00     0.005 C 
ENDBRANCH  31  32
ENDBRANCH  30  31
ENDBRANCH  27  30
ENDBRANCH   1  26
TORSDOF 7
