REMARK  6 active torsions:
REMARK  status: ('A' for Active; 'I' for Inactive)
REMARK    1  A    between atoms: O1_2  and  C2_3 
REMARK    2  A    between atoms: C4_5  and  N1_13 
REMARK    3  A    between atoms: C6_7  and  O3_11 
REMARK    4  A    between atoms: C7_8  and  O2_9 
REMARK       I    between atoms: N1_13  and  C10_14 
REMARK       I    between atoms: C10_14  and  N2_16 
REMARK    5  A    between atoms: N2_16  and  C11_17 
REMARK    6  A    between atoms: C14_20  and  C17_23 
ROOT
ATOM      1  N1  <0> d          -4.780   0.187  -0.117  0.00  0.00    -0.309 N 
ATOM      2  C10 <0> d          -5.978  -0.424  -0.214  0.00  0.00     0.325 C 
ATOM      3  O4  <0> d          -6.035  -1.629  -0.363  0.00  0.00    -0.247 OA
ATOM      4  N2  <0> d          -7.112   0.301  -0.146  0.00  0.00    -0.309 N 
ATOM      5  H13 <0> d          -4.734   1.136   0.076  0.00  0.00     0.170 HD
ATOM      6  H14 <0> d          -7.066   1.269  -0.103  0.00  0.00     0.170 HD
ENDROOT
BRANCH   4   7
ATOM      7  C11 <0> d          -8.354  -0.342  -0.137  0.00  0.00     0.036 A 
ATOM      8  C16 <0> d          -9.456   0.263  -0.728  0.00  0.00     0.030 A 
ATOM      9  C15 <0> d         -10.680  -0.377  -0.723  0.00  0.00     0.012 A 
ATOM     10  C14 <0> d         -10.812  -1.614  -0.120  0.00  0.00    -0.032 A 
ATOM     11  C13 <0> d          -9.718  -2.217   0.475  0.00  0.00     0.012 A 
ATOM     12  C12 <0> d          -8.491  -1.585   0.468  0.00  0.00     0.030 A 
BRANCH  10  13
ATOM     13  C17 <0> d         -12.150  -2.307  -0.110  0.00  0.00     0.139 A 
ATOM     14  N3  <0> d         -13.223  -1.331   0.108  0.00  0.00    -0.377 N 
ATOM     15  C24 <0> d         -14.022  -1.349  -0.933  0.00  0.00     0.039 A 
ATOM     16  H23 <0> d         -13.325  -0.766   0.891  0.00  0.00     0.160 HD
ATOM     17  C19 <0> d         -13.547  -2.339  -1.926  0.00  0.00    -0.010 A 
ATOM     18  C23 <0> d         -15.201  -0.613  -1.235  0.00  0.00     0.031 A 
ATOM     19  C18 <0> d         -12.423  -2.931  -1.461  0.00  0.00     0.016 A 
ATOM     20  C20 <0> d         -14.317  -2.504  -3.165  0.00  0.00     0.037 A 
ATOM     21  C21 <0> d         -15.426  -1.751  -3.353  0.00  0.00     0.035 A 
ATOM     22  C22 <0> d         -15.856  -0.820  -2.396  0.00  0.00     0.026 A 
ATOM     23 Cl1  <0> d         -16.339  -1.943  -4.817  0.00  0.00    -0.084 Cl
ENDBRANCH  10  13
ENDBRANCH   4   7
BRANCH   1  24
ATOM     24  C4  <0> d          -3.602  -0.550  -0.296  0.00  0.00     0.041 A 
ATOM     25  C3  <0> d          -3.577  -1.613  -1.188  0.00  0.00     0.069 A 
ATOM     26  C2  <0> d          -2.412  -2.342  -1.366  0.00  0.00     0.106 A 
ATOM     27  C7  <0> d          -1.269  -2.011  -0.648  0.00  0.00     0.135 A 
ATOM     28  C6  <0> d          -1.293  -0.942   0.241  0.00  0.00     0.106 A 
ATOM     29  C5  <0> d          -2.460  -0.215   0.418  0.00  0.00     0.069 A 
BRANCH  26  30
ATOM     30  O1  <0> d          -2.388  -3.383  -2.240  0.00  0.00    -0.353 OA
ATOM     31  C1  <0> d          -3.598  -3.667  -2.945  0.00  0.00     0.210 C 
ENDBRANCH  26  30
BRANCH  27  32
ATOM     32  O2  <0> d          -0.125  -2.730  -0.818  0.00  0.00    -0.351 OA
ATOM     33  C8  <0> d           0.777  -2.282  -1.831  0.00  0.00     0.210 C 
ENDBRANCH  27  32
BRANCH  28  34
ATOM     34  O3  <0> d          -0.174  -0.614   0.940  0.00  0.00    -0.353 OA
ATOM     35  C9  <0> d          -0.272   0.492   1.839  0.00  0.00     0.210 C 
ENDBRANCH  28  34
ENDBRANCH   1  24
TORSDOF 6
