REMARK  3 active torsions:
REMARK  status: ('A' for Active; 'I' for Inactive)
REMARK    1  A    between atoms: C5_7  and  C9_14 
REMARK       I    between atoms: C9_14  and  N3_16 
REMARK    2  A    between atoms: N3_16  and  C10_17 
REMARK    3  A    between atoms: C10_17  and  C11_18 
ROOT
ATOM      1  C1  <0> d           3.544   2.267  -0.020  0.00  0.00     0.164 C 
ATOM      2  N1  <0> d           2.327   1.451  -0.013  0.00  0.00    -0.270 N 
ATOM      3  C2  <0> d           2.441   0.111  -0.021  0.00  0.00     0.264 A 
ATOM      4  O1  <0> d           3.538  -0.414  -0.035  0.00  0.00    -0.267 OA
ATOM      5  C3  <0> d           1.211  -0.719  -0.013  0.00  0.00     0.068 A 
ATOM      6  C4  <0> d           1.094  -2.113  -0.020  0.00  0.00     0.044 A 
ATOM      7  C5  <0> d          -0.156  -2.662  -0.011  0.00  0.00     0.075 A 
ATOM      8  S1  <0> d          -1.214  -1.226   0.007  0.00  0.00    -0.066 SA
ATOM      9  C6  <0> d           0.002  -0.004   0.002  0.00  0.00     0.096 A 
ATOM     10  N2  <0> d          -0.016   1.359   0.009  0.00  0.00    -0.297 N 
ATOM     11  C7  <0> d           1.132   2.062   0.002  0.00  0.00     0.331 A 
ATOM     12  O2  <0> d           1.086   3.277   0.009  0.00  0.00    -0.246 OA
ATOM     13  C8  <0> d          -1.299   2.067   0.019  0.00  0.00     0.162 C 
ENDROOT
BRANCH   7  14
ATOM     14  C9  <0> d          -0.534  -4.077  -0.014  0.00  0.00     0.258 C 
ATOM     15  O3  <0> d           0.328  -4.937  -0.027  0.00  0.00    -0.267 OA
ATOM     16  N3  <0> d          -1.835  -4.427  -0.004  0.00  0.00    -0.354 N 
ATOM     17  H9  <0> d          -2.522  -3.741   0.006  0.00  0.00     0.162 HD
BRANCH  16  18
ATOM     18  C10 <0> d          -2.213  -5.842  -0.007  0.00  0.00     0.155 C 
BRANCH  18  19
ATOM     19  C11 <0> d          -3.738  -5.963   0.006  0.00  0.00     0.139 C 
ATOM     20  O4  <0> d          -4.289  -5.526  -1.255  0.00  0.00    -0.384 OA
ATOM     21  C14 <0> d          -5.601  -6.125  -1.326  0.00  0.00     0.168 C 
ATOM     22  C13 <0> d          -5.413  -7.553  -0.768  0.00  0.00     0.029 C 
ATOM     23  C12 <0> d          -4.160  -7.444   0.129  0.00  0.00     0.035 C 
ENDBRANCH  18  19
ENDBRANCH  16  18
ENDBRANCH   7  14
TORSDOF 3
