REMARK  3 active torsions:
REMARK  status: ('A' for Active; 'I' for Inactive)
REMARK    1  A    between atoms: C6_7  and  N2_9 
REMARK       I    between atoms: N2_9  and  C7_10 
REMARK    2  A    between atoms: C7_10  and  C8_12 
REMARK    3  A    between atoms: C8_12  and  S2_13 
ROOT
ATOM      1  C1  <0> d          -0.019   1.526   0.010  0.00  0.00     0.015 C 
ATOM      2  C2  <0> d           0.002  -0.004   0.002  0.00  0.00    -0.036 C 
ATOM      3  C3  <0> d           0.685  -0.490  -1.279  0.00  0.00     0.070 C 
ATOM      4  C4  <0> d           2.128  -0.008  -1.259  0.00  0.00     0.059 A 
ATOM      5  C5  <0> d           2.754   0.211  -0.025  0.00  0.00     0.079 A 
ATOM      6  S1  <0> d           4.364   0.752  -0.510  0.00  0.00    -0.046 SA
ATOM      7  C6  <0> d           4.135   0.660  -2.178  0.00  0.00     0.174 A 
ATOM      8  N1  <0> d           2.886   0.238  -2.300  0.00  0.00    -0.227 NA
ATOM      9  C10 <0> d           2.169   0.016   1.222  0.00  0.00     0.169 C 
ATOM     10  O2  <0> d           2.773   0.252   2.249  0.00  0.00    -0.292 OA
ATOM     11  C11 <0> d           0.743  -0.503   1.243  0.00  0.00     0.093 C 
ATOM     12  C12 <0> d          -1.436  -0.526   0.032  0.00  0.00     0.015 C 
ENDROOT
BRANCH   7  13
ATOM     13  N2  <0> d           5.038   0.956  -3.183  0.00  0.00    -0.305 N 
ATOM     14  C7  <0> d           6.279   1.377  -2.870  0.00  0.00     0.232 C 
ATOM     15  O1  <0> d           6.604   1.496  -1.708  0.00  0.00    -0.272 OA
ATOM     16  H6  <0> d           4.778   0.861  -4.112  0.00  0.00     0.171 HD
BRANCH  14  17
ATOM     17  C8  <0> d           7.263   1.700  -3.964  0.00  0.00     0.176 C 
BRANCH  17  18
ATOM     18  S2  <0> d           8.833   2.234  -3.228  0.00  0.00    -0.164 SA
ATOM     19  C9  <0> d           9.893   2.580  -4.659  0.00  0.00     0.090 C 
ENDBRANCH  17  18
ENDBRANCH  14  17
ENDBRANCH   7  13
TORSDOF 3
