REMARK  4 active torsions:
REMARK  status: ('A' for Active; 'I' for Inactive)
REMARK    1  A    between atoms: C2_2  and  C15_23 
REMARK    2  A    between atoms: C3_4  and  N2_6 
REMARK    3  A    between atoms: C6_10  and  N3_13 
REMARK    4  A    between atoms: C15_23  and  C16_24 
ROOT
ATOM      1  N2  <0> d           2.395  -1.405  -0.029  0.00  0.00    -0.227 N 
ATOM      2  C4  <0> d           3.733  -1.440  -0.036  0.00  0.00     0.235 A 
ATOM      3  O1  <0> d           4.461  -0.471  -0.032  0.00  0.00    -0.272 OA
ATOM      4  C5  <0> d           4.194  -2.882  -0.051  0.00  0.00     0.149 A 
ATOM      5  C6  <0> d           2.875  -3.682  -0.050  0.00  0.00     0.323 A 
ATOM      6  C7  <0> d           1.809  -2.609  -0.030  0.00  0.00     0.267 A 
ATOM      7  O2  <0> d           0.613  -2.807  -0.018  0.00  0.00    -0.270 OA
ENDROOT
BRANCH   5   8
ATOM      8  N3  <0> d           2.782  -4.524   1.150  0.00  0.00     0.103 N 
ATOM      9  C12 <0> d           1.530  -5.290   1.160  0.00  0.00     0.279 C 
ATOM     10  C11 <0> d           1.397  -6.037   2.489  0.00  0.00     0.099 C 
ATOM     11  C10 <0> d           2.597  -6.971   2.664  0.00  0.00     0.167 C 
ATOM     12  C9  <0> d           3.893  -6.160   2.596  0.00  0.00     0.099 C 
ATOM     13  O4  <0> d           2.510  -7.637   3.930  0.00  0.00    -0.353 OA
ATOM     14  O3  <0> d           2.594  -7.956   1.619  0.00  0.00    -0.353 OA
ATOM     15  C8  <0> d           3.949  -5.409   1.264  0.00  0.00     0.279 C 
ATOM     16  C14 <0> d           2.468  -9.054   3.665  0.00  0.00     0.197 C 
ATOM     17  C13 <0> d           3.084  -9.164   2.248  0.00  0.00     0.197 C 
ENDBRANCH   5   8
BRANCH   1  18
ATOM     18  C3  <0> d           1.672  -0.214  -0.015  0.00  0.00     0.182 A 
ATOM     19  N1  <0> d           2.129   1.019  -0.013  0.00  0.00    -0.227 NA
ATOM     20  C2  <0> d           1.307   2.052   0.001  0.00  0.00     0.054 A 
ATOM     21  C1  <0> d          -0.022   1.781   0.012  0.00  0.00     0.081 A 
ATOM     22  S1  <0> d           0.002  -0.004   0.002  0.00  0.00    -0.061 SA
BRANCH  20  23
ATOM     23  C15 <0> d           1.822   3.468   0.003  0.00  0.00     0.173 C 
BRANCH  23  24
ATOM     24  C16 <0> d           2.771   3.656   1.159  0.00  0.00     0.178 C 
ATOM     25  O5  <0> d           3.006   2.725   1.911  0.00  0.00    -0.648 OA
ATOM     26  O6  <0> d           3.302   4.737   1.342  0.00  0.00    -0.648 OA
ENDBRANCH  23  24
ENDBRANCH  20  23
ENDBRANCH   1  18
TORSDOF 4
