REMARK  5 active torsions:
REMARK  status: ('A' for Active; 'I' for Inactive)
REMARK    1  A    between atoms: C6_8  and  S1_11 
REMARK    2  A    between atoms: S1_11  and  C7_12 
REMARK    3  A    between atoms: C7_12  and  C8_13 
REMARK       I    between atoms: C8_13  and  N4_15 
REMARK    4  A    between atoms: N4_15  and  C9_16 
REMARK    5  A    between atoms: C10_17  and  C17_25 
REMARK       I    between atoms: C17_25  and  N5_27 
ROOT
ATOM      1  C8  <0> d           8.060  -0.992  -0.077  0.00  0.00     0.232 C 
ATOM      2  O1  <0> d           8.791  -0.025  -0.078  0.00  0.00    -0.272 OA
ATOM      3  N4  <0> d           8.585  -2.234  -0.088  0.00  0.00    -0.320 N 
ATOM      4  H6  <0> d           8.000  -3.007  -0.088  0.00  0.00     0.169 HD
ENDROOT
BRANCH   3   5
ATOM      5  C9  <0> d           9.961  -2.404  -0.101  0.00  0.00     0.093 A 
ATOM      6  S2  <0> d          11.197  -1.190  -0.105  0.00  0.00    -0.075 SA
ATOM      7  C12 <0> d          12.625  -2.235  -0.122  0.00  0.00    -0.008 A 
ATOM      8  C11 <0> d          12.133  -3.493  -0.126  0.00  0.00    -0.026 A 
ATOM      9  C13 <0> d          14.067  -1.830  -0.131  0.00  0.00     0.047 C 
ATOM     10  C10 <0> d          10.683  -3.589  -0.109  0.00  0.00     0.072 A 
ATOM     11  C16 <0> d          13.062  -4.700  -0.140  0.00  0.00     0.041 C 
ATOM     12  C15 <0> d          14.448  -4.248  -0.606  0.00  0.00     0.005 C 
ATOM     13  C14 <0> d          14.916  -3.056   0.234  0.00  0.00     0.005 C 
BRANCH  10  14
ATOM     14  C17 <0> d          10.008  -4.891  -0.104  0.00  0.00     0.252 C 
ATOM     15  O2  <0> d           9.719  -5.431  -1.156  0.00  0.00    -0.268 OA
ATOM     16  N5  <0> d           9.707  -5.490   1.066  0.00  0.00    -0.366 N 
ATOM     17  H15 <0> d           9.938  -5.060   1.904  0.00  0.00     0.159 HD
ATOM     18  H16 <0> d           9.261  -6.351   1.069  0.00  0.00     0.159 HD
ENDBRANCH  10  14
ENDBRANCH   3   5
BRANCH   1  19
ATOM     19  C7  <0> d           6.564  -0.807  -0.063  0.00  0.00     0.185 C 
BRANCH  19  20
ATOM     20  S1  <0> d           6.176   0.961  -0.049  0.00  0.00    -0.083 SA
BRANCH  20  21
ATOM     21  C6  <0> d           4.415   0.887  -0.034  0.00  0.00     0.169 A 
ATOM     22  N2  <0> d           3.708  -0.216  -0.034  0.00  0.00    -0.221 NA
ATOM     23  C5  <0> d           2.386   0.094  -0.020  0.00  0.00     0.107 A 
ATOM     24  C1  <0> d           1.216  -0.669  -0.013  0.00  0.00     0.061 A 
ATOM     25  C4  <0> d           2.285   1.497  -0.012  0.00  0.00     0.158 A 
ATOM     26  C2  <0> d           0.002  -0.004   0.002  0.00  0.00     0.053 A 
ATOM     27  C3  <0> d          -0.017   1.382   0.010  0.00  0.00     0.143 A 
ATOM     28 Cl1  <0> d          -1.486  -0.899   0.011  0.00  0.00    -0.083 Cl
ATOM     29  N1  <0> d           1.100   2.082   0.003  0.00  0.00    -0.239 NA
ATOM     30  N3  <0> d           3.584   1.972  -0.021  0.00  0.00    -0.318 N 
ATOM     31  H1  <0> d           3.863   2.932  -0.018  0.00  0.00     0.169 HD
ENDBRANCH  20  21
ENDBRANCH  19  20
ENDBRANCH   1  19
TORSDOF 5
