REMARK  5 active torsions:
REMARK  status: ('A' for Active; 'I' for Inactive)
REMARK    1  A    between atoms: C14_15  and  C21_24 
REMARK    2  A    between atoms: C18_19  and  C19_20 
REMARK    3  A    between atoms: C19_20  and  C20_22 
REMARK    4  A    between atoms: C20_22  and  O3_23 
REMARK    5  A    between atoms: C21_24  and  O4_25 
ROOT
ATOM      1  C1  <0> d           2.045   2.038   1.446  0.00  0.00     0.020 C 
ATOM      2  C2  <0> d           1.305   2.095   0.108  0.00  0.00    -0.016 C 
ATOM      3  C3  <0> d          -0.120   1.625   0.339  0.00  0.00     0.022 C 
ATOM      4  C4  <0> d          -0.214   0.100   0.375  0.00  0.00     0.084 C 
ATOM      5  C5  <0> d           0.327  -0.419  -0.943  0.00  0.00     0.149 C 
ATOM      6  O1  <0> d          -0.283  -1.229  -1.609  0.00  0.00    -0.293 OA
ATOM      7  C6  <0> d           1.627   0.110  -1.370  0.00  0.00     0.053 C 
ATOM      8  C7  <0> d           2.069   1.268  -0.879  0.00  0.00    -0.068 C 
ATOM      9  C8  <0> d           3.428   1.758  -1.345  0.00  0.00     0.035 C 
ATOM     10  C9  <0> d           3.307   3.224  -1.765  0.00  0.00     0.010 C 
ATOM     11  C10 <0> d           2.722   4.034  -0.604  0.00  0.00    -0.004 C 
ATOM     12  C11 <0> d           1.285   3.561  -0.341  0.00  0.00     0.002 C 
ATOM     13  C12 <0> d           0.604   4.393   0.742  0.00  0.00     0.007 C 
ATOM     14  C13 <0> d           0.660   5.896   0.423  0.00  0.00     0.013 C 
ATOM     15  C14 <0> d           2.123   6.266   0.272  0.00  0.00    -0.005 C 
ATOM     16  C15 <0> d           2.659   5.502  -0.984  0.00  0.00     0.001 C 
ATOM     17  C16 <0> d           4.011   6.198  -1.194  0.00  0.00     0.007 C 
ATOM     18  C17 <0> d           3.683   7.696  -0.951  0.00  0.00     0.013 C 
ATOM     19  C18 <0> d           2.425   7.726  -0.047  0.00  0.00     0.068 C 
ENDROOT
BRANCH  19  20
ATOM     20  C19 <0> d           2.709   8.490   1.221  0.00  0.00     0.155 C 
ATOM     21  O2  <0> d           3.842   8.587   1.626  0.00  0.00    -0.295 OA
BRANCH  20  22
ATOM     22  C20 <0> d           1.579   9.133   1.982  0.00  0.00     0.242 C 
BRANCH  22  23
ATOM     23  O3  <0> d           2.098   9.793   3.139  0.00  0.00    -0.394 OA
ATOM     24  H27 <0> d           1.425  10.230   3.678  0.00  0.00     0.209 HD
ENDBRANCH  22  23
ENDBRANCH  20  22
ENDBRANCH  19  20
BRANCH  15  25
ATOM     25  C21 <0> d           2.898   5.836   1.519  0.00  0.00     0.174 C 
BRANCH  25  26
ATOM     26  O4  <0> d           2.282   6.398   2.680  0.00  0.00    -0.400 OA
ATOM     27  H30 <0> d           2.721   6.166   3.510  0.00  0.00     0.209 HD
ENDBRANCH  25  26
ENDBRANCH  15  25
TORSDOF 5
