REMARK  6 active torsions:
REMARK  status: ('A' for Active; 'I' for Inactive)
REMARK    1  A    between atoms: C3_3  and  C4_4 
REMARK    2  A    between atoms: C3_3  and  N3_30 
REMARK    3  A    between atoms: C4_4  and  N1_5 
REMARK    4  A    between atoms: C9_11  and  C16_20 
REMARK    5  A    between atoms: C13_15  and  O2_19 
REMARK    6  A    between atoms: C21_25  and  O3_26 
ROOT
ATOM      1  N1  <0> d           0.667   1.058   0.002  0.00  0.00    -0.326 N 
ATOM      2  C5  <0> d           1.100  -0.228  -0.009  0.00  0.00     0.214 A 
ATOM      3  N2  <0> d           2.368  -0.519  -0.023  0.00  0.00    -0.219 NA
ATOM      4  C6  <0> d           3.321   0.432  -0.026  0.00  0.00     0.182 A 
ATOM      5  C7  <0> d           2.966   1.747  -0.016  0.00  0.00     0.052 A 
ATOM      6  C8  <0> d           1.592   2.083  -0.002  0.00  0.00     0.113 A 
ATOM      7  C9  <0> d           3.999   2.838  -0.018  0.00  0.00     0.098 C 
ATOM      8  C10 <0> d           5.333   2.296  -0.455  0.00  0.00    -0.011 A 
ATOM      9  C11 <0> d           6.321   3.171  -0.871  0.00  0.00     0.014 A 
ATOM     10  C12 <0> d           7.551   2.690  -1.274  0.00  0.00     0.037 A 
ATOM     11  C13 <0> d           7.800   1.324  -1.264  0.00  0.00     0.068 A 
ATOM     12  C14 <0> d           6.812   0.446  -0.849  0.00  0.00     0.074 A 
ATOM     13  C15 <0> d           5.575   0.931  -0.443  0.00  0.00     0.087 A 
ATOM     14  O1  <0> d           4.620   0.060  -0.039  0.00  0.00    -0.291 OA
ATOM     15  H13 <0> d           0.283   3.660   0.017  0.00  0.00     0.157 HD
ATOM     16  N4  <0> d           1.264   3.382   0.007  0.00  0.00    -0.385 N 
ATOM     17  H26 <0> d           2.000   4.097   0.003  0.00  0.00     0.157 HD
ENDROOT
BRANCH   7  18
ATOM     18  C16 <0> d           4.123   3.409   1.371  0.00  0.00    -0.011 A 
ATOM     19  C21 <0> d           3.863   4.753   1.594  0.00  0.00     0.075 A 
ATOM     20  C20 <0> d           3.978   5.276   2.874  0.00  0.00     0.037 A 
ATOM     21  C19 <0> d           4.352   4.458   3.922  0.00  0.00     0.003 A 
ATOM     22  C18 <0> d           4.611   3.119   3.697  0.00  0.00     0.001 A 
ATOM     23  C17 <0> d           4.492   2.594   2.423  0.00  0.00     0.011 A 
BRANCH  19  24
ATOM     24  O3  <0> d           3.495   5.556   0.561  0.00  0.00    -0.355 OA
ATOM     25  C22 <0> d           3.243   6.929   0.865  0.00  0.00     0.210 C 
ENDBRANCH  19  24
ENDBRANCH   7  18
BRANCH   1  26
ATOM     26  C4  <0> d          -0.768   1.355   0.012  0.00  0.00     0.159 C 
BRANCH  26  27
ATOM     27  C3  <0> d          -1.249   1.592  -1.421  0.00  0.00     0.254 C 
BRANCH  27  28
ATOM     28  N3  <0> d          -2.701   1.869  -1.397  0.00  0.00    -0.077 N 
ATOM     29  C1  <0> d          -2.956   3.167  -0.738  0.00  0.00     0.269 C 
ATOM     30  C2  <0> d          -3.235   1.889  -2.775  0.00  0.00     0.269 C 
ATOM     31  H25 <0> d          -3.173   1.128  -0.867  0.00  0.00     0.279 HD
ENDBRANCH  27  28
ENDBRANCH  26  27
ENDBRANCH   1  26
BRANCH  11  32
ATOM     32  O2  <0> d           9.010   0.850  -1.661  0.00  0.00    -0.361 OA
ATOM     33  H17 <0> d           9.655   0.772  -0.945  0.00  0.00     0.217 HD
ENDBRANCH  11  32
TORSDOF 6
