REMARK  3 active torsions:
REMARK  status: ('A' for Active; 'I' for Inactive)
REMARK    1  A    between atoms: C6_6  and  C7_7 
REMARK    2  A    between atoms: C7_7  and  C8_8 
REMARK    3  A    between atoms: C7_7  and  O2_13 
ROOT
ATOM      1  C1  <0> d          -0.017   1.378   0.010  0.00  0.00     0.012 A 
ATOM      2  C2  <0> d           1.164   2.092   0.002  0.00  0.00     0.031 A 
ATOM      3  C3  <0> d           2.386   1.423  -0.013  0.00  0.00     0.041 A 
ATOM      4  C4  <0> d           2.392   0.034  -0.021  0.00  0.00    -0.022 A 
ATOM      5  C5  <0> d           1.212  -0.676  -0.013  0.00  0.00     0.019 A 
ATOM      6  C6  <0> d           0.002  -0.004   0.002  0.00  0.00    -0.026 A 
ATOM      7  C12 <0> d           3.843  -0.386  -0.037  0.00  0.00     0.144 A 
ATOM      8  C13 <0> d           4.604   0.923  -0.037  0.00  0.00     0.226 A 
ATOM      9  O3  <0> d           5.810   1.055  -0.048  0.00  0.00    -0.273 OA
ATOM     10  N1  <0> d           3.693   1.911  -0.023  0.00  0.00    -0.326 N 
ATOM     11  H15 <0> d           3.918   2.854  -0.020  0.00  0.00     0.169 HD
ENDROOT
BRANCH   6  12
ATOM     12  C7  <0> d          -1.292  -0.777   0.011  0.00  0.00     0.180 C 
BRANCH  12  13
ATOM     13  C8  <0> d          -1.844  -0.832   1.437  0.00  0.00     0.154 C 
ATOM     14  O1  <0> d          -2.008   0.497   1.945  0.00  0.00    -0.383 OA
ATOM     15  C11 <0> d          -3.396   0.743   2.231  0.00  0.00     0.168 C 
ATOM     16  C10 <0> d          -4.013  -0.657   2.473  0.00  0.00     0.029 C 
ATOM     17  C9  <0> d          -3.231  -1.508   1.435  0.00  0.00     0.037 C 
ENDBRANCH  12  13
BRANCH  12  18
ATOM     18  O2  <0> d          -2.238  -0.131  -0.843  0.00  0.00    -0.388 OA
ATOM     19  H12 <0> d          -2.447   0.777  -0.583  0.00  0.00     0.210 HD
ENDBRANCH  12  18
ENDBRANCH   6  12
TORSDOF 3
