REMARK  2 active torsions:
REMARK  status: ('A' for Active; 'I' for Inactive)
REMARK    1  A    between atoms: C5_5  and  N1_8 
REMARK       I    between atoms: N1_8  and  C8_9 
REMARK    2  A    between atoms: C8_9  and  C9_11 
ROOT
ATOM      1  C9  <0> d           0.071  -6.352   0.920  0.00  0.00     0.131 C 
ATOM      2  C10 <0> d           1.401  -6.846   0.288  0.00  0.00     0.050 C 
ATOM      3  C11 <0> d           1.513  -8.277   0.867  0.00  0.00     0.191 C 
ATOM      4  C12 <0> d           2.996  -8.670   0.957  0.00  0.00     0.035 C 
ATOM      5  C13 <0> d           3.293  -8.794   2.468  0.00  0.00     0.030 C 
ATOM      6  C14 <0> d           2.192  -7.914   3.110  0.00  0.00     0.237 C 
ATOM      7  N2  <0> d           0.984  -8.170   2.253  0.00  0.00    -0.044 N 
ATOM      8  C15 <0> d           0.082  -7.010   2.308  0.00  0.00     0.249 A 
ATOM      9  C16 <0> d           0.519  -6.027   3.362  0.00  0.00     0.015 A 
ATOM     10  C17 <0> d           1.674  -5.304   3.557  0.00  0.00     0.012 A 
ATOM     11  C18 <0> d           1.786  -4.459   4.647  0.00  0.00     0.001 A 
ATOM     12  C19 <0> d           0.735  -4.344   5.538  0.00  0.00     0.002 A 
ATOM     13  C20 <0> d          -0.424  -5.068   5.347  0.00  0.00     0.030 A 
ATOM     14  C21 <0> d          -0.544  -5.920   4.252  0.00  0.00     0.046 A 
ATOM     15  N3  <0> d          -1.597  -6.743   3.847  0.00  0.00    -0.319 N 
ATOM     16  C22 <0> d          -1.311  -7.415   2.716  0.00  0.00     0.266 A 
ATOM     17  O2  <0> d          -2.035  -8.197   2.138  0.00  0.00    -0.270 OA
ATOM     18  C23 <0> d          -2.867  -6.860   4.568  0.00  0.00     0.159 C 
ATOM     19  H26 <0> d           0.513  -9.019   2.526  0.00  0.00     0.282 HD
ENDROOT
BRANCH   1  20
ATOM     20  C8  <0> d           0.064  -4.849   1.041  0.00  0.00     0.229 C 
ATOM     21  N1  <0> d          -1.096  -4.195   1.245  0.00  0.00    -0.327 N 
ATOM     22  H10 <0> d          -1.916  -4.694   1.389  0.00  0.00     0.169 HD
ATOM     23  O1  <0> d           1.103  -4.229   0.955  0.00  0.00    -0.273 OA
BRANCH  21  24
ATOM     24  C5  <0> d          -1.119  -2.796   1.251  0.00  0.00     0.034 A 
ATOM     25  C4  <0> d          -0.252  -2.083   0.433  0.00  0.00     0.030 A 
ATOM     26  C3  <0> d          -0.278  -0.702   0.441  0.00  0.00     0.009 A 
ATOM     27  C2  <0> d          -1.165  -0.030   1.260  0.00  0.00    -0.062 A 
ATOM     28  C1  <0> d          -1.190   1.477   1.266  0.00  0.00     0.048 C 
ATOM     29  C7  <0> d          -2.026  -0.737   2.079  0.00  0.00     0.009 A 
ATOM     30  C6  <0> d          -2.009  -2.118   2.073  0.00  0.00     0.030 A 
ENDBRANCH  21  24
ENDBRANCH   1  20
TORSDOF 2
