REMARK  8 active torsions:
REMARK  status: ('A' for Active; 'I' for Inactive)
REMARK    1  A    between atoms: O1_2  and  C2_3 
REMARK    2  A    between atoms: C5_6  and  C8_9 
REMARK    3  A    between atoms: C8_9  and  O3_27 
REMARK    4  A    between atoms: C15_16  and  C16_17 
REMARK    5  A    between atoms: C15_16  and  N1_30 
REMARK    6  A    between atoms: C20_21  and  C22_24 
REMARK    7  A    between atoms: C21_22  and  O2_23 
REMARK    8  A    between atoms: C22_24  and  C23_25 
ROOT
ATOM      1  C8  <0> d           3.366   2.256   0.729  0.00  0.00     0.089 C 
ATOM      2  C9  <0> d           3.234   3.446  -0.226  0.00  0.00     0.076 C 
ATOM      3  C10 <0> d           4.582   4.182  -0.291  0.00  0.00     0.192 C 
ATOM      4  C11 <0> d           5.687   3.126  -0.520  0.00  0.00     0.035 C 
ATOM      5  C12 <0> d           6.095   2.686   0.919  0.00  0.00     0.035 C 
ATOM      6  C13 <0> d           5.196   3.520   1.861  0.00  0.00     0.192 C 
ATOM      7  C14 <0> d           3.893   2.735   2.084  0.00  0.00     0.076 C 
ATOM      8  N1  <0> d           4.846   4.689   1.050  0.00  0.00    -0.058 N 
ATOM      9  H30 <0> d           4.006   5.143   1.428  0.00  0.00     0.281 HD
ENDROOT
BRANCH   8  10
ATOM     10  C15 <0> d           5.974   5.676   1.037  0.00  0.00     0.277 C 
BRANCH  10  11
ATOM     11  C16 <0> d           5.513   6.982   0.444  0.00  0.00     0.001 A 
ATOM     12  C21 <0> d           4.711   7.837   1.187  0.00  0.00     0.080 A 
ATOM     13  C20 <0> d           4.293   9.042   0.640  0.00  0.00    -0.021 A 
ATOM     14  C19 <0> d           4.665   9.382  -0.646  0.00  0.00     0.010 A 
ATOM     15  C18 <0> d           5.460   8.525  -1.386  0.00  0.00     0.001 A 
ATOM     16  C17 <0> d           5.883   7.327  -0.842  0.00  0.00     0.012 A 
BRANCH  12  17
ATOM     17  O2  <0> d           4.341   7.498   2.450  0.00  0.00    -0.360 OA
ATOM     18  H23 <0> d           4.955   7.798   3.134  0.00  0.00     0.217 HD
ENDBRANCH  12  17
BRANCH  13  19
ATOM     19  C22 <0> d           3.427   9.975   1.446  0.00  0.00     0.067 C 
BRANCH  19  20
ATOM     20  C23 <0> d           4.299  10.845   2.314  0.00  0.00    -0.032 C 
ATOM     21  C24 <0> d           4.196  12.149   2.248  0.00  0.00     0.007 C 
ENDBRANCH  19  20
ENDBRANCH  13  19
ENDBRANCH  10  11
ENDBRANCH   8  10
BRANCH   1  22
ATOM     22  C5  <0> d           2.016   1.611   0.915  0.00  0.00    -0.024 A 
ATOM     23  C4  <0> d           0.868   2.376   0.826  0.00  0.00     0.013 A 
ATOM     24  C3  <0> d          -0.370   1.787   0.996  0.00  0.00     0.037 A 
ATOM     25  C2  <0> d          -0.461   0.428   1.258  0.00  0.00     0.068 A 
ATOM     26  C7  <0> d           0.693  -0.337   1.347  0.00  0.00     0.037 A 
ATOM     27  C6  <0> d           1.929   0.256   1.175  0.00  0.00     0.013 A 
BRANCH  25  28
ATOM     28  O1  <0> d          -1.678  -0.153   1.427  0.00  0.00    -0.356 OA
ATOM     29  C1  <0> d          -1.695  -1.557   1.693  0.00  0.00     0.210 C 
ENDBRANCH  25  28
ENDBRANCH   1  22
BRANCH   1  30
ATOM     30  O3  <0> d           4.275   1.302   0.176  0.00  0.00    -0.385 OA
ATOM     31  H29 <0> d           4.407   0.518   0.727  0.00  0.00     0.211 HD
ENDBRANCH   1  30
TORSDOF 8
