REMARK  5 active torsions:
REMARK  status: ('A' for Active; 'I' for Inactive)
REMARK    1  A    between atoms: C2_2  and  N4_35 
REMARK    2  A    between atoms: C13_15  and  C14_16 
REMARK    3  A    between atoms: C15_17  and  O4_33 
REMARK    4  A    between atoms: N3_21  and  C18_24 
REMARK    5  A    between atoms: C21_27  and  O3_30 
ROOT
ATOM      1  C14 <0> d          -4.806   0.972   0.131  0.00  0.00     0.098 A 
ATOM      2  C15 <0> d          -4.763  -0.386   0.019  0.00  0.00     0.160 A 
ATOM      3  N2  <0> d          -3.550  -1.017  -0.092  0.00  0.00    -0.283 N 
ATOM      4  C16 <0> d          -2.409  -0.304  -0.096  0.00  0.00     0.338 A 
ATOM      5  O1  <0> d          -1.343  -0.880  -0.200  0.00  0.00    -0.246 OA
ATOM      6  N3  <0> d          -2.429   1.036   0.019  0.00  0.00    -0.229 N 
ATOM      7  C17 <0> d          -3.600   1.695   0.130  0.00  0.00     0.269 A 
ATOM      8  O2  <0> d          -3.613   2.910   0.229  0.00  0.00    -0.267 OA
ATOM      9  C25 <0> d          -3.497  -2.476  -0.213  0.00  0.00     0.163 C 
ENDROOT
BRANCH   1  10
ATOM     10  C13 <0> d          -6.126   1.688   0.254  0.00  0.00     0.281 C 
ATOM     11  C12 <0> d          -6.345   2.559  -0.960  0.00  0.00     0.053 A 
ATOM     12  C5  <0> d          -6.817   3.825  -0.884  0.00  0.00    -0.019 A 
ATOM     13  N1  <0> d          -6.117   2.229  -2.268  0.00  0.00    -0.356 N 
ATOM     14  C4  <0> d          -7.177   4.500   0.415  0.00  0.00     0.069 C 
ATOM     15  C6  <0> d          -6.891   4.335  -2.234  0.00  0.00    -0.001 A 
ATOM     16  C3  <0> d          -7.296   3.417   1.496  0.00  0.00     0.241 C 
ATOM     17  N4  <0> d          -6.088   2.564   1.449  0.00  0.00    -0.057 N 
ATOM     18  H27 <0> d          -5.258   3.167   1.392  0.00  0.00     0.281 HD
ATOM     19  C11 <0> d          -6.437   3.285  -3.074  0.00  0.00     0.043 A 
ATOM     20  C7  <0> d          -7.296   5.564  -2.765  0.00  0.00     0.014 A 
ATOM     21  C10 <0> d          -6.386   3.453  -4.456  0.00  0.00     0.030 A 
ATOM     22  C9  <0> d          -6.794   4.679  -4.954  0.00  0.00     0.002 A 
ATOM     23  C8  <0> d          -7.235   5.701  -4.130  0.00  0.00     0.001 A 
ATOM     24  H1  <0> d          -5.778   1.374  -2.577  0.00  0.00     0.166 HD
BRANCH  17  25
ATOM     25  C2  <0> d          -6.002   1.743   2.674  0.00  0.00     0.231 C 
ATOM     26  C1  <0> d          -5.742   2.665   3.866  0.00  0.00     0.034 C 
ENDBRANCH  17  25
ENDBRANCH   1  10
BRANCH   2  27
ATOM     27  O4  <0> d          -5.906  -1.105   0.018  0.00  0.00    -0.345 OA
ATOM     28  H26 <0> d          -5.771  -2.058  -0.066  0.00  0.00     0.219 HD
ENDBRANCH   2  27
BRANCH   6  29
ATOM     29  C18 <0> d          -1.224   1.754   0.017  0.00  0.00     0.047 A 
ATOM     30  C23 <0> d          -0.689   2.210  -1.180  0.00  0.00     0.033 A 
ATOM     31  C22 <0> d           0.500   2.911  -1.182  0.00  0.00     0.039 A 
ATOM     32  C21 <0> d           1.158   3.164   0.013  0.00  0.00     0.068 A 
ATOM     33  C20 <0> d           0.622   2.713   1.210  0.00  0.00     0.039 A 
ATOM     34  C19 <0> d          -0.568   2.012   1.213  0.00  0.00     0.033 A 
BRANCH  32  35
ATOM     35  O3  <0> d           2.329   3.855   0.011  0.00  0.00    -0.356 OA
ATOM     36  C24 <0> d           2.824   4.289  -1.257  0.00  0.00     0.210 C 
ENDBRANCH  32  35
ENDBRANCH   6  29
TORSDOF 5
