REMARK  4 active torsions:
REMARK  status: ('A' for Active; 'I' for Inactive)
REMARK    1  A    between atoms: C3_3  and  C10_13 
REMARK    2  A    between atoms: N2_6  and  C5_7 
REMARK       I    between atoms: C10_13  and  N4_15 
REMARK    3  A    between atoms: N4_15  and  C11_16 
REMARK    4  A    between atoms: C14_19  and  S1_23 
ROOT
ATOM      1  C10 <0> d          -0.006  -0.370  -2.519  0.00  0.00     0.259 C 
ATOM      2  O1  <0> d          -0.032   0.817  -2.781  0.00  0.00    -0.267 OA
ATOM      3  N4  <0> d           0.005  -1.279  -3.515  0.00  0.00    -0.323 N 
ATOM      4  H9  <0> d           0.093  -2.223  -3.309  0.00  0.00     0.169 HD
ENDROOT
BRANCH   1   5
ATOM      5  C3  <0> d           0.015  -0.816  -1.115  0.00  0.00     0.075 A 
ATOM      6  C2  <0> d           0.008  -0.004   0.002  0.00  0.00     0.051 A 
ATOM      7  C1  <0> d          -0.023   1.502   0.011  0.00  0.00     0.071 C 
ATOM      8  N2  <0> d           0.038  -0.807   1.082  0.00  0.00    -0.220 N 
ATOM      9  N1  <0> d           0.056  -2.137   0.645  0.00  0.00    -0.177 NA
ATOM     10  C4  <0> d           0.046  -2.154  -0.659  0.00  0.00     0.158 A 
BRANCH   8  11
ATOM     11  C5  <0> d           0.049  -0.385   2.415  0.00  0.00     0.150 A 
ATOM     12  N3  <0> d           0.515   0.816   2.718  0.00  0.00    -0.241 NA
ATOM     13  C9  <0> d           0.538   1.255   3.961  0.00  0.00     0.119 A 
ATOM     14  C8  <0> d           0.083   0.467   5.000  0.00  0.00     0.019 A 
ATOM     15  C7  <0> d          -0.410  -0.801   4.724  0.00  0.00     0.005 A 
ATOM     16  C6  <0> d          -0.426  -1.232   3.409  0.00  0.00     0.052 A 
ENDBRANCH   8  11
ENDBRANCH   1   5
BRANCH   3  17
ATOM     17  C11 <0> d          -0.112  -0.861  -4.844  0.00  0.00     0.041 A 
ATOM     18  C16 <0> d           0.461   0.337  -5.250  0.00  0.00     0.073 A 
ATOM     19  C15 <0> d           0.349   0.745  -6.567  0.00  0.00     0.143 A 
ATOM     20  C14 <0> d          -0.344  -0.034  -7.478  0.00  0.00     0.135 A 
ATOM     21  F1  <0> d           0.912   1.908  -6.963  0.00  0.00    -0.204 F 
ATOM     22  C13 <0> d          -0.921  -1.226  -7.074  0.00  0.00     0.143 A 
ATOM     23  C12 <0> d          -0.807  -1.641  -5.760  0.00  0.00     0.073 A 
ATOM     24  F2  <0> d          -1.596  -1.985  -7.965  0.00  0.00    -0.204 F 
BRANCH  20  25
ATOM     25  S1  <0> d          -0.491   0.492  -9.153  0.00  0.00     0.177 S 
ATOM     26  O2  <0> d           0.641   1.322  -9.373  0.00  0.00    -0.223 OA
ATOM     27  O3  <0> d          -0.666  -0.707  -9.896  0.00  0.00    -0.223 OA
ATOM     28  C17 <0> d          -2.011   1.483  -9.199  0.00  0.00     0.167 C 
ENDBRANCH  20  25
ENDBRANCH   3  17
TORSDOF 4
