REMARK  6 active torsions:
REMARK  status: ('A' for Active; 'I' for Inactive)
REMARK    1  A    between atoms: C4_4  and  C7_7 
REMARK    2  A    between atoms: C7_7  and  C8_8 
REMARK    3  A    between atoms: C8_8  and  C9_9 
REMARK    4  A    between atoms: C9_9  and  C12_16 
REMARK    5  A    between atoms: C17_21  and  C18_22 
REMARK    6  A    between atoms: C17_21  and  N4_34 
ROOT
ATOM      1  C12 <0> d          -3.480   3.511   2.902  0.00  0.00     0.026 C 
ATOM      2  C13 <0> d          -3.485   2.275   3.805  0.00  0.00     0.035 C 
ATOM      3  C14 <0> d          -3.921   2.680   5.215  0.00  0.00     0.235 C 
ATOM      4  C15 <0> d          -5.270   4.493   4.339  0.00  0.00     0.235 C 
ATOM      5  C16 <0> d          -4.876   4.142   2.903  0.00  0.00     0.035 C 
ATOM      6  N4  <0> d          -5.281   3.257   5.150  0.00  0.00    -0.067 N 
ATOM      7  H29 <0> d          -5.911   2.576   4.711  0.00  0.00     0.280 HD
ENDROOT
BRANCH   1   8
ATOM      8  C9  <0> d          -3.105   3.102   1.476  0.00  0.00     0.119 A 
ATOM      9  N2  <0> d          -3.047   4.280   0.594  0.00  0.00    -0.324 N 
ATOM     10  C11 <0> d          -3.975   4.091  -0.362  0.00  0.00     0.323 A 
ATOM     11  H11 <0> d          -2.455   5.043   0.684  0.00  0.00     0.165 HD
ATOM     12  N1  <0> d          -4.634   2.936  -0.213  0.00  0.00    -0.277 N 
ATOM     13  O2  <0> d          -4.192   4.882  -1.259  0.00  0.00    -0.247 OA
ATOM     14  C10 <0> d          -4.198   2.250   0.861  0.00  0.00     0.254 A 
ATOM     15  H10 <0> d          -5.338   2.630  -0.806  0.00  0.00     0.173 HD
ATOM     16  O1  <0> d          -4.597   1.175   1.255  0.00  0.00    -0.270 OA
BRANCH   8  17
ATOM     17  C8  <0> d          -1.770   2.355   1.466  0.00  0.00     0.046 C 
BRANCH  17  18
ATOM     18  C7  <0> d          -1.332   2.114   0.020  0.00  0.00     0.041 C 
BRANCH  18  19
ATOM     19  C4  <0> d          -0.017   1.378   0.010  0.00  0.00    -0.058 A 
ATOM     20  C3  <0> d           0.002  -0.004   0.002  0.00  0.00     0.007 A 
ATOM     21  C2  <0> d           1.208  -0.679  -0.014  0.00  0.00     0.001 A 
ATOM     22  C1  <0> d           2.396   0.029  -0.022  0.00  0.00     0.000 A 
ATOM     23  C6  <0> d           2.377   1.411  -0.014  0.00  0.00     0.001 A 
ATOM     24  C5  <0> d           1.171   2.086   0.002  0.00  0.00     0.007 A 
ENDBRANCH  18  19
ENDBRANCH  17  18
ENDBRANCH   8  17
ENDBRANCH   1   8
BRANCH   6  25
ATOM     25  C17 <0> d          -5.769   3.552   6.513  0.00  0.00     0.273 C 
BRANCH  25  26
ATOM     26  C18 <0> d          -5.978   2.252   7.246  0.00  0.00    -0.030 A 
ATOM     27  C26 <0> d          -4.959   1.725   7.978  0.00  0.00     0.041 A 
ATOM     28  C25 <0> d          -5.147   0.512   8.664  0.00  0.00     0.067 A 
ATOM     29  C21 <0> d          -6.402  -0.140   8.578  0.00  0.00    -0.007 A 
ATOM     30  N3  <0> d          -4.165  -0.029   9.392  0.00  0.00    -0.260 NA
ATOM     31  C20 <0> d          -7.431   0.433   7.813  0.00  0.00     0.014 A 
ATOM     32  C22 <0> d          -6.589  -1.354   9.265  0.00  0.00     0.015 A 
ATOM     33  C19 <0> d          -7.213   1.612   7.167  0.00  0.00     0.010 A 
ATOM     34  C23 <0> d          -5.544  -1.852   9.990  0.00  0.00     0.020 A 
ATOM     35  C24 <0> d          -4.335  -1.159  10.033  0.00  0.00     0.117 A 
ENDBRANCH  25  26
ENDBRANCH   6  25
TORSDOF 6
