REMARK  4 active torsions:
REMARK  status: ('A' for Active; 'I' for Inactive)
REMARK    1  A    between atoms: C6_8  and  N2_13 
REMARK       I    between atoms: N2_13  and  C10_14 
REMARK    2  A    between atoms: C10_14  and  C11_16 
REMARK    3  A    between atoms: N3_18  and  C18_26 
REMARK    4  A    between atoms: C13_20  and  C14_21 
ROOT
ATOM      1  N2  <0> d          -0.017   1.396   0.010  0.00  0.00    -0.323 N 
ATOM      2  C10 <0> d           1.112   2.132   0.004  0.00  0.00     0.260 C 
ATOM      3  O3  <0> d           2.194   1.585  -0.101  0.00  0.00    -0.267 OA
ATOM      4  H9  <0> d          -0.882   1.835   0.021  0.00  0.00     0.169 HD
ENDROOT
BRANCH   2   5
ATOM      5  C11 <0> d           1.037   3.597   0.124  0.00  0.00     0.081 A 
ATOM      6  C13 <0> d           2.164   4.537   0.141  0.00  0.00     0.111 A 
ATOM      7  N4  <0> d           1.655   5.745   0.260  0.00  0.00    -0.166 NA
ATOM      8  N3  <0> d           0.263   5.648   0.331  0.00  0.00    -0.244 N 
ATOM      9  C12 <0> d          -0.107   4.358   0.250  0.00  0.00     0.138 A 
BRANCH   6  10
ATOM     10  C14 <0> d           3.597   4.193   0.039  0.00  0.00     0.036 A 
ATOM     11  S1  <0> d           4.460   2.767   0.679  0.00  0.00    -0.100 SA
ATOM     12  C17 <0> d           6.096   3.181   0.099  0.00  0.00     0.050 A 
ATOM     13  C16 <0> d           5.883   4.363  -0.536  0.00  0.00     0.008 A 
ATOM     14  C15 <0> d           4.608   4.883  -0.576  0.00  0.00     0.022 A 
ENDBRANCH   6  10
BRANCH   8  15
ATOM     15  C18 <0> d          -0.615   6.731   0.467  0.00  0.00     0.058 A 
ATOM     16  C23 <0> d          -0.117   8.025   0.542  0.00  0.00     0.031 A 
ATOM     17  C22 <0> d          -0.985   9.091   0.676  0.00  0.00     0.002 A 
ATOM     18  C21 <0> d          -2.349   8.871   0.737  0.00  0.00     0.000 A 
ATOM     19  C20 <0> d          -2.848   7.583   0.663  0.00  0.00     0.002 A 
ATOM     20  C19 <0> d          -1.986   6.514   0.523  0.00  0.00     0.031 A 
ENDBRANCH   8  15
ENDBRANCH   2   5
BRANCH   1  21
ATOM     21  C6  <0> d           0.058  -0.002  -0.007  0.00  0.00     0.037 A 
ATOM     22  C5  <0> d           1.069  -0.634  -0.718  0.00  0.00     0.062 A 
ATOM     23  C4  <0> d           1.139  -2.017  -0.732  0.00  0.00     0.070 A 
ATOM     24  N1  <0> d           2.154  -2.675  -1.442  0.00  0.00    -0.323 N 
ATOM     25  C9  <0> d           0.197  -2.771  -0.033  0.00  0.00     0.096 A 
ATOM     26  C3  <0> d           2.022  -3.994  -1.701  0.00  0.00     0.251 C 
ATOM     27  H5  <0> d           2.938  -2.190  -1.744  0.00  0.00     0.169 HD
ATOM     28  C2  <0> d           0.779  -4.723  -1.256  0.00  0.00     0.217 C 
ATOM     29  O1  <0> d           2.900  -4.590  -2.288  0.00  0.00    -0.270 OA
ATOM     30  C1  <0> d          -0.284  -4.632  -2.353  0.00  0.00     0.050 C 
ATOM     31  O2  <0> d           0.277  -4.129  -0.056  0.00  0.00    -0.335 OA
ATOM     32  C8  <0> d          -0.809  -2.136   0.675  0.00  0.00     0.041 A 
ATOM     33  C7  <0> d          -0.875  -0.755   0.693  0.00  0.00     0.032 A 
ENDBRANCH   1  21
TORSDOF 4
