REMARK  2 active torsions:
REMARK  status: ('A' for Active; 'I' for Inactive)
REMARK    1  A    between atoms: C7_7  and  C9_11 
REMARK    2  A    between atoms: C7_7  and  O3_18 
ROOT
ATOM      1  C1  <0> d          -1.246   3.131   0.032  0.00  0.00     0.001 A 
ATOM      2  C2  <0> d          -1.217   1.748   0.017  0.00  0.00     0.002 A 
ATOM      3  C3  <0> d          -0.013   1.076   0.008  0.00  0.00     0.030 A 
ATOM      4  C4  <0> d           1.186   1.788   0.000  0.00  0.00     0.044 A 
ATOM      5  C5  <0> d           1.143   3.176   0.008  0.00  0.00     0.013 A 
ATOM      6  C6  <0> d          -0.061   3.844   0.024  0.00  0.00     0.013 A 
ATOM      7  C7  <0> d           2.579   3.646  -0.003  0.00  0.00     0.178 A 
ATOM      8  C8  <0> d           3.385   2.364  -0.018  0.00  0.00     0.262 A 
ATOM      9  O1  <0> d           4.595   2.274  -0.029  0.00  0.00    -0.269 OA
ATOM     10  N1  <0> d           2.509   1.346  -0.015  0.00  0.00    -0.324 N 
ATOM     11  H6  <0> d           2.767   0.411  -0.022  0.00  0.00     0.169 HD
ENDROOT
BRANCH   7  12
ATOM     12  C9  <0> d           2.887   4.459   1.256  0.00  0.00     0.104 C 
ATOM     13  C14 <0> d           2.671   3.598   2.482  0.00  0.00     0.134 C 
ATOM     14  C13 <0> d           3.120   4.137   3.823  0.00  0.00     0.079 C 
ATOM     15  O2  <0> d           2.158   2.509   2.391  0.00  0.00    -0.297 OA
ATOM     16  C12 <0> d           4.574   4.606   3.702  0.00  0.00     0.007 C 
ATOM     17  C11 <0> d           4.691   5.606   2.550  0.00  0.00     0.001 C 
ATOM     18  C10 <0> d           4.349   4.916   1.228  0.00  0.00     0.016 C 
ENDBRANCH   7  12
BRANCH   7  19
ATOM     19  O3  <0> d           2.844   4.420  -1.175  0.00  0.00    -0.374 OA
ATOM     20  H15 <0> d           2.693   3.944  -2.003  0.00  0.00     0.211 HD
ENDBRANCH   7  19
TORSDOF 2
