REMARK  4 active torsions:
REMARK  status: ('A' for Active; 'I' for Inactive)
REMARK    1  A    between atoms: C3_3  and  S2_9 
REMARK    2  A    between atoms: S2_9  and  N2_12 
REMARK    3  A    between atoms: C8_16  and  C9_17 
REMARK    4  A    between atoms: C9_17  and  N3_18 
ROOT
ATOM      1  S2  <0> d          -2.859  -0.365   0.317  0.00  0.00     0.269 S 
ATOM      2  O2  <0> d          -3.541  -1.362   1.065  0.00  0.00    -0.200 OA
ATOM      3  O3  <0> d          -2.864   1.005   0.691  0.00  0.00    -0.200 OA
ENDROOT
BRANCH   1   4
ATOM      4  C3  <0> d          -1.169  -0.861   0.240  0.00  0.00     0.147 A 
ATOM      5  C2  <0> d          -0.068  -0.106   0.290  0.00  0.00     0.039 A 
ATOM      6  C1  <0> d          -0.147   1.392   0.429  0.00  0.00     0.070 C 
ATOM      7  N1  <0> d           1.132  -0.750   0.204  0.00  0.00    -0.320 N 
ATOM      8  C4  <0> d           1.147  -2.094   0.086  0.00  0.00     0.289 A 
ATOM      9  H1  <0> d           1.962  -0.249   0.231  0.00  0.00     0.169 HD
ATOM     10  S1  <0> d          -0.484  -2.499   0.078  0.00  0.00    -0.013 SA
ATOM     11  O1  <0> d           2.111  -2.835   0.001  0.00  0.00    -0.260 OA
ENDBRANCH   1   4
BRANCH   1  12
ATOM     12  N2  <0> d          -3.460  -0.437  -1.225  0.00  0.00    -0.300 N 
ATOM     13  C8  <0> d          -4.202  -1.566  -1.804  0.00  0.00     0.122 C 
ATOM     14  C7  <0> d          -4.583  -1.173  -3.247  0.00  0.00     0.029 C 
ATOM     15  C6  <0> d          -4.519   0.377  -3.215  0.00  0.00     0.023 C 
ATOM     16  C5  <0> d          -3.334   0.619  -2.246  0.00  0.00     0.136 C 
BRANCH  13  17
ATOM     17  C9  <0> d          -3.319  -2.816  -1.819  0.00  0.00     0.259 C 
BRANCH  17  18
ATOM     18  N3  <0> d          -4.100  -3.962  -2.301  0.00  0.00    -0.077 N 
ATOM     19  C10 <0> d          -3.219  -5.128  -2.450  0.00  0.00     0.269 C 
ATOM     20  C11 <0> d          -5.163  -4.271  -1.335  0.00  0.00     0.269 C 
ATOM     21  H20 <0> d          -4.513  -3.736  -3.194  0.00  0.00     0.279 HD
ENDBRANCH  17  18
ENDBRANCH  13  17
ENDBRANCH   1  12
TORSDOF 4
