REMARK  3 active torsions:
REMARK  status: ('A' for Active; 'I' for Inactive)
REMARK    1  A    between atoms: C3_3  and  C6_8 
REMARK       I    between atoms: C6_8  and  N2_10 
REMARK    2  A    between atoms: N2_10  and  C7_11 
REMARK    3  A    between atoms: C8_12  and  C16_21 
REMARK       I    between atoms: C16_21  and  N3_23 
ROOT
ATOM      1  C7  <0> d           2.194  -2.906   2.893  0.00  0.00     0.093 A 
ATOM      2  C8  <0> d           1.334  -1.830   3.061  0.00  0.00     0.073 A 
ATOM      3  C9  <0> d           1.348  -1.153   4.346  0.00  0.00    -0.026 A 
ATOM      4  C10 <0> d           2.205  -1.664   5.256  0.00  0.00    -0.008 A 
ATOM      5  S1  <0> d           2.996  -3.013   4.426  0.00  0.00    -0.075 SA
ATOM      6  C11 <0> d           2.432  -1.180   6.655  0.00  0.00     0.051 C 
ATOM      7  C12 <0> d           1.271  -0.251   7.040  0.00  0.00    -0.014 C 
ATOM      8  C13 <0> d           1.047   0.753   5.906  0.00  0.00     0.009 C 
ATOM      9  C14 <0> d           0.462   0.039   4.686  0.00  0.00     0.041 C 
ATOM     10  C15 <0> d           1.617   0.495   8.330  0.00  0.00     0.010 C 
ENDROOT
BRANCH   1  11
ATOM     11  N2  <0> d           2.369  -3.703   1.773  0.00  0.00    -0.316 N 
ATOM     12  C6  <0> d           3.260  -4.713   1.797  0.00  0.00     0.261 C 
ATOM     13  O2  <0> d           3.911  -4.926   2.802  0.00  0.00    -0.267 OA
ATOM     14  H8  <0> d           1.849  -3.533   0.972  0.00  0.00     0.169 HD
BRANCH  12  15
ATOM     15  C3  <0> d           3.446  -5.560   0.606  0.00  0.00     0.090 A 
ATOM     16  C2  <0> d           4.375  -5.371  -0.519  0.00  0.00     0.076 A 
ATOM     17  C1  <0> d           5.364  -4.250  -0.708  0.00  0.00     0.074 C 
ATOM     18  N1  <0> d           4.165  -6.378  -1.313  0.00  0.00    -0.132 NA
ATOM     19  O1  <0> d           3.304  -7.115  -0.899  0.00  0.00    -0.217 OA
ATOM     20  C4  <0> d           2.789  -6.719   0.267  0.00  0.00     0.092 A 
ATOM     21  C5  <0> d           1.703  -7.405   1.056  0.00  0.00     0.080 C 
ENDBRANCH  12  15
ENDBRANCH   1  11
BRANCH   2  22
ATOM     22  C16 <0> d           0.449  -1.389   1.979  0.00  0.00     0.257 C 
ATOM     23  O3  <0> d          -0.669  -1.859   1.877  0.00  0.00    -0.267 OA
ATOM     24  N3  <0> d           0.873  -0.462   1.096  0.00  0.00    -0.344 N 
ATOM     25  C20 <0> d           2.220   0.121   1.199  0.00  0.00     0.152 C 
ATOM     26  C17 <0> d           0.002  -0.004   0.002  0.00  0.00     0.152 C 
ATOM     27  C19 <0> d           2.091   1.647   1.149  0.00  0.00     0.187 C 
ATOM     28  O4  <0> d           1.325   2.018   0.000  0.00  0.00    -0.388 OA
ATOM     29  C18 <0> d          -0.019   1.529   0.010  0.00  0.00     0.187 C 
ENDBRANCH   2  22
TORSDOF 3
