REMARK  4 active torsions:
REMARK  status: ('A' for Active; 'I' for Inactive)
REMARK    1  A    between atoms: N1_2  and  C2_3 
REMARK    2  A    between atoms: C2_3  and  C3_4 
REMARK    3  A    between atoms: N2_8  and  C8_10 
REMARK    4  A    between atoms: C8_10  and  C9_11 
ROOT
ATOM      1  C3  <0> d          -1.355  -2.042   0.004  0.00  0.00     0.037 C 
ATOM      2  C4  <0> d          -0.753  -2.538  -1.314  0.00  0.00     0.009 C 
ATOM      3  C5  <0> d          -0.809  -4.069  -1.345  0.00  0.00     0.028 C 
ATOM      4  C6  <0> d          -2.258  -4.524  -1.162  0.00  0.00     0.235 C 
ATOM      5  N2  <0> d          -2.767  -4.041   0.127  0.00  0.00    -0.066 N 
ATOM      6  C7  <0> d          -2.784  -2.574   0.138  0.00  0.00     0.241 C 
ATOM      7  H21 <0> d          -2.171  -4.375   0.870  0.00  0.00     0.280 HD
ENDROOT
BRANCH   5   8
ATOM      8  C8  <0> d          -4.131  -4.546   0.333  0.00  0.00     0.280 C 
BRANCH   8   9
ATOM      9  C9  <0> d          -4.098  -6.048   0.455  0.00  0.00     0.009 A 
ATOM     10  S1  <0> d          -4.238  -7.283  -0.827  0.00  0.00    -0.103 SA
ATOM     11  C12 <0> d          -4.092  -8.733   0.204  0.00  0.00     0.069 A 
ATOM     12  C11 <0> d          -3.956  -8.188   1.438  0.00  0.00     0.018 A 
ATOM     13  C10 <0> d          -3.959  -6.812   1.566  0.00  0.00     0.035 A 
ATOM     14 Br1  <0> d          -3.764  -9.294   2.960  0.00  0.00    -0.051 Br
ENDBRANCH   8   9
ENDBRANCH   5   8
BRANCH   1  15
ATOM     15  C2  <0> d          -1.376  -0.512   0.012  0.00  0.00     0.238 C 
BRANCH  15  16
ATOM     16  N1  <0> d           0.002  -0.004   0.002  0.00  0.00    -0.079 N 
ATOM     17  C1  <0> d          -0.018   1.465   0.010  0.00  0.00     0.267 C 
ATOM     18  H5  <0> d           0.474  -0.330  -0.828  0.00  0.00     0.276 HD
ATOM     19  H20 <0> d           0.490  -0.338   0.820  0.00  0.00     0.276 HD
ENDBRANCH  15  16
ENDBRANCH   1  15
TORSDOF 4
