REMARK  7 active torsions:
REMARK  status: ('A' for Active; 'I' for Inactive)
REMARK    1  A    between atoms: C2_2  and  O1_3 
REMARK    2  A    between atoms: O1_3  and  C3_4 
REMARK    3  A    between atoms: C6_7  and  N1_12 
REMARK    4  A    between atoms: C8_9  and  C9_10 
REMARK    5  A    between atoms: C9_10  and  O2_11 
REMARK       I    between atoms: N1_12  and  C10_13 
REMARK    6  A    between atoms: C10_13  and  C11_15 
REMARK    7  A    between atoms: C11_15  and  C12_16 
ROOT
ATOM      1  C3  <0> d          -0.969  -1.849  -0.135  0.00  0.00     0.077 A 
ATOM      2  C4  <0> d           0.058  -2.770  -0.287  0.00  0.00     0.039 A 
ATOM      3  C5  <0> d          -0.218  -4.123  -0.264  0.00  0.00     0.032 A 
ATOM      4  C6  <0> d          -1.524  -4.561  -0.088  0.00  0.00     0.035 A 
ATOM      5  C7  <0> d          -2.551  -3.640   0.064  0.00  0.00     0.041 A 
ATOM      6  C8  <0> d          -2.273  -2.287   0.046  0.00  0.00     0.001 A 
ENDROOT
BRANCH   4   7
ATOM      7  N1  <0> d          -1.805  -5.934  -0.064  0.00  0.00    -0.326 N 
ATOM      8  C10 <0> d          -0.906  -6.797   0.448  0.00  0.00     0.237 C 
ATOM      9  O3  <0> d           0.105  -6.380   0.972  0.00  0.00    -0.272 OA
ATOM     10  H13 <0> d          -2.647  -6.263  -0.417  0.00  0.00     0.169 HD
BRANCH   8  11
ATOM     11  C11 <0> d          -1.157  -8.281   0.370  0.00  0.00     0.153 C 
ATOM     12 Br1  <0> d           0.029  -9.076  -0.982  0.00  0.00    -0.081 Br
BRANCH  11  13
ATOM     13  C12 <0> d          -0.876  -8.918   1.732  0.00  0.00     0.001 C 
ATOM     14  C13 <0> d          -1.802  -8.303   2.783  0.00  0.00     0.011 C 
ATOM     15  C14 <0> d          -1.127 -10.425   1.652  0.00  0.00     0.011 C 
ENDBRANCH  11  13
ENDBRANCH   8  11
ENDBRANCH   4   7
BRANCH   6  16
ATOM     16  C9  <0> d          -3.386  -1.286   0.217  0.00  0.00     0.205 C 
BRANCH  16  17
ATOM     17  O2  <0> d          -4.626  -1.977   0.386  0.00  0.00    -0.396 OA
ATOM     18  H12 <0> d          -5.388  -1.394   0.502  0.00  0.00     0.209 HD
ENDBRANCH  16  17
ENDBRANCH   6  16
BRANCH   1  19
ATOM     19  O1  <0> d          -0.696  -0.517  -0.158  0.00  0.00    -0.351 OA
BRANCH  19  20
ATOM     20  C2  <0> d           0.668  -0.138  -0.348  0.00  0.00     0.171 C 
ATOM     21  C1  <0> d           0.778   1.388  -0.345  0.00  0.00     0.034 C 
ENDBRANCH  19  20
ENDBRANCH   1  19
TORSDOF 7
