REMARK  7 active torsions:
REMARK  status: ('A' for Active; 'I' for Inactive)
REMARK    1  A    between atoms: O1_2  and  C2_3 
REMARK    2  A    between atoms: C5_6  and  C8_9 
REMARK    3  A    between atoms: C10_11  and  C11_14 
REMARK    4  A    between atoms: C12_17  and  S1_20 
REMARK    5  A    between atoms: N5_18  and  N6_19 
REMARK    6  A    between atoms: S1_20  and  C13_21 
REMARK    7  A    between atoms: C13_21  and  C14_22 
ROOT
ATOM      1  C11 <0> d           2.486  -4.704  -6.883  0.00  0.00     0.192 C 
ATOM      2  N3  <0> d           1.328  -3.865  -7.289  0.00  0.00    -0.237 NA
ATOM      3  N4  <0> d           0.980  -4.398  -8.615  0.00  0.00    -0.231 NA
ATOM      4  C12 <0> d           2.284  -4.709  -9.243  0.00  0.00     0.224 C 
ATOM      5  N5  <0> d           3.247  -4.909  -8.137  0.00  0.00    -0.204 NA
ATOM      6  H12 <0> d           1.589  -2.892  -7.347  0.00  0.00     0.142 HD
ATOM      7  H13 <0> d           0.471  -3.715  -9.157  0.00  0.00     0.143 HD
ENDROOT
BRANCH   1   8
ATOM      8  C10 <0> d           3.343  -3.970  -5.850  0.00  0.00     0.190 A 
ATOM      9  C9  <0> d           2.595  -3.827  -4.537  0.00  0.00     0.039 A 
ATOM     10  C8  <0> d           2.496  -2.494  -4.366  0.00  0.00     0.087 A 
ATOM     11  N2  <0> d           3.080  -1.838  -5.403  0.00  0.00    -0.154 NA
ATOM     12  N1  <0> d           3.575  -2.575  -6.259  0.00  0.00    -0.180 NA
BRANCH  10  13
ATOM     13  C5  <0> d           1.837  -1.836  -3.211  0.00  0.00    -0.006 A 
ATOM     14  C4  <0> d           1.786  -0.445  -3.136  0.00  0.00     0.016 A 
ATOM     15  C3  <0> d           1.173   0.164  -2.062  0.00  0.00     0.037 A 
ATOM     16  C2  <0> d           0.606  -0.607  -1.056  0.00  0.00     0.068 A 
ATOM     17  C7  <0> d           0.659  -1.993  -1.125  0.00  0.00     0.037 A 
ATOM     18  C6  <0> d           1.267  -2.607  -2.199  0.00  0.00     0.016 A 
BRANCH  16  19
ATOM     19  O1  <0> d           0.002  -0.004   0.002  0.00  0.00    -0.356 OA
ATOM     20  C1  <0> d          -0.017   1.425   0.010  0.00  0.00     0.210 C 
ENDBRANCH  16  19
ENDBRANCH  10  13
ENDBRANCH   1   8
BRANCH   5  21
ATOM     21  N6  <0> d           4.354  -3.970  -8.235  0.00  0.00    -0.265 NA
ATOM     22  H14 <0> d           4.872  -4.109  -9.089  0.00  0.00     0.137 HD
ATOM     23  H15 <0> d           4.027  -3.018  -8.161  0.00  0.00     0.137 HD
ENDBRANCH   5  21
BRANCH   4  24
ATOM     24  S1  <0> d           2.153  -6.223 -10.232  0.00  0.00    -0.127 SA
BRANCH  24  25
ATOM     25  C13 <0> d           1.619  -7.482  -9.040  0.00  0.00     0.116 C 
BRANCH  25  26
ATOM     26  C14 <0> d           1.469  -8.807  -9.741  0.00  0.00    -0.038 A 
ATOM     27  C19 <0> d           2.560  -9.689  -9.825  0.00  0.00    -0.019 A 
ATOM     28  C18 <0> d           2.398 -10.934 -10.483  0.00  0.00    -0.025 A 
ATOM     29  C20 <0> d           3.806  -9.364  -9.263  0.00  0.00     0.013 A 
ATOM     30  C17 <0> d           1.153 -11.257 -11.050  0.00  0.00     0.012 A 
ATOM     31  C23 <0> d           3.487 -11.819 -10.560  0.00  0.00     0.012 A 
ATOM     32  C16 <0> d           0.121 -10.375 -10.954  0.00  0.00     0.001 A 
ATOM     33  C15 <0> d           0.278  -9.154 -10.302  0.00  0.00     0.009 A 
ATOM     34  C22 <0> d           4.683 -11.464 -10.016  0.00  0.00     0.001 A 
ATOM     35  C21 <0> d           4.840 -10.243  -9.364  0.00  0.00     0.001 A 
ENDBRANCH  25  26
ENDBRANCH  24  25
ENDBRANCH   4  24
TORSDOF 7
