REMARK  4 active torsions:
REMARK  status: ('A' for Active; 'I' for Inactive)
REMARK    1  A    between atoms: N1_3  and  C6_8 
REMARK    2  A    between atoms: C6_8  and  C7_9 
REMARK    3  A    between atoms: C7_9  and  C11_14 
REMARK    4  A    between atoms: C11_14  and  O3_15 
ROOT
ATOM      1  C6  <0> d           2.716   3.252   1.567  0.00  0.00     0.248 C 
ENDROOT
BRANCH   1   2
ATOM      2  N1  <0> d           1.842   2.090   1.356  0.00  0.00    -0.068 N 
ATOM      3  C2  <0> d           1.389   2.090  -0.011  0.00  0.00     0.237 C 
ATOM      4  C1  <0> d          -0.050   1.549  -0.032  0.00  0.00     0.054 C 
ATOM      5  C5  <0> d          -0.100   0.089  -0.000  0.00  0.00     0.169 C 
ATOM      6  O1  <0> d           0.543  -0.420   1.195  0.00  0.00    -0.389 OA
ATOM      7  C4  <0> d           1.940  -0.407   1.109  0.00  0.00     0.195 C 
ATOM      8  C3  <0> d           2.589   0.857   1.707  0.00  0.00     0.261 C 
ATOM      9  H22 <0> d           1.041   2.171   1.964  0.00  0.00     0.280 HD
ENDBRANCH   1   2
BRANCH   1  10
ATOM     10  C7  <0> d           3.045   3.378   3.055  0.00  0.00     0.028 C 
ATOM     11  C10 <0> d           3.808   4.693   3.331  0.00  0.00     0.181 C 
ATOM     12  O2  <0> d           5.204   4.324   3.296  0.00  0.00    -0.390 OA
ATOM     13  C9  <0> d           5.278   3.050   3.972  0.00  0.00     0.168 C 
ATOM     14  C8  <0> d           4.034   2.273   3.487  0.00  0.00     0.042 C 
BRANCH  10  15
ATOM     15  C11 <0> d           1.766   3.315   3.893  0.00  0.00     0.177 C 
BRANCH  15  16
ATOM     16  O3  <0> d           2.084   3.556   5.266  0.00  0.00    -0.400 OA
ATOM     17  H21 <0> d           1.319   3.530   5.857  0.00  0.00     0.209 HD
ENDBRANCH  15  16
ENDBRANCH  10  15
ENDBRANCH   1  10
TORSDOF 4
