REMARK  6 active torsions:
REMARK  status: ('A' for Active; 'I' for Inactive)
REMARK    1  A    between atoms: C7_7  and  N1_8 
REMARK    2  A    between atoms: C10_11  and  C13_14 
REMARK       I    between atoms: C13_14  and  N2_16 
REMARK    3  A    between atoms: N2_16  and  C14_17 
REMARK    4  A    between atoms: C14_17  and  C15_18 
REMARK    5  A    between atoms: C15_18  and  C16_19 
REMARK    6  A    between atoms: C16_19  and  N3_20 
ROOT
ATOM      1  N1  <0> d           0.025  -0.013   2.419  0.00  0.00    -0.319 N 
ATOM      2  C8  <0> d          -1.094   0.352   3.112  0.00  0.00     0.014 A 
ATOM      3  C9  <0> d          -0.721   0.997   4.232  0.00  0.00     0.044 A 
ATOM      4  C10 <0> d           0.746   1.027   4.222  0.00  0.00     0.056 A 
ATOM      5  C11 <0> d           1.133   0.383   3.079  0.00  0.00     0.029 A 
ATOM      6  C12 <0> d           2.554   0.157   2.632  0.00  0.00     0.070 C 
ATOM      7  C22 <0> d          -2.515   0.079   2.691  0.00  0.00     0.068 C 
ENDROOT
BRANCH   4   8
ATOM      8  C13 <0> d           1.625   1.627   5.240  0.00  0.00     0.253 C 
ATOM      9  O1  <0> d           2.833   1.580   5.104  0.00  0.00    -0.268 OA
ATOM     10  N2  <0> d           1.091   2.227   6.322  0.00  0.00    -0.357 N 
ATOM     11  H12 <0> d           0.128   2.264   6.430  0.00  0.00     0.162 HD
BRANCH  10  12
ATOM     12  C14 <0> d           1.966   2.824   7.335  0.00  0.00     0.124 C 
BRANCH  12  13
ATOM     13  C15 <0> d           1.113   3.434   8.449  0.00  0.00     0.040 C 
BRANCH  13  14
ATOM     14  C16 <0> d           2.027   4.057   9.507  0.00  0.00     0.133 C 
BRANCH  14  15
ATOM     15  N3  <0> d           1.210   4.642  10.574  0.00  0.00    -0.325 N 
ATOM     16  C21 <0> d           0.865   3.890  11.636  0.00  0.00     0.247 A 
ATOM     17  C20 <0> d           0.087   4.444  12.667  0.00  0.00     0.074 A 
ATOM     18  O2  <0> d           1.232   2.728  11.705  0.00  0.00    -0.268 OA
ATOM     19  C19 <0> d          -0.320   5.742  12.572  0.00  0.00     0.007 A 
ATOM     20  C18 <0> d           0.052   6.497  11.450  0.00  0.00     0.017 A 
ATOM     21  C17 <0> d           0.806   5.934  10.477  0.00  0.00     0.094 A 
ENDBRANCH  14  15
ENDBRANCH  13  14
ENDBRANCH  12  13
ENDBRANCH  10  12
ENDBRANCH   4   8
BRANCH   1  22
ATOM     22  C7  <0> d           0.023  -0.705   1.200  0.00  0.00     0.045 A 
ATOM     23  C2  <0> d           0.002  -0.004   0.002  0.00  0.00    -0.035 A 
ATOM     24  C1  <0> d          -0.018   1.503   0.010  0.00  0.00     0.050 C 
ATOM     25  C3  <0> d           0.006  -0.689  -1.198  0.00  0.00     0.009 A 
ATOM     26  C4  <0> d           0.024  -2.071  -1.206  0.00  0.00     0.001 A 
ATOM     27  C5  <0> d           0.039  -2.773  -0.014  0.00  0.00     0.002 A 
ATOM     28  C6  <0> d           0.035  -2.094   1.188  0.00  0.00     0.030 A 
ENDBRANCH   1  22
TORSDOF 6
