REMARK  6 active torsions:
REMARK  status: ('A' for Active; 'I' for Inactive)
REMARK    1  A    between atoms: O1_2  and  C2_3 
REMARK    2  A    between atoms: C7_8  and  C8_9 
REMARK       I    between atoms: C8_9  and  N1_11 
REMARK    3  A    between atoms: C10_13  and  C17_21 
REMARK       I    between atoms: C17_21  and  N3_23 
REMARK    4  A    between atoms: N3_23  and  C18_24 
REMARK    5  A    between atoms: C18_24  and  C19_25 
REMARK    6  A    between atoms: C19_25  and  N4_26 
ROOT
ATOM      1  C8  <0> d           0.226  -2.765  -0.191  0.00  0.00     0.256 C 
ATOM      2  O2  <0> d          -0.284  -2.195   0.754  0.00  0.00    -0.267 OA
ATOM      3  N1  <0> d           0.128  -4.105  -0.302  0.00  0.00    -0.346 N 
ATOM      4  C9  <0> d           0.767  -4.981  -1.312  0.00  0.00     0.141 C 
ATOM      5  C10 <0> d           1.195  -6.239  -0.523  0.00  0.00     0.106 C 
ATOM      6  C11 <0> d           0.264  -6.269   0.701  0.00  0.00    -0.007 C 
ATOM      7  C12 <0> d          -0.639  -5.035   0.561  0.00  0.00     0.136 C 
ATOM      8  C13 <0> d           1.079  -6.175   1.988  0.00  0.00     0.039 C 
ATOM      9  C14 <0> d           0.137  -6.265   3.191  0.00  0.00     0.233 C 
ATOM     10  N2  <0> d          -0.599  -7.534   3.146  0.00  0.00    -0.075 N 
ATOM     11  C15 <0> d          -1.451  -7.577   1.952  0.00  0.00     0.233 C 
ATOM     12  C16 <0> d          -0.576  -7.543   0.696  0.00  0.00     0.039 C 
ATOM     13  H17 <0> d           0.058  -8.300   3.117  0.00  0.00     0.277 HD
ATOM     14  H30 <0> d          -1.173  -7.618   3.971  0.00  0.00     0.277 HD
ENDROOT
BRANCH   5  15
ATOM     15  C17 <0> d           1.002  -7.476  -1.362  0.00  0.00     0.224 C 
ATOM     16  O3  <0> d           0.116  -7.516  -2.188  0.00  0.00    -0.273 OA
ATOM     17  N3  <0> d           1.815  -8.538  -1.194  0.00  0.00    -0.359 N 
ATOM     18  H22 <0> d           2.524  -8.506  -0.533  0.00  0.00     0.162 HD
BRANCH  17  19
ATOM     19  C18 <0> d           1.628  -9.740  -2.010  0.00  0.00     0.144 C 
BRANCH  19  20
ATOM     20  C19 <0> d           2.674 -10.787  -1.622  0.00  0.00     0.170 C 
BRANCH  20  21
ATOM     21  N4  <0> d           2.487 -11.989  -2.438  0.00  0.00    -0.280 N 
ATOM     22  N5  <0> d           1.301 -12.726  -2.560  0.00  0.00    -0.185 NA
ATOM     23  C22 <0> d           1.523 -13.725  -3.376  0.00  0.00     0.140 A 
ATOM     24  C21 <0> d           2.857 -13.662  -3.790  0.00  0.00     0.040 A 
ATOM     25  C20 <0> d           3.427 -12.587  -3.199  0.00  0.00     0.113 A 
ENDBRANCH  20  21
ENDBRANCH  19  20
ENDBRANCH  17  19
ENDBRANCH   5  15
BRANCH   1  26
ATOM     26  C7  <0> d           0.954  -1.991  -1.214  0.00  0.00     0.065 A 
ATOM     27  C2  <0> d           1.672  -0.844  -0.851  0.00  0.00     0.084 A 
ATOM     28  C3  <0> d           2.357  -0.127  -1.821  0.00  0.00     0.038 A 
ATOM     29  C4  <0> d           2.326  -0.539  -3.138  0.00  0.00     0.003 A 
ATOM     30  C5  <0> d           1.612  -1.669  -3.502  0.00  0.00     0.001 A 
ATOM     31  C6  <0> d           0.926  -2.394  -2.552  0.00  0.00     0.020 A 
BRANCH  27  32
ATOM     32  O1  <0> d           1.702  -0.439   0.443  0.00  0.00    -0.355 OA
ATOM     33  C1  <0> d           2.455   0.739   0.738  0.00  0.00     0.210 C 
ENDBRANCH  27  32
ENDBRANCH   1  26
TORSDOF 6
