REMARK  7 active torsions:
REMARK  status: ('A' for Active; 'I' for Inactive)
REMARK    1  A    between atoms: C8_9  and  C10_11 
REMARK    2  A    between atoms: C11_12  and  C12_13 
REMARK    3  A    between atoms: C12_13  and  O2_15 
REMARK    4  A    between atoms: O2_15  and  C13_16 
REMARK    5  A    between atoms: C13_16  and  C14_17 
REMARK       I    between atoms: C14_17  and  N2_19 
REMARK    6  A    between atoms: N2_19  and  C15_20 
REMARK    7  A    between atoms: C16_21  and  C23_29 
REMARK       I    between atoms: C23_29  and  N3_31 
ROOT
ATOM      1  C14 <0> d           2.230   5.580   0.011  0.00  0.00     0.246 C 
ATOM      2  O3  <0> d           1.103   6.028   0.024  0.00  0.00    -0.271 OA
ATOM      3  N2  <0> d           3.288   6.415   0.005  0.00  0.00    -0.319 N 
ATOM      4  H11 <0> d           4.189   6.057  -0.005  0.00  0.00     0.169 HD
ENDROOT
BRANCH   1   5
ATOM      5  C13 <0> d           2.448   4.089   0.001  0.00  0.00     0.282 C 
BRANCH   5   6
ATOM      6  O2  <0> d           1.183   3.423   0.009  0.00  0.00    -0.309 OA
BRANCH   6   7
ATOM      7  C12 <0> d           1.202   2.074   0.002  0.00  0.00     0.283 C 
ATOM      8  O1  <0> d           2.263   1.480  -0.012  0.00  0.00    -0.260 OA
BRANCH   7   9
ATOM      9  C11 <0> d          -0.016   1.348   0.009  0.00  0.00     0.083 C 
ATOM     10  C10 <0> d           0.002  -0.004   0.002  0.00  0.00     0.020 C 
BRANCH  10  11
ATOM     11  C8  <0> d          -1.258  -0.755   0.010  0.00  0.00    -0.006 A 
ATOM     12  C7  <0> d          -1.256  -2.218   0.002  0.00  0.00     0.076 A 
ATOM     13  C3  <0> d          -2.498  -2.898   0.010  0.00  0.00    -0.006 A 
ATOM     14  N1  <0> d          -0.117  -2.908  -0.012  0.00  0.00    -0.259 NA
ATOM     15  C2  <0> d          -3.694  -2.163   0.026  0.00  0.00     0.014 A 
ATOM     16  C4  <0> d          -2.502  -4.306   0.003  0.00  0.00     0.015 A 
ATOM     17  C1  <0> d          -3.672  -0.800   0.033  0.00  0.00     0.002 A 
ATOM     18  C9  <0> d          -2.481  -0.089   0.031  0.00  0.00     0.014 A 
ATOM     19  C5  <0> d          -1.299  -4.954  -0.011  0.00  0.00     0.020 A 
ATOM     20  C6  <0> d          -0.115  -4.221  -0.019  0.00  0.00     0.117 A 
ENDBRANCH  10  11
ENDBRANCH   7   9
ENDBRANCH   6   7
ENDBRANCH   5   6
ENDBRANCH   1   5
BRANCH   3  21
ATOM     21  C15 <0> d           3.087   7.787   0.014  0.00  0.00     0.093 A 
ATOM     22  S1  <0> d           1.588   8.657   0.034  0.00  0.00    -0.075 SA
ATOM     23  C18 <0> d           2.218  10.311   0.038  0.00  0.00    -0.008 A 
ATOM     24  C17 <0> d           3.561  10.170   0.024  0.00  0.00    -0.026 A 
ATOM     25  C19 <0> d           1.445  11.594   0.054  0.00  0.00     0.047 C 
ATOM     26  C16 <0> d           4.038   8.798   0.016  0.00  0.00     0.072 A 
ATOM     27  C22 <0> d           4.478  11.387   0.021  0.00  0.00     0.041 C 
ATOM     28  C21 <0> d           3.672  12.610  -0.420  0.00  0.00     0.005 C 
ATOM     29  C20 <0> d           2.404  12.732   0.430  0.00  0.00     0.005 C 
BRANCH  26  30
ATOM     30  C23 <0> d           5.472   8.492   0.007  0.00  0.00     0.252 C 
ATOM     31  O4  <0> d           6.063   8.372  -1.050  0.00  0.00    -0.268 OA
ATOM     32  N3  <0> d           6.137   8.343   1.171  0.00  0.00    -0.366 N 
ATOM     33  H20 <0> d           5.667   8.438   2.014  0.00  0.00     0.159 HD
ATOM     34  H21 <0> d           7.086   8.141   1.165  0.00  0.00     0.159 HD
ENDBRANCH  26  30
ENDBRANCH   3  21
TORSDOF 7
