REMARK  7 active torsions:
REMARK  status: ('A' for Active; 'I' for Inactive)
REMARK    1  A    between atoms: C5_5  and  N1_9 
REMARK       I    between atoms: N1_9  and  C9_10 
REMARK    2  A    between atoms: C9_10  and  C10_12 
REMARK    3  A    between atoms: C10_12  and  N2_13 
REMARK       I    between atoms: N2_13  and  C11_14 
REMARK    4  A    between atoms: C11_14  and  C12_16 
REMARK    5  A    between atoms: C12_16  and  O3_17 
REMARK    6  A    between atoms: O3_17  and  C13_18 
REMARK    7  A    between atoms: C13_18  and  C14_20 
ROOT
ATOM      1  N2  <0> d          -5.999   2.898  -1.138  0.00  0.00    -0.350 N 
ATOM      2  C11 <0> d          -7.260   3.314  -1.369  0.00  0.00     0.242 C 
ATOM      3  O2  <0> d          -7.562   4.472  -1.175  0.00  0.00    -0.271 OA
ATOM      4  H12 <0> d          -5.758   1.972  -1.293  0.00  0.00     0.163 HD
ENDROOT
BRANCH   1   5
ATOM      5  C10 <0> d          -4.993   3.846  -0.653  0.00  0.00     0.225 C 
BRANCH   5   6
ATOM      6  C9  <0> d          -3.676   3.135  -0.477  0.00  0.00     0.239 C 
ATOM      7  N1  <0> d          -2.598   3.812  -0.036  0.00  0.00    -0.325 N 
ATOM      8  H9  <0> d          -2.685   4.739   0.234  0.00  0.00     0.169 HD
ATOM      9  O1  <0> d          -3.587   1.952  -0.732  0.00  0.00    -0.271 OA
BRANCH   7  10
ATOM     10  C5  <0> d          -1.352   3.178   0.031  0.00  0.00     0.046 A 
ATOM     11  C4  <0> d          -0.728   2.745  -1.132  0.00  0.00    -0.034 A 
ATOM     12  C3  <0> d           0.499   2.114  -1.062  0.00  0.00     0.015 A 
ATOM     13  C19 <0> d          -1.391   2.958  -2.468  0.00  0.00     0.050 C 
ATOM     14  C2  <0> d           1.110   1.923   0.163  0.00  0.00    -0.061 A 
ATOM     15  C1  <0> d           2.452   1.240   0.236  0.00  0.00     0.048 C 
ATOM     16  C7  <0> d           0.494   2.357   1.323  0.00  0.00     0.015 A 
ATOM     17  C6  <0> d          -0.735   2.984   1.260  0.00  0.00    -0.034 A 
ATOM     18  C8  <0> d          -1.406   3.457   2.523  0.00  0.00     0.050 C 
ENDBRANCH   7  10
ENDBRANCH   5   6
ENDBRANCH   1   5
BRANCH   2  19
ATOM     19  C12 <0> d          -8.295   2.339  -1.868  0.00  0.00     0.281 C 
BRANCH  19  20
ATOM     20  O3  <0> d          -9.564   3.025  -2.038  0.00  0.00    -0.307 OA
BRANCH  20  21
ATOM     21  C13 <0> d         -10.602   2.289  -2.481  0.00  0.00     0.314 C 
ATOM     22  O4  <0> d         -10.451   1.108  -2.720  0.00  0.00    -0.257 OA
BRANCH  21  23
ATOM     23  C14 <0> d         -11.926   2.921  -2.678  0.00  0.00     0.149 A 
ATOM     24  N4  <0> d         -12.093   4.215  -2.417  0.00  0.00    -0.251 NA
ATOM     25  C17 <0> d         -13.273   4.774  -2.594  0.00  0.00     0.144 A 
ATOM     26  C16 <0> d         -14.342   4.016  -3.051  0.00  0.00     0.048 A 
ATOM     27  N3  <0> d         -14.181   2.731  -3.312  0.00  0.00    -0.262 NA
ATOM     28  C18 <0> d         -15.689   4.661  -3.251  0.00  0.00     0.072 C 
ATOM     29  C15 <0> d         -13.001   2.163  -3.143  0.00  0.00     0.154 A 
ENDBRANCH  21  23
ENDBRANCH  20  21
ENDBRANCH  19  20
ENDBRANCH   2  19
TORSDOF 7
