REMARK  7 active torsions:
REMARK  status: ('A' for Active; 'I' for Inactive)
REMARK    1  A    between atoms: C7_7  and  N1_8 
REMARK       I    between atoms: N1_8  and  C8_9 
REMARK    2  A    between atoms: C8_9  and  C9_11 
REMARK    3  A    between atoms: C10_12  and  C24_30 
REMARK    4  A    between atoms: C11_13  and  C16_20 
REMARK    5  A    between atoms: C12_14  and  O3_19 
REMARK       I    between atoms: C16_20  and  N2_22 
REMARK    6  A    between atoms: N2_22  and  C17_23 
REMARK    7  A    between atoms: C29_35  and  N3_36 
ROOT
ATOM      1  C9  <0> d           0.608  -0.222   5.419  0.00  0.00     0.157 C 
ATOM      2  C10 <0> d           0.158  -1.432   6.244  0.00  0.00     0.057 C 
ATOM      3  C11 <0> d          -1.206  -1.911   5.741  0.00  0.00     0.122 C 
ATOM      4  C12 <0> d          -2.254  -0.820   5.969  0.00  0.00     0.073 C 
ATOM      5  C13 <0> d          -1.895   0.413   5.134  0.00  0.00     0.117 C 
ATOM      6  C14 <0> d          -0.477   0.832   5.472  0.00  0.00     0.143 C 
ATOM      7  O2  <0> d          -0.219   1.971   5.779  0.00  0.00    -0.297 OA
ATOM      8  C15 <0> d          -3.630  -1.339   5.546  0.00  0.00     0.047 C 
ENDROOT
BRANCH   1   9
ATOM      9  C8  <0> d           0.837  -0.640   3.989  0.00  0.00     0.234 C 
ATOM     10  N1  <0> d           0.331   0.098   2.982  0.00  0.00    -0.326 N 
ATOM     11  H11 <0> d          -0.122   0.934   3.173  0.00  0.00     0.169 HD
ATOM     12  O1  <0> d           1.477  -1.641   3.746  0.00  0.00    -0.272 OA
BRANCH  10  13
ATOM     13  C7  <0> d           0.458  -0.343   1.660  0.00  0.00     0.040 A 
ATOM     14  C2  <0> d          -0.449   0.078   0.696  0.00  0.00    -0.035 A 
ATOM     15  C1  <0> d          -1.572   1.010   1.073  0.00  0.00     0.050 C 
ATOM     16  C3  <0> d          -0.318  -0.354  -0.610  0.00  0.00     0.009 A 
ATOM     17  C4  <0> d           0.712  -1.209  -0.956  0.00  0.00     0.001 A 
ATOM     18  C5  <0> d           1.614  -1.634   0.003  0.00  0.00     0.002 A 
ATOM     19  C6  <0> d           1.488  -1.206   1.309  0.00  0.00     0.030 A 
ENDBRANCH  10  13
ENDBRANCH   1   9
BRANCH   2  20
ATOM     20  C24 <0> d           1.166  -2.543   6.097  0.00  0.00    -0.019 A 
ATOM     21  C29 <0> d           2.050  -2.813   7.124  0.00  0.00     0.109 A 
ATOM     22  C28 <0> d           2.972  -3.835   6.992  0.00  0.00     0.037 A 
ATOM     23  C27 <0> d           3.015  -4.580   5.829  0.00  0.00     0.002 A 
ATOM     24  C26 <0> d           2.134  -4.306   4.799  0.00  0.00     0.001 A 
ATOM     25  C25 <0> d           1.209  -3.288   4.933  0.00  0.00     0.010 A 
BRANCH  21  26
ATOM     26  N3  <0> d           2.007  -2.012   8.368  0.00  0.00    -0.115 N 
ATOM     27  O5  <0> d           2.837  -2.188   9.229  0.00  0.00    -0.532 OA
ATOM     28  O6  <0> d           1.142  -1.182   8.523  0.00  0.00    -0.532 OA
ENDBRANCH  21  26
ENDBRANCH   2  20
BRANCH   3  29
ATOM     29  C16 <0> d          -1.117  -2.219   4.269  0.00  0.00     0.230 C 
ATOM     30  O4  <0> d          -1.066  -1.315   3.462  0.00  0.00    -0.273 OA
ATOM     31  N2  <0> d          -1.094  -3.500   3.849  0.00  0.00    -0.326 N 
ATOM     32  H18 <0> d          -1.194  -4.222   4.489  0.00  0.00     0.169 HD
BRANCH  31  33
ATOM     33  C17 <0> d          -0.927  -3.788   2.490  0.00  0.00     0.040 A 
ATOM     34  C22 <0> d          -0.481  -5.041   2.094  0.00  0.00    -0.035 A 
ATOM     35  C21 <0> d          -0.323  -5.324   0.751  0.00  0.00     0.009 A 
ATOM     36  C23 <0> d          -0.175  -6.094   3.128  0.00  0.00     0.050 C 
ATOM     37  C20 <0> d          -0.597  -4.357  -0.198  0.00  0.00     0.001 A 
ATOM     38  C19 <0> d          -1.036  -3.105   0.194  0.00  0.00     0.002 A 
ATOM     39  C18 <0> d          -1.202  -2.818   1.534  0.00  0.00     0.030 A 
ENDBRANCH  31  33
ENDBRANCH   3  29
BRANCH   4  40
ATOM     40  O3  <0> d          -2.282  -0.467   7.353  0.00  0.00    -0.389 OA
ATOM     41  H17 <0> d          -2.925   0.221   7.571  0.00  0.00     0.210 HD
ENDBRANCH   4  40
TORSDOF 7
