REMARK  8 active torsions:
REMARK  status: ('A' for Active; 'I' for Inactive)
REMARK    1  A    between atoms: C4_4  and  S1_10 
REMARK    2  A    between atoms: C7_7  and  O1_8 
REMARK    3  A    between atoms: S1_10  and  N1_13 
REMARK    4  A    between atoms: N1_13  and  C9_14 
REMARK    5  A    between atoms: C9_14  and  C10_15 
REMARK    6  A    between atoms: C10_15  and  C11_16 
REMARK    7  A    between atoms: C10_15  and  S2_22 
REMARK    8  A    between atoms: S2_22  and  C16_25 
ROOT
ATOM      1  C10 <0> d          -4.254   3.582  -3.645  0.00  0.00     0.166 C 
ENDROOT
BRANCH   1   2
ATOM      2  C9  <0> d          -3.528   3.094  -2.389  0.00  0.00     0.157 C 
BRANCH   2   3
ATOM      3  N1  <0> d          -3.218   4.238  -1.528  0.00  0.00    -0.314 N 
ATOM      4  H11 <0> d          -3.272   5.139  -1.882  0.00  0.00     0.172 HD
BRANCH   3   5
ATOM      5  S1  <0> d          -2.776   3.991   0.048  0.00  0.00     0.258 S 
ATOM      6  O2  <0> d          -3.732   3.099   0.604  0.00  0.00    -0.201 OA
ATOM      7  O3  <0> d          -2.519   5.274   0.603  0.00  0.00    -0.201 OA
BRANCH   5   8
ATOM      8  C4  <0> d          -1.237   3.133   0.030  0.00  0.00     0.080 A 
ATOM      9  C3  <0> d          -0.051   3.844   0.022  0.00  0.00     0.034 A 
ATOM     10  C2  <0> d           1.157   3.173   0.008  0.00  0.00    -0.027 A 
ATOM     11  C1  <0> d           2.449   3.948  -0.000  0.00  0.00     0.051 C 
ATOM     12  C7  <0> d           1.179   1.786   0.000  0.00  0.00     0.074 A 
ATOM     13  C6  <0> d          -0.013   1.076   0.008  0.00  0.00     0.039 A 
ATOM     14  C5  <0> d          -1.218   1.751   0.017  0.00  0.00     0.028 A 
BRANCH  12  15
ATOM     15  O1  <0> d           2.366   1.125  -0.015  0.00  0.00    -0.355 OA
ATOM     16  C8  <0> d           2.313  -0.303  -0.022  0.00  0.00     0.210 C 
ENDBRANCH  12  15
ENDBRANCH   5   8
ENDBRANCH   3   5
ENDBRANCH   2   3
ENDBRANCH   1   2
BRANCH   1  17
ATOM     17  C11 <0> d          -4.572   2.405  -4.531  0.00  0.00    -0.020 A 
ATOM     18  C15 <0> d          -3.558   1.608  -5.027  0.00  0.00     0.124 A 
ATOM     19  N2  <0> d          -3.829   0.577  -5.802  0.00  0.00    -0.273 NA
ATOM     20  C14 <0> d          -5.067   0.265  -6.134  0.00  0.00     0.116 A 
ATOM     21  C13 <0> d          -6.133   1.016  -5.675  0.00  0.00     0.020 A 
ATOM     22  C12 <0> d          -5.887   2.105  -4.854  0.00  0.00     0.011 A 
ENDBRANCH   1  17
BRANCH   1  23
ATOM     23  S2  <0> d          -3.191   4.745  -4.544  0.00  0.00     0.185 S 
ATOM     24  O4  <0> d          -3.027   5.940  -3.792  0.00  0.00    -0.222 OA
ATOM     25  O5  <0> d          -2.064   4.066  -5.078  0.00  0.00    -0.222 OA
BRANCH  23  26
ATOM     26  C16 <0> d          -4.135   5.226  -5.951  0.00  0.00     0.060 A 
ATOM     27  C21 <0> d          -4.973   6.324  -5.879  0.00  0.00     0.026 A 
ATOM     28  C20 <0> d          -5.714   6.702  -6.983  0.00  0.00     0.044 A 
ATOM     29  C19 <0> d          -5.617   5.981  -8.161  0.00  0.00     0.116 A 
ATOM     30  C18 <0> d          -4.777   4.882  -8.232  0.00  0.00     0.044 A 
ATOM     31  F1  <0> d          -6.341   6.350  -9.241  0.00  0.00    -0.206 F 
ATOM     32  C17 <0> d          -4.034   4.509  -7.129  0.00  0.00     0.026 A 
ENDBRANCH  23  26
ENDBRANCH   1  23
TORSDOF 8
