REMARK  2 active torsions:
REMARK  status: ('A' for Active; 'I' for Inactive)
REMARK       I    between atoms: C2_2  and  N1_4 
REMARK    1  A    between atoms: N2_8  and  C10_15 
REMARK    2  A    between atoms: C7_10  and  C9_12 
ROOT
ATOM      1  C1  <0> d          -0.018   1.503   0.010  0.00  0.00     0.117 C 
ATOM      2  C2  <0> d           0.002  -0.004   0.002  0.00  0.00     0.215 C 
ATOM      3  O1  <0> d           0.020  -0.616   1.049  0.00  0.00    -0.274 OA
ATOM      4  N1  <0> d           0.000  -0.672  -1.169  0.00  0.00    -0.351 N 
ATOM      5  C3  <0> d          -0.014  -0.082  -2.518  0.00  0.00     0.133 C 
ATOM      6  C4  <0> d           0.755  -1.057  -3.425  0.00  0.00     0.044 C 
ATOM      7  C5  <0> d           2.221  -0.605  -3.530  0.00  0.00     0.130 C 
ATOM      8  N2  <0> d           2.960  -1.348  -2.496  0.00  0.00    -0.378 N 
ATOM      9  C6  <0> d           2.281  -2.646  -2.345  0.00  0.00     0.146 C 
ATOM     10  C7  <0> d           0.772  -2.402  -2.658  0.00  0.00     0.087 C 
ATOM     11  C8  <0> d           0.018  -2.133  -1.349  0.00  0.00     0.148 C 
ENDROOT
BRANCH   8  12
ATOM     12  C10 <0> d           4.076  -0.912  -1.800  0.00  0.00     0.044 A 
ATOM     13  C14 <0> d           5.382  -1.156  -2.287  0.00  0.00     0.017 A 
ATOM     14  C13 <0> d           6.490  -0.685  -1.543  0.00  0.00     0.044 A 
ATOM     15  C15 <0> d           5.595  -1.847  -3.488  0.00  0.00     0.016 A 
ATOM     16  N3  <0> d           6.293  -0.031  -0.393  0.00  0.00    -0.365 N 
ATOM     17  C18 <0> d           7.788  -0.921  -2.028  0.00  0.00     0.030 A 
ATOM     18  C12 <0> d           5.086   0.198   0.072  0.00  0.00     0.090 A 
ATOM     19  H19 <0> d           7.061   0.283   0.110  0.00  0.00     0.165 HD
ATOM     20  C11 <0> d           3.949  -0.226  -0.601  0.00  0.00     0.047 A 
ATOM     21  C17 <0> d           7.961  -1.605  -3.192  0.00  0.00     0.002 A 
ATOM     22  C16 <0> d           6.868  -2.062  -3.925  0.00  0.00     0.001 A 
ENDBRANCH   8  12
BRANCH  10  23
ATOM     23  C9  <0> d           0.160  -3.518  -3.464  0.00  0.00     0.185 C 
ATOM     24  O2  <0> d           0.546  -4.664  -3.311  0.00  0.00    -0.647 OA
ATOM     25  O3  <0> d          -0.722  -3.275  -4.270  0.00  0.00    -0.647 OA
ENDBRANCH  10  23
TORSDOF 2
