REMARK  5 active torsions:
REMARK  status: ('A' for Active; 'I' for Inactive)
REMARK    1  A    between atoms: C6_7  and  C9_10 
REMARK    2  A    between atoms: C9_10  and  C10_11 
REMARK    3  A    between atoms: C10_11  and  C11_12 
REMARK    4  A    between atoms: C10_11  and  N2_15 
REMARK    5  A    between atoms: C12_16  and  C13_17 
ROOT
ATOM      1  C10 <0> d           0.457  -3.653  -1.462  0.00  0.00     0.212 C 
ENDROOT
BRANCH   1   2
ATOM      2  C9  <0> d           0.691  -3.186  -0.024  0.00  0.00     0.075 C 
BRANCH   2   3
ATOM      3  C6  <0> d           1.631  -2.008  -0.025  0.00  0.00    -0.047 A 
ATOM      4  C5  <0> d           3.143  -2.053  -0.041  0.00  0.00     0.155 A 
ATOM      5  N1  <0> d           3.587  -0.654  -0.037  0.00  0.00    -0.385 N 
ATOM      6  C4  <0> d           2.529   0.120  -0.022  0.00  0.00     0.038 A 
ATOM      7  H15 <0> d           4.509  -0.353  -0.045  0.00  0.00     0.160 HD
ATOM      8  C3  <0> d           2.391   1.535  -0.013  0.00  0.00     0.030 A 
ATOM      9  C7  <0> d           1.295  -0.698  -0.014  0.00  0.00    -0.006 A 
ATOM     10  C2  <0> d           1.166   2.101   0.002  0.00  0.00     0.002 A 
ATOM     11  C1  <0> d          -0.016   1.348   0.009  0.00  0.00     0.001 A 
ATOM     12  C8  <0> d           0.002  -0.004   0.002  0.00  0.00     0.014 A 
ENDBRANCH   2   3
ENDBRANCH   1   2
BRANCH   1  13
ATOM     13  C11 <0> d          -0.578  -4.750  -1.471  0.00  0.00     0.199 C 
ATOM     14  O1  <0> d          -1.742  -4.491  -1.220  0.00  0.00    -0.646 OA
ATOM     15  O2  <0> d          -0.250  -5.895  -1.731  0.00  0.00    -0.646 OA
ENDBRANCH   1  13
BRANCH   1  16
ATOM     16  N2  <0> d           1.712  -4.162  -2.020  0.00  0.00    -0.284 NA
ATOM     17  C12 <0> d           2.222  -3.609  -3.077  0.00  0.00     0.132 C 
BRANCH  17  18
ATOM     18  C13 <0> d           3.480  -4.118  -3.637  0.00  0.00     0.094 C 
ATOM     19  C21 <0> d           4.189  -5.252  -3.027  0.00  0.00     0.303 C 
ATOM     20  O4  <0> d           4.973  -6.015  -3.828  0.00  0.00    -0.274 OA
ATOM     21  O5  <0> d           4.073  -5.499  -1.841  0.00  0.00    -0.259 OA
ATOM     22  C20 <0> d           5.739  -5.370  -4.740  0.00  0.00     0.092 A 
ATOM     23  C15 <0> d           5.324  -4.128  -5.251  0.00  0.00     0.035 A 
ATOM     24  C19 <0> d           6.931  -5.926  -5.183  0.00  0.00     0.038 A 
ATOM     25  C14 <0> d           4.064  -3.541  -4.774  0.00  0.00     0.138 C 
ATOM     26  C16 <0> d           6.110  -3.467  -6.200  0.00  0.00     0.017 A 
ATOM     27  O3  <0> d           3.493  -2.491  -5.404  0.00  0.00    -0.190 OA
ATOM     28  C17 <0> d           7.279  -4.034  -6.624  0.00  0.00     0.001 A 
ATOM     29  C18 <0> d           7.693  -5.258  -6.120  0.00  0.00     0.003 A 
ENDBRANCH  17  18
ENDBRANCH   1  16
TORSDOF 5
