REMARK  7 active torsions:
REMARK  status: ('A' for Active; 'I' for Inactive)
REMARK    1  A    between atoms: C6_6  and  S1_14 
REMARK       I    between atoms: N1_10  and  C10_11 
REMARK    2  A    between atoms: S1_14  and  N2_17 
REMARK    3  A    between atoms: N2_17  and  C12_18 
REMARK    4  A    between atoms: C12_18  and  C13_19 
REMARK    5  A    between atoms: C12_18  and  C16_22 
REMARK       I    between atoms: C16_22  and  N3_24 
REMARK    6  A    between atoms: N3_24  and  C17_25 
REMARK    7  A    between atoms: C22_30  and  O5_31 
ROOT
ATOM      1  N2  <0> d           1.137   0.122  -2.820  0.00  0.00    -0.301 N 
ATOM      2  H14 <0> d           0.531  -0.214  -3.499  0.00  0.00     0.173 HD
ENDROOT
BRANCH   1   3
ATOM      3  S1  <0> d           2.101   1.429  -3.146  0.00  0.00     0.259 S 
ATOM      4  O2  <0> d           1.893   1.756  -4.512  0.00  0.00    -0.201 OA
ATOM      5  O3  <0> d           1.886   2.363  -2.097  0.00  0.00    -0.201 OA
BRANCH   3   6
ATOM      6  C6  <0> d           3.773   0.890  -3.006  0.00  0.00     0.080 A 
ATOM      7  C5  <0> d           4.429   0.975  -1.792  0.00  0.00     0.034 A 
ATOM      8  C4  <0> d           5.738   0.548  -1.679  0.00  0.00    -0.028 A 
ATOM      9  C3  <0> d           6.675   0.523  -0.492  0.00  0.00     0.066 A 
ATOM     10  C9  <0> d           6.409   0.042  -2.781  0.00  0.00     0.044 A 
ATOM     11  C2  <0> d           7.984  -0.064  -1.044  0.00  0.00     0.093 A 
ATOM     12  C1  <0> d           9.123   0.947  -0.896  0.00  0.00     0.033 C 
ATOM     13  N1  <0> d           7.719  -0.328  -2.461  0.00  0.00    -0.313 N 
ATOM     14  C10 <0> d           8.608  -0.850  -3.329  0.00  0.00     0.220 C 
ATOM     15  O1  <0> d           8.332  -0.928  -4.507  0.00  0.00    -0.273 OA
ATOM     16  C11 <0> d           9.946  -1.339  -2.835  0.00  0.00     0.117 C 
ATOM     17  C8  <0> d           5.742  -0.036  -4.005  0.00  0.00     0.032 A 
ATOM     18  C7  <0> d           4.434   0.387  -4.111  0.00  0.00     0.027 A 
ENDBRANCH   3   6
ENDBRANCH   1   3
BRANCH   1  19
ATOM     19  C12 <0> d           1.199  -0.525  -1.508  0.00  0.00     0.188 C 
BRANCH  19  20
ATOM     20  C13 <0> d           0.022  -0.055  -0.651  0.00  0.00     0.010 C 
ATOM     21  C14 <0> d          -1.290  -0.348  -1.381  0.00  0.00     0.012 C 
ATOM     22  C15 <0> d           0.142   1.450  -0.402  0.00  0.00     0.012 C 
ENDBRANCH  19  20
BRANCH  19  23
ATOM     23  C16 <0> d           1.127  -2.021  -1.681  0.00  0.00     0.246 C 
ATOM     24  O4  <0> d           0.895  -2.494  -2.773  0.00  0.00    -0.271 OA
ATOM     25  N3  <0> d           1.322  -2.832  -0.623  0.00  0.00    -0.323 N 
ATOM     26  H22 <0> d           1.432  -2.455   0.264  0.00  0.00     0.169 HD
BRANCH  25  27
ATOM     27  C17 <0> d           1.366  -4.221  -0.803  0.00  0.00     0.068 A 
ATOM     28  C22 <0> d           1.033  -5.073   0.247  0.00  0.00     0.095 A 
ATOM     29  C21 <0> d           1.079  -6.445   0.063  0.00  0.00     0.039 A 
ATOM     30  C20 <0> d           1.453  -6.966  -1.161  0.00  0.00     0.003 A 
ATOM     31  C19 <0> d           1.784  -6.122  -2.205  0.00  0.00     0.002 A 
ATOM     32  C18 <0> d           1.736  -4.751  -2.031  0.00  0.00     0.032 A 
BRANCH  28  33
ATOM     33  O5  <0> d           0.664  -4.559   1.451  0.00  0.00    -0.354 OA
ATOM     34  C23 <0> d           0.337  -5.492   2.482  0.00  0.00     0.210 C 
ENDBRANCH  28  33
ENDBRANCH  25  27
ENDBRANCH  19  23
ENDBRANCH   1  19
TORSDOF 7
