REMARK  6 active torsions:
REMARK  status: ('A' for Active; 'I' for Inactive)
REMARK    1  A    between atoms: C5_5  and  C8_8 
REMARK    2  A    between atoms: C9_9  and  C23_28 
REMARK    3  A    between atoms: C10_10  and  C12_15 
REMARK    4  A    between atoms: C12_15  and  N3_16 
REMARK    5  A    between atoms: C15_19  and  N4_22 
REMARK    6  A    between atoms: C23_28  and  O3_30 
ROOT
ATOM      1  C8  <0> d           0.069  -4.280  -0.021  0.00  0.00     0.161 A 
ATOM      2  C9  <0> d          -1.339  -4.827   0.092  0.00  0.00     0.069 A 
ATOM      3  C10 <0> d          -1.624  -5.617   1.150  0.00  0.00     0.056 A 
ATOM      4  N1  <0> d          -0.673  -5.912   2.085  0.00  0.00    -0.310 N 
ATOM      5  C11 <0> d           0.585  -5.457   2.034  0.00  0.00     0.321 A 
ATOM      6  O1  <0> d           1.361  -5.775   2.914  0.00  0.00    -0.247 OA
ATOM      7  N2  <0> d           1.018  -4.658   1.040  0.00  0.00    -0.330 N 
ATOM      8  H9  <0> d          -0.923  -6.484   2.828  0.00  0.00     0.170 HD
ATOM      9  H10 <0> d           1.934  -4.340   1.023  0.00  0.00     0.165 HD
ENDROOT
BRANCH   3  10
ATOM     10  C12 <0> d          -3.013  -6.182   1.301  0.00  0.00     0.330 C 
BRANCH  10  11
ATOM     11  N3  <0> d          -2.960  -7.646   1.198  0.00  0.00     0.094 N 
ATOM     12  C17 <0> d          -4.246  -8.247   1.574  0.00  0.00     0.275 C 
ATOM     13  C16 <0> d          -4.112  -9.771   1.595  0.00  0.00     0.063 C 
ATOM     14  C15 <0> d          -3.684 -10.261   0.209  0.00  0.00     0.191 C 
ATOM     15  C14 <0> d          -2.367  -9.584  -0.179  0.00  0.00     0.063 C 
ATOM     16  C13 <0> d          -2.552  -8.065  -0.149  0.00  0.00     0.275 C 
BRANCH  14  17
ATOM     17  N4  <0> d          -3.497 -11.718   0.239  0.00  0.00    -0.067 N 
ATOM     18  C22 <0> d          -4.761 -12.364   0.611  0.00  0.00     0.235 C 
ATOM     19  C21 <0> d          -4.551 -13.876   0.723  0.00  0.00     0.028 C 
ATOM     20  C20 <0> d          -4.075 -14.421  -0.627  0.00  0.00     0.003 C 
ATOM     21  C19 <0> d          -2.796 -13.687  -1.040  0.00  0.00     0.028 C 
ATOM     22  C18 <0> d          -3.071 -12.182  -1.087  0.00  0.00     0.235 C 
ATOM     23  H35 <0> d          -2.788 -11.951   0.918  0.00  0.00     0.280 HD
ENDBRANCH  14  17
ENDBRANCH  10  11
ENDBRANCH   3  10
BRANCH   2  24
ATOM     24  C23 <0> d          -2.323  -4.520  -0.877  0.00  0.00     0.293 C 
ATOM     25  O2  <0> d          -2.328  -5.102  -1.945  0.00  0.00    -0.259 OA
BRANCH  24  26
ATOM     26  O3  <0> d          -3.257  -3.581  -0.616  0.00  0.00    -0.323 OA
ATOM     27  C24 <0> d          -4.220  -3.322  -1.640  0.00  0.00     0.213 C 
ENDBRANCH  24  26
ENDBRANCH   2  24
BRANCH   1  28
ATOM     28  C5  <0> d          -0.018  -2.776  -0.052  0.00  0.00    -0.031 A 
ATOM     29  C4  <0> d          -0.009  -2.108  -1.263  0.00  0.00     0.010 A 
ATOM     30  C3  <0> d          -0.090  -0.729  -1.292  0.00  0.00     0.007 A 
ATOM     31  C2  <0> d          -0.179  -0.017  -0.110  0.00  0.00    -0.062 A 
ATOM     32  C1  <0> d          -0.267   1.488  -0.142  0.00  0.00     0.048 C 
ATOM     33  C7  <0> d          -0.183  -0.684   1.100  0.00  0.00     0.007 A 
ATOM     34  C6  <0> d          -0.107  -2.064   1.129  0.00  0.00     0.010 A 
ENDBRANCH   1  28
TORSDOF 6
