REMARK  3 active torsions:
REMARK  status: ('A' for Active; 'I' for Inactive)
REMARK    1  A    between atoms: C5_5  and  N1_8 
REMARK    2  A    between atoms: C9_10  and  N3_14 
REMARK       I    between atoms: N3_14  and  C12_15 
REMARK    3  A    between atoms: C12_15  and  C13_17 
ROOT
ATOM      1  N1  <0> d          -0.149   2.308   2.342  0.00  0.00    -0.236 N 
ATOM      2  C8  <0> d          -0.950   2.624   1.288  0.00  0.00     0.061 A 
ATOM      3  C9  <0> d          -2.153   2.030   1.496  0.00  0.00     0.086 A 
ATOM      4  C10 <0> d          -2.080   1.324   2.707  0.00  0.00     0.080 A 
ATOM      5  N2  <0> d          -0.885   1.494   3.212  0.00  0.00    -0.170 NA
ATOM      6  C11 <0> d          -3.191   0.514   3.324  0.00  0.00     0.075 C 
ATOM      7  C18 <0> d          -0.572   3.482   0.108  0.00  0.00     0.073 C 
ENDROOT
BRANCH   3   8
ATOM      8  N3  <0> d          -3.272   2.106   0.648  0.00  0.00    -0.318 N 
ATOM      9  C12 <0> d          -4.345   2.836   1.012  0.00  0.00     0.276 C 
ATOM     10  O1  <0> d          -4.314   3.494   2.034  0.00  0.00    -0.266 OA
ATOM     11  H11 <0> d          -3.272   1.570  -0.312  0.00  0.00     0.169 HD
BRANCH   9  12
ATOM     12  C13 <0> d          -5.561   2.837   0.167  0.00  0.00     0.141 A 
ATOM     13  N5  <0> d          -5.597   2.119  -0.952  0.00  0.00    -0.252 NA
ATOM     14  C16 <0> d          -6.681   2.122  -1.702  0.00  0.00     0.144 A 
ATOM     15  C15 <0> d          -7.785   2.873  -1.326  0.00  0.00     0.048 A 
ATOM     16  N4  <0> d          -7.755   3.589  -0.215  0.00  0.00    -0.262 NA
ATOM     17  C17 <0> d          -9.022   2.873  -2.186  0.00  0.00     0.072 C 
ATOM     18  C14 <0> d          -6.675   3.588   0.544  0.00  0.00     0.154 A 
ENDBRANCH   9  12
ENDBRANCH   3   8
BRANCH   1  19
ATOM     19  C5  <0> d           1.177   2.724   2.524  0.00  0.00     0.058 A 
ATOM     20  C4  <0> d           1.652   2.995   3.800  0.00  0.00     0.032 A 
ATOM     21  C3  <0> d           2.959   3.404   3.977  0.00  0.00     0.009 A 
ATOM     22  C2  <0> d           3.795   3.545   2.884  0.00  0.00    -0.062 A 
ATOM     23  C1  <0> d           5.221   3.991   3.080  0.00  0.00     0.048 C 
ATOM     24  C7  <0> d           3.325   3.276   1.611  0.00  0.00     0.009 A 
ATOM     25  C6  <0> d           2.020   2.860   1.429  0.00  0.00     0.032 A 
ENDBRANCH   1  19
TORSDOF 3
