REMARK  2 active torsions:
REMARK  status: ('A' for Active; 'I' for Inactive)
REMARK    1  A    between atoms: C3_4  and  C5_8 
REMARK    2  A    between atoms: C5_8  and  C6_9 
ROOT
ATOM      1  C6  <0> d           1.484  -3.590  -2.006  0.00  0.00     0.018 C 
ATOM      2  C7  <0> d           2.150  -2.448  -2.780  0.00  0.00     0.008 C 
ATOM      3  C8  <0> d           3.570  -2.869  -3.168  0.00  0.00     0.028 C 
ATOM      4  C9  <0> d           3.509  -4.163  -3.982  0.00  0.00     0.232 C 
ATOM      5  N4  <0> d           2.885  -5.222  -3.179  0.00  0.00    -0.075 N 
ATOM      6  C10 <0> d           1.499  -4.858  -2.862  0.00  0.00     0.237 C 
ATOM      7  H16 <0> d           2.895  -6.087  -3.698  0.00  0.00     0.277 HD
ATOM      8  H19 <0> d           3.404  -5.341  -2.322  0.00  0.00     0.277 HD
ENDROOT
BRANCH   1   9
ATOM      9  C5  <0> d           0.037  -3.210  -1.681  0.00  0.00     0.086 C 
BRANCH   9  10
ATOM     10  C3  <0> d           0.026  -2.034  -0.740  0.00  0.00     0.124 A 
ATOM     11  N1  <0> d           0.007  -0.772  -1.087  0.00  0.00    -0.217 NA
ATOM     12  C2  <0> d           0.002  -0.004   0.002  0.00  0.00     0.144 A 
ATOM     13  C1  <0> d          -0.018   1.503   0.010  0.00  0.00     0.095 C 
ATOM     14  N3  <0> d           0.023  -0.769   1.062  0.00  0.00    -0.156 NA
ATOM     15  N2  <0> d           0.033  -2.097   0.603  0.00  0.00    -0.259 N 
ATOM     16  C4  <0> d           0.053  -3.309   1.425  0.00  0.00     0.181 C 
ENDBRANCH   9  10
ENDBRANCH   1   9
TORSDOF 2
