REMARK  5 active torsions:
REMARK  status: ('A' for Active; 'I' for Inactive)
REMARK    1  A    between atoms: C2_2  and  C3_3 
REMARK    2  A    between atoms: C6_6  and  N3_12 
REMARK    3  A    between atoms: N3_12  and  C9_13 
REMARK    4  A    between atoms: C9_13  and  C10_14 
REMARK    5  A    between atoms: C10_14  and  N4_15 
REMARK       I    between atoms: N5_18  and  C15_21 
ROOT
ATOM      1  N3  <0> d          -4.321  -1.589  -3.087  0.00  0.00    -0.372 N 
ATOM      2  H8  <0> d          -3.464  -1.271  -3.412  0.00  0.00     0.161 HD
ENDROOT
BRANCH   1   3
ATOM      3  C6  <0> d          -4.554  -1.679  -1.726  0.00  0.00     0.138 A 
ATOM      4  C5  <0> d          -3.543  -1.309  -0.797  0.00  0.00     0.046 A 
ATOM      5  C4  <0> d          -2.199  -0.812  -1.035  0.00  0.00     0.033 A 
ATOM      6  C8  <0> d          -3.894  -1.443   0.564  0.00  0.00     0.113 A 
ATOM      7  C3  <0> d          -1.412  -0.526   0.013  0.00  0.00    -0.015 A 
ATOM      8  S1  <0> d          -2.434  -0.916   1.421  0.00  0.00    -0.074 SA
ATOM      9  N2  <0> d          -5.083  -1.883   0.927  0.00  0.00    -0.234 NA
ATOM     10  C7  <0> d          -5.979  -2.212   0.018  0.00  0.00     0.236 A 
ATOM     11  N1  <0> d          -5.719  -2.111  -1.274  0.00  0.00    -0.224 NA
BRANCH   7  12
ATOM     12  C2  <0> d           0.002  -0.004   0.002  0.00  0.00     0.042 C 
ATOM     13  C1  <0> d          -0.019   1.526   0.010  0.00  0.00     0.010 C 
ENDBRANCH   7  12
ENDBRANCH   1   3
BRANCH   1  14
ATOM     14  C9  <0> d          -5.368  -1.972  -4.036  0.00  0.00     0.151 C 
BRANCH  14  15
ATOM     15  C10 <0> d          -4.857  -1.778  -5.465  0.00  0.00     0.292 C 
BRANCH  15  16
ATOM     16  N4  <0> d          -5.908  -2.163  -6.418  0.00  0.00     0.093 N 
ATOM     17  C14 <0> d          -5.547  -1.771  -7.787  0.00  0.00     0.292 C 
ATOM     18  C13 <0> d          -6.738  -2.024  -8.717  0.00  0.00     0.156 C 
ATOM     19  N5  <0> d          -7.163  -3.423  -8.563  0.00  0.00    -0.349 N 
ATOM     20  C12 <0> d          -7.411  -3.929  -7.204  0.00  0.00     0.156 C 
ATOM     21  C15 <0> d          -7.321  -4.221  -9.638  0.00  0.00     0.215 C 
ATOM     22  C11 <0> d          -6.194  -3.602  -6.333  0.00  0.00     0.292 C 
ATOM     23  O1  <0> d          -7.673  -5.372  -9.492  0.00  0.00    -0.274 OA
ATOM     24  C16 <0> d          -7.061  -3.682 -11.021  0.00  0.00     0.117 C 
ENDBRANCH  15  16
ENDBRANCH  14  15
ENDBRANCH   1  14
TORSDOF 5
