REMARK  5 active torsions:
REMARK  status: ('A' for Active; 'I' for Inactive)
REMARK    1  A    between atoms: C3_3  and  N4_25 
REMARK    2  A    between atoms: N1_5  and  C5_7 
REMARK    3  A    between atoms: C5_7  and  C6_8 
REMARK    4  A    between atoms: C9_11  and  C12_14 
REMARK       I    between atoms: C12_14  and  N3_16 
REMARK    5  A    between atoms: N3_16  and  C13_17 
ROOT
ATOM      1  C6  <0> d           0.139  -0.741  -7.135  0.00  0.00    -0.038 A 
ATOM      2  C7  <0> d          -0.332   0.556  -7.229  0.00  0.00     0.010 A 
ATOM      3  C8  <0> d          -0.618   1.275  -6.086  0.00  0.00     0.017 A 
ATOM      4  C9  <0> d          -0.430   0.690  -4.833  0.00  0.00     0.032 A 
ATOM      5  C10 <0> d           0.051  -0.618  -4.745  0.00  0.00     0.017 A 
ATOM      6  C11 <0> d           0.327  -1.327  -5.895  0.00  0.00     0.010 A 
ENDROOT
BRANCH   1   7
ATOM      7  C5  <0> d           0.448  -1.520  -8.387  0.00  0.00     0.189 C 
BRANCH   7   8
ATOM      8  N1  <0> d           1.846  -1.299  -8.766  0.00  0.00    -0.267 N 
ATOM      9  C4  <0> d           2.303  -0.327  -9.582  0.00  0.00     0.062 A 
ATOM     10  C3  <0> d           3.646  -0.463  -9.675  0.00  0.00     0.152 A 
ATOM     11  C17 <0> d           1.468   0.725 -10.266  0.00  0.00     0.072 C 
ATOM     12  C2  <0> d           4.022  -1.562  -8.896  0.00  0.00     0.086 A 
ATOM     13  C1  <0> d           5.426  -2.079  -8.714  0.00  0.00     0.075 C 
ATOM     14  N2  <0> d           2.943  -2.064  -8.351  0.00  0.00    -0.174 NA
BRANCH  10  15
ATOM     15  N4  <0> d           4.557   0.396 -10.465  0.00  0.00    -0.111 N 
ATOM     16  O4  <0> d           4.805   0.115 -11.624  0.00  0.00    -0.532 OA
ATOM     17  O5  <0> d           5.057   1.383  -9.957  0.00  0.00    -0.532 OA
ENDBRANCH  10  15
ENDBRANCH   7   8
ENDBRANCH   1   7
BRANCH   4  18
ATOM     18  C12 <0> d          -0.733   1.454  -3.604  0.00  0.00     0.252 C 
ATOM     19  O1  <0> d          -1.147   2.594  -3.684  0.00  0.00    -0.268 OA
ATOM     20  N3  <0> d          -0.550   0.886  -2.395  0.00  0.00    -0.351 N 
ATOM     21  H11 <0> d          -0.220  -0.023  -2.332  0.00  0.00     0.163 HD
BRANCH  20  22
ATOM     22  C13 <0> d          -0.851   1.643  -1.178  0.00  0.00     0.099 C 
ATOM     23  C16 <0> d          -0.013   1.086   0.008  0.00  0.00     0.165 C 
ATOM     24  S1  <0> d          -0.979   1.731   1.438  0.00  0.00     0.146 S 
ATOM     25  C15 <0> d          -2.599   2.009   0.610  0.00  0.00     0.142 C 
ATOM     26  O2  <0> d          -1.123   0.698   2.403  0.00  0.00    -0.228 OA
ATOM     27  O3  <0> d          -0.440   2.986   1.832  0.00  0.00    -0.228 OA
ATOM     28  C14 <0> d          -2.340   1.490  -0.825  0.00  0.00     0.041 C 
ENDBRANCH  20  22
ENDBRANCH   4  18
TORSDOF 5
