REMARK  2 active torsions:
REMARK  status: ('A' for Active; 'I' for Inactive)
REMARK    1  A    between atoms: C8_8  and  O3_18 
REMARK    2  A    between atoms: C9_9  and  O2_17 
ROOT
ATOM      1  C1  <0> d          -2.388  -0.436  -0.017  0.00  0.00     0.052 C 
ATOM      2  C2  <0> d          -2.450   1.069   0.015  0.00  0.00    -0.009 C 
ATOM      3  C3  <0> d          -1.295   1.777   0.018  0.00  0.00    -0.044 C 
ATOM      4  C4  <0> d          -0.013   1.076   0.008  0.00  0.00     0.004 C 
ATOM      5  C5  <0> d           1.138   1.746   0.001  0.00  0.00    -0.021 C 
ATOM      6  C6  <0> d           1.171   3.249   0.003  0.00  0.00     0.015 C 
ATOM      7  C7  <0> d           2.443   3.736   0.700  0.00  0.00     0.043 C 
ATOM      8  C8  <0> d           2.474   3.261   2.135  0.00  0.00     0.147 C 
ATOM      9  C9  <0> d           1.254   3.810   2.877  0.00  0.00     0.147 C 
ATOM     10  C10 <0> d          -0.023   3.312   2.197  0.00  0.00     0.040 C 
ATOM     11  C11 <0> d          -0.051   3.795   0.746  0.00  0.00     0.004 C 
ATOM     12  C12 <0> d          -1.319   3.284   0.055  0.00  0.00     0.024 C 
ATOM     13  C13 <0> d          -2.551   3.768   0.822  0.00  0.00     0.017 C 
ATOM     14  C14 <0> d          -3.807   3.203   0.091  0.00  0.00     0.084 C 
ATOM     15  C15 <0> d          -3.703   1.701   0.042  0.00  0.00     0.155 C 
ATOM     16  O1  <0> d          -4.715   1.029   0.025  0.00  0.00    -0.293 OA
ENDROOT
BRANCH   8  17
ATOM     17  O3  <0> d           3.667   3.726   2.770  0.00  0.00    -0.393 OA
ATOM     18  H20 <0> d           3.862   3.476   3.824  0.00  0.00     0.210 HD
ENDBRANCH   8  17
BRANCH   9  19
ATOM     19  O2  <0> d           1.282   5.239   2.849  0.00  0.00    -0.393 OA
ATOM     20  H19 <0> d           0.480   5.814   3.335  0.00  0.00     0.210 HD
ENDBRANCH   9  19
TORSDOF 2
