REMARK  7 active torsions:
REMARK  status: ('A' for Active; 'I' for Inactive)
REMARK    1  A    between atoms: C2_2  and  C4_4 
REMARK    2  A    between atoms: C4_4  and  C5_5 
REMARK    3  A    between atoms: C4_4  and  N1_8 
REMARK    4  A    between atoms: N1_8  and  C6_9 
REMARK    5  A    between atoms: C6_9  and  C7_10 
REMARK    6  A    between atoms: C12_15  and  O3_16 
REMARK    7  A    between atoms: O3_16  and  C13_17 
ROOT
ATOM      1  C13 <0> d          -2.934  -2.712   4.818  0.00  0.00     0.268 C 
ATOM      2  C14 <0> d          -3.256  -3.777   3.855  0.00  0.00    -0.091 C 
ATOM      3  C15 <0> d          -3.513  -4.627   3.087  0.00  0.00     0.014 C 
ENDROOT
BRANCH   1   4
ATOM      4  O3  <0> d          -1.734  -2.050   4.413  0.00  0.00    -0.339 OA
BRANCH   4   5
ATOM      5  C12 <0> d          -1.294  -1.032   5.200  0.00  0.00     0.077 A 
ATOM      6  C7  <0> d          -0.137  -0.346   4.865  0.00  0.00     0.002 A 
ATOM      7  C8  <0> d           0.306   0.691   5.663  0.00  0.00     0.030 A 
ATOM      8  C9  <0> d          -0.402   1.042   6.799  0.00  0.00     0.011 A 
ATOM      9  C10 <0> d          -1.555   0.355   7.137  0.00  0.00     0.022 A 
ATOM     10 Br1  <0> d           0.206   2.462   7.890  0.00  0.00    -0.051 Br
ATOM     11  C11 <0> d          -2.000  -0.682   6.342  0.00  0.00     0.039 A 
BRANCH   6  12
ATOM     12  C6  <0> d           0.635  -0.727   3.628  0.00  0.00     0.274 C 
BRANCH  12  13
ATOM     13  N1  <0> d          -0.010  -0.139   2.447  0.00  0.00    -0.057 N 
ATOM     14  H9  <0> d          -0.025   0.866   2.538  0.00  0.00     0.278 HD
ATOM     15  H18 <0> d          -0.956  -0.484   2.374  0.00  0.00     0.278 HD
BRANCH  13  16
ATOM     16  C4  <0> d           0.742  -0.511   1.242  0.00  0.00     0.289 C 
BRANCH  16  17
ATOM     17  C2  <0> d           0.002  -0.004   0.002  0.00  0.00     0.019 C 
ATOM     18  C1  <0> d          -0.019   1.526   0.010  0.00  0.00     0.012 C 
ATOM     19  C3  <0> d           0.718  -0.497  -1.257  0.00  0.00     0.012 C 
ENDBRANCH  16  17
BRANCH  16  20
ATOM     20  C5  <0> d           2.115   0.108   1.295  0.00  0.00     0.205 C 
ATOM     21  O1  <0> d           2.376   0.938   2.150  0.00  0.00    -0.646 OA
ATOM     22  O2  <0> d           2.964  -0.220   0.484  0.00  0.00    -0.646 OA
ENDBRANCH  16  20
ENDBRANCH  13  16
ENDBRANCH  12  13
ENDBRANCH   6  12
ENDBRANCH   4   5
ENDBRANCH   1   4
TORSDOF 7
