REMARK  6 active torsions:
REMARK  status: ('A' for Active; 'I' for Inactive)
REMARK    1  A    between atoms: C2_2  and  N3_27 
REMARK    2  A    between atoms: C7_8  and  N1_14 
REMARK    3  A    between atoms: C8_9  and  C9_10 
REMARK    4  A    between atoms: C9_10  and  O2_12 
REMARK       I    between atoms: N1_14  and  C11_15 
REMARK    5  A    between atoms: C11_15  and  C12_17 
REMARK    6  A    between atoms: C12_17  and  N2_18 
ROOT
ATOM      1  C3  <0> d          -2.660   2.361  -8.080  0.00  0.00     0.240 C 
ATOM      2  C4  <0> d          -1.338   1.986  -7.403  0.00  0.00     0.068 C 
ATOM      3  C5  <0> d          -1.523   2.116  -5.896  0.00  0.00    -0.023 A 
ATOM      4  C6  <0> d          -2.559   2.829  -5.398  0.00  0.00     0.018 A 
ATOM      5  S1  <0> d          -2.386   2.712  -3.642  0.00  0.00    -0.074 SA
ATOM      6  C7  <0> d          -0.959   1.732  -3.566  0.00  0.00     0.094 A 
ATOM      7  C8  <0> d          -0.646   1.522  -4.904  0.00  0.00     0.080 A 
ATOM      8  C17 <0> d          -3.604   3.550  -6.191  0.00  0.00     0.281 C 
ATOM      9  N3  <0> d          -3.108   3.678  -7.584  0.00  0.00    -0.067 N 
ATOM     10  H22 <0> d          -2.314   4.329  -7.597  0.00  0.00     0.280 HD
ENDROOT
BRANCH   6  11
ATOM     11  N1  <0> d          -0.288   1.272  -2.443  0.00  0.00    -0.319 N 
ATOM     12  C11 <0> d          -0.742   1.585  -1.213  0.00  0.00     0.240 C 
ATOM     13  O3  <0> d          -1.736   2.268  -1.088  0.00  0.00    -0.271 OA
ATOM     14  H13 <0> d           0.507   0.726  -2.543  0.00  0.00     0.169 HD
BRANCH  12  15
ATOM     15  C12 <0> d          -0.013   1.086   0.008  0.00  0.00     0.238 C 
BRANCH  15  16
ATOM     16  N2  <0> d          -0.698   1.558   1.213  0.00  0.00    -0.280 N 
ATOM     17  C16 <0> d          -1.675   0.864   1.810  0.00  0.00     0.227 A 
ATOM     18  C15 <0> d          -2.163   1.631   3.020  0.00  0.00     0.112 A 
ATOM     19  O5  <0> d          -2.101  -0.209   1.440  0.00  0.00    -0.273 OA
ATOM     20  C14 <0> d          -1.289   2.902   3.019  0.00  0.00     0.112 A 
ATOM     21  C13 <0> d          -0.396   2.717   1.812  0.00  0.00     0.227 A 
ATOM     22  O4  <0> d           0.456   3.496   1.443  0.00  0.00    -0.273 OA
ENDBRANCH  15  16
ENDBRANCH  12  15
ENDBRANCH   6  11
BRANCH   7  23
ATOM     23  C9  <0> d           0.520   0.729  -5.297  0.00  0.00     0.296 C 
ATOM     24  O1  <0> d           0.412  -0.471  -5.463  0.00  0.00    -0.259 OA
BRANCH  23  25
ATOM     25  O2  <0> d           1.715   1.330  -5.476  0.00  0.00    -0.322 OA
ATOM     26  C10 <0> d           2.827   0.482  -5.865  0.00  0.00     0.213 C 
ENDBRANCH  23  25
ENDBRANCH   7  23
BRANCH   9  27
ATOM     27  C2  <0> d          -4.179   4.209  -8.455  0.00  0.00     0.231 C 
ATOM     28  C1  <0> d          -5.338   3.215  -8.544  0.00  0.00     0.034 C 
ENDBRANCH   9  27
TORSDOF 6
