REMARK  5 active torsions:
REMARK  status: ('A' for Active; 'I' for Inactive)
REMARK    1  A    between atoms: C5_5  and  N2_20 
REMARK    2  A    between atoms: C7_7  and  C8_8 
REMARK       I    between atoms: C8_8  and  N1_10 
REMARK    3  A    between atoms: N1_10  and  C9_11 
REMARK    4  A    between atoms: N1_10  and  C14_17 
REMARK    5  A    between atoms: C9_11  and  C10_12 
ROOT
ATOM      1  C8  <0> d          -0.366   0.012   2.668  0.00  0.00     0.254 C 
ATOM      2  O1  <0> d          -0.539  -0.668   1.675  0.00  0.00    -0.267 OA
ATOM      3  N1  <0> d          -0.244  -0.575   3.874  0.00  0.00    -0.343 N 
ENDROOT
BRANCH   1   4
ATOM      4  C7  <0> d          -0.291   1.484   2.551  0.00  0.00     0.040 A 
ATOM      5  C2  <0> d          -1.329   2.193   1.945  0.00  0.00    -0.046 A 
ATOM      6  C1  <0> d          -2.530   1.458   1.407  0.00  0.00     0.049 C 
ATOM      7  C3  <0> d          -1.259   3.568   1.843  0.00  0.00     0.010 A 
ATOM      8  C4  <0> d          -0.160   4.247   2.334  0.00  0.00     0.029 A 
ATOM      9  C5  <0> d           0.882   3.550   2.935  0.00  0.00     0.026 A 
ATOM     10  C6  <0> d           0.821   2.169   3.042  0.00  0.00     0.046 A 
BRANCH   9  11
ATOM     11  N2  <0> d           1.990   4.241   3.430  0.00  0.00    -0.399 N 
ATOM     12  H21 <0> d           2.033   5.207   3.355  0.00  0.00     0.156 HD
ATOM     13  H22 <0> d           2.718   3.755   3.849  0.00  0.00     0.156 HD
ENDBRANCH   9  11
ENDBRANCH   1   4
BRANCH   3  14
ATOM     14  C9  <0> d          -0.182   0.246   5.086  0.00  0.00     0.133 C 
BRANCH  14  15
ATOM     15  C10 <0> d          -1.598   0.469   5.623  0.00  0.00     0.029 C 
ATOM     16  C13 <0> d          -2.187  -0.852   6.155  0.00  0.00     0.173 C 
ATOM     17  O2  <0> d          -2.409  -0.679   7.568  0.00  0.00    -0.391 OA
ATOM     18  C12 <0> d          -2.609   0.732   7.794  0.00  0.00     0.168 C 
ATOM     19  C11 <0> d          -1.568   1.399   6.860  0.00  0.00     0.034 C 
ENDBRANCH  14  15
ENDBRANCH   3  14
BRANCH   3  20
ATOM     20  C14 <0> d          -0.172  -2.035   3.974  0.00  0.00     0.087 A 
ATOM     21  C16 <0> d          -1.255  -2.846   3.261  0.00  0.00     0.027 A 
ATOM     22  C15 <0> d           0.169  -2.814   2.702  0.00  0.00     0.027 A 
ENDBRANCH   3  20
TORSDOF 5
