REMARK  2 active torsions:
REMARK  status: ('A' for Active; 'I' for Inactive)
REMARK    1  A    between atoms: C6_7  and  N2_9 
REMARK       I    between atoms: N2_9  and  C7_10 
REMARK    2  A    between atoms: C7_10  and  C8_12 
ROOT
ATOM      1  N2  <0> d           1.764  -3.310   3.255  0.00  0.00    -0.305 N 
ATOM      2  C7  <0> d           2.651  -3.494   4.253  0.00  0.00     0.229 C 
ATOM      3  O1  <0> d           3.369  -2.581   4.603  0.00  0.00    -0.273 OA
ATOM      4  H20 <0> d           1.190  -4.040   2.976  0.00  0.00     0.171 HD
ENDROOT
BRANCH   1   5
ATOM      5  C6  <0> d           1.673  -2.074   2.625  0.00  0.00     0.173 A 
ATOM      6  N1  <0> d           0.877  -1.714   1.643  0.00  0.00    -0.228 NA
ATOM      7  C5  <0> d           0.898  -0.486   1.134  0.00  0.00     0.050 A 
ATOM      8  C4  <0> d           1.800   0.353   1.705  0.00  0.00     0.011 A 
ATOM      9  C13 <0> d           0.002  -0.004   0.002  0.00  0.00     0.060 C 
ATOM     10  C3  <0> d           2.065   1.779   1.360  0.00  0.00     0.048 C 
ATOM     11  S1  <0> d           2.557  -0.673   2.935  0.00  0.00    -0.055 SA
ATOM     12  C2  <0> d           1.412   2.072  -0.000  0.00  0.00     0.006 C 
ATOM     13  C1  <0> d          -0.019   1.526   0.010  0.00  0.00     0.006 C 
ENDBRANCH   1   5
BRANCH   2  14
ATOM     14  C8  <0> d           2.750  -4.834   4.936  0.00  0.00     0.104 C 
ATOM     15  C12 <0> d           3.822  -4.774   6.026  0.00  0.00     0.246 C 
ATOM     16  N3  <0> d           3.918  -6.077   6.695  0.00  0.00    -0.074 N 
ATOM     17  C11 <0> d           2.651  -6.387   7.368  0.00  0.00     0.232 C 
ATOM     18  H14 <0> d           4.662  -6.050   7.376  0.00  0.00     0.277 HD
ATOM     19  H19 <0> d           4.118  -6.791   6.010  0.00  0.00     0.277 HD
ATOM     20  C10 <0> d           1.534  -6.509   6.329  0.00  0.00     0.028 C 
ATOM     21  C9  <0> d           1.401  -5.184   5.572  0.00  0.00     0.017 C 
ENDBRANCH   2  14
TORSDOF 2
