REMARK  6 active torsions:
REMARK  status: ('A' for Active; 'I' for Inactive)
REMARK    1  A    between atoms: C2_2  and  C3_3 
REMARK    2  A    between atoms: C2_2  and  N5_18 
REMARK    3  A    between atoms: C3_3  and  N1_4 
REMARK    4  A    between atoms: N1_4  and  S1_5 
REMARK    5  A    between atoms: S1_5  and  C4_8 
REMARK    6  A    between atoms: C5_9  and  N4_17 
ROOT
ATOM      1  C4  <0> d           1.207  -1.825   4.422  0.00  0.00     0.202 A 
ATOM      2  C5  <0> d           1.654  -0.658   4.954  0.00  0.00     0.164 A 
ATOM      3  N2  <0> d           1.034  -0.460   6.123  0.00  0.00    -0.210 NA
ATOM      4  C6  <0> d           0.204  -1.469   6.353  0.00  0.00     0.137 A 
ATOM      5  N3  <0> d           0.286  -2.340   5.298  0.00  0.00    -0.292 N 
ATOM      6  C7  <0> d          -0.474  -3.472   5.274  0.00  0.00     0.100 A 
ATOM      7  C8  <0> d          -1.323  -3.752   6.287  0.00  0.00     0.018 A 
ATOM      8  C9  <0> d          -1.432  -2.877   7.380  0.00  0.00     0.005 A 
ATOM      9  C10 <0> d          -0.672  -1.749   7.419  0.00  0.00     0.051 A 
ENDROOT
BRANCH   1  10
ATOM     10  S1  <0> d           1.710  -2.539   2.891  0.00  0.00     0.279 S 
ATOM     11  O1  <0> d           1.450  -3.932   2.988  0.00  0.00    -0.199 OA
ATOM     12  O2  <0> d           3.004  -2.023   2.609  0.00  0.00    -0.199 OA
BRANCH  10  13
ATOM     13  N1  <0> d           0.699  -1.948   1.720  0.00  0.00    -0.312 N 
ATOM     14  H7  <0> d           0.101  -2.549   1.248  0.00  0.00     0.172 HD
BRANCH  13  15
ATOM     15  C3  <0> d           0.708  -0.519   1.397  0.00  0.00     0.165 C 
BRANCH  15  16
ATOM     16  C2  <0> d          -0.011  -0.293   0.065  0.00  0.00     0.201 C 
ATOM     17  C1  <0> d          -0.059   1.205  -0.240  0.00  0.00     0.042 C 
BRANCH  16  18
ATOM     18  N5  <0> d          -1.379  -0.820   0.152  0.00  0.00    -0.073 N 
ATOM     19  C11 <0> d          -2.140  -0.045   1.141  0.00  0.00     0.269 C 
ATOM     20  C12 <0> d          -2.030  -0.711  -1.161  0.00  0.00     0.269 C 
ATOM     21  H20 <0> d          -1.350  -1.788   0.433  0.00  0.00     0.279 HD
ENDBRANCH  16  18
ENDBRANCH  15  16
ENDBRANCH  13  15
ENDBRANCH  10  13
ENDBRANCH   1  10
BRANCH   2  22
ATOM     22  N4  <0> d           2.603   0.194   4.376  0.00  0.00    -0.381 N 
ATOM     23  H12 <0> d           3.001  -0.032   3.521  0.00  0.00     0.157 HD
ATOM     24  H13 <0> d           2.863   1.011   4.831  0.00  0.00     0.157 HD
ENDBRANCH   2  22
TORSDOF 6
