REMARK  7 active torsions:
REMARK  status: ('A' for Active; 'I' for Inactive)
REMARK    1  A    between atoms: C2_2  and  N1_3 
REMARK    2  A    between atoms: N1_3  and  C3_4 
REMARK    3  A    between atoms: N1_3  and  C6_9 
REMARK    4  A    between atoms: C3_4  and  C4_5 
REMARK    5  A    between atoms: C4_5  and  C5_6 
REMARK    6  A    between atoms: C6_9  and  C7_10 
REMARK       I    between atoms: C7_10  and  N3_12 
REMARK    7  A    between atoms: N3_12  and  C8_13 
ROOT
ATOM      1  C6  <0> d           0.329  -1.875  -1.427  0.00  0.00     0.337 C 
ENDROOT
BRANCH   1   2
ATOM      2  N1  <0> d           0.563  -0.435  -1.255  0.00  0.00    -0.063 N 
ATOM      3  H19 <0> d           0.095   0.072  -1.991  0.00  0.00     0.280 HD
BRANCH   2   4
ATOM      4  C2  <0> d           0.037  -0.006   0.048  0.00  0.00     0.231 C 
ATOM      5  C1  <0> d           0.146   1.516   0.165  0.00  0.00     0.034 C 
ENDBRANCH   2   4
BRANCH   2   6
ATOM      6  C3  <0> d           2.006  -0.164  -1.315  0.00  0.00     0.242 C 
BRANCH   6   7
ATOM      7  C4  <0> d           2.526  -0.476  -2.719  0.00  0.00     0.096 C 
BRANCH   7   8
ATOM      8  C5  <0> d           3.977  -0.080  -2.817  0.00  0.00     0.072 C 
ATOM      9  S1  <0> d           4.718   0.558  -1.552  0.00  0.00    -0.066 SA
ATOM     10  N2  <0> d           4.649  -0.264  -3.970  0.00  0.00    -0.393 N 
ATOM     11  H10 <0> d           4.199  -0.651  -4.738  0.00  0.00     0.156 HD
ATOM     12  H11 <0> d           5.583  -0.010  -4.033  0.00  0.00     0.156 HD
ENDBRANCH   7   8
ENDBRANCH   6   7
ENDBRANCH   2   6
ENDBRANCH   1   2
BRANCH   1  13
ATOM     13  C7  <0> d          -1.153  -2.139  -1.489  0.00  0.00     0.248 C 
ATOM     14  O1  <0> d          -1.938  -1.219  -1.399  0.00  0.00    -0.271 OA
ATOM     15  N3  <0> d          -1.608  -3.399  -1.645  0.00  0.00    -0.326 N 
ATOM     16  H14 <0> d          -0.986  -4.143  -1.641  0.00  0.00     0.169 HD
BRANCH  15  17
ATOM     17  C8  <0> d          -2.977  -3.633  -1.811  0.00  0.00     0.036 A 
ATOM     18  C13 <0> d          -3.556  -4.779  -1.284  0.00  0.00     0.048 A 
ATOM     19  C12 <0> d          -4.910  -5.004  -1.444  0.00  0.00     0.013 A 
ATOM     20  C11 <0> d          -5.686  -4.095  -2.141  0.00  0.00     0.019 A 
ATOM     21 Br1  <0> d          -5.702  -6.561  -0.719  0.00  0.00    -0.051 Br
ATOM     22  C10 <0> d          -5.111  -2.955  -2.672  0.00  0.00     0.004 A 
ATOM     23  C9  <0> d          -3.759  -2.721  -2.510  0.00  0.00     0.029 A 
ENDBRANCH  15  17
ENDBRANCH   1  13
TORSDOF 7
