REMARK  4 active torsions:
REMARK  status: ('A' for Active; 'I' for Inactive)
REMARK    1  A    between atoms: C2_2  and  C7_8 
REMARK       I    between atoms: C7_8  and  N2_10 
REMARK    2  A    between atoms: N2_10  and  C8_11 
REMARK    3  A    between atoms: N2_10  and  C10_15 
REMARK    4  A    between atoms: C8_11  and  C9_12 
ROOT
ATOM      1  C7  <0> d          -1.370  -0.342   0.128  0.00  0.00     0.234 C 
ATOM      2  O1  <0> d          -1.560  -1.011   1.122  0.00  0.00    -0.272 OA
ATOM      3  N2  <0> d          -2.305  -0.294  -0.841  0.00  0.00    -0.307 N 
ENDROOT
BRANCH   1   4
ATOM      4  C2  <0> d          -0.088   0.435  -0.023  0.00  0.00     0.061 C 
ATOM      5  C1  <0> d          -0.398   1.933  -0.051  0.00  0.00     0.027 C 
ATOM      6  C6  <0> d           0.838   0.127   1.156  0.00  0.00     0.251 C 
ATOM      7  N1  <0> d           1.140  -1.309   1.184  0.00  0.00    -0.074 N 
ATOM      8  C5  <0> d           1.868  -1.689  -0.033  0.00  0.00     0.232 C 
ATOM      9  H10 <0> d           0.278  -1.831   1.236  0.00  0.00     0.277 HD
ATOM     10  H20 <0> d           1.706  -1.517   1.992  0.00  0.00     0.277 HD
ATOM     11  C4  <0> d           0.982  -1.451  -1.258  0.00  0.00     0.029 C 
ATOM     12  C3  <0> d           0.605   0.032  -1.328  0.00  0.00     0.022 C 
ENDBRANCH   1   4
BRANCH   3  13
ATOM     13  C8  <0> d          -2.025   0.410  -2.095  0.00  0.00     0.245 C 
BRANCH  13  14
ATOM     14  C9  <0> d          -1.539  -0.574  -3.127  0.00  0.00     0.192 C 
ATOM     15  O2  <0> d          -1.435  -1.755  -2.841  0.00  0.00    -0.647 OA
ATOM     16  O3  <0> d          -1.248  -0.190  -4.247  0.00  0.00    -0.647 OA
ENDBRANCH  13  14
ENDBRANCH   3  13
BRANCH   3  17
ATOM     17  C10 <0> d          -3.543  -0.917  -0.650  0.00  0.00     0.037 A 
ATOM     18  C15 <0> d          -4.446  -1.008  -1.702  0.00  0.00     0.030 A 
ATOM     19  C14 <0> d          -5.665  -1.629  -1.511  0.00  0.00     0.002 A 
ATOM     20  C13 <0> d          -5.992  -2.149  -0.273  0.00  0.00     0.000 A 
ATOM     21  C12 <0> d          -5.097  -2.055   0.778  0.00  0.00     0.002 A 
ATOM     22  C11 <0> d          -3.874  -1.441   0.592  0.00  0.00     0.030 A 
ENDBRANCH   3  17
TORSDOF 4
