REMARK  6 active torsions:
REMARK  status: ('A' for Active; 'I' for Inactive)
REMARK    1  A    between atoms: O1_2  and  C2_3 
REMARK    2  A    between atoms: C9_11  and  N1_14 
REMARK    3  A    between atoms: C10_12  and  O3_13 
REMARK    4  A    between atoms: N2_17  and  C15_20 
REMARK    5  A    between atoms: C15_20  and  C16_21 
REMARK    6  A    between atoms: C16_21  and  O4_22 
ROOT
ATOM      1  C2  <0> d          -1.201  -0.638   0.010  0.00  0.00     0.102 A 
ATOM      2  C3  <0> d          -2.371   0.101   0.019  0.00  0.00     0.039 A 
ATOM      3  C4  <0> d          -3.594  -0.544   0.026  0.00  0.00     0.003 A 
ATOM      4  C5  <0> d          -3.647  -1.924   0.021  0.00  0.00     0.013 A 
ATOM      5  C6  <0> d          -2.480  -2.671   0.011  0.00  0.00     0.009 A 
ATOM      6  C7  <0> d          -1.254  -2.032   0.003  0.00  0.00     0.111 A 
ATOM      7  O2  <0> d          -0.084  -2.726  -0.000  0.00  0.00    -0.345 OA
ATOM      8  C8  <0> d          -0.126  -4.103  -0.375  0.00  0.00     0.214 C 
ATOM      9  C9  <0> d          -1.246  -4.787   0.420  0.00  0.00     0.280 C 
ATOM     10  C10 <0> d          -2.582  -4.175   0.002  0.00  0.00     0.189 C 
ENDROOT
BRANCH   9  11
ATOM     11  N1  <0> d          -1.246  -6.228   0.135  0.00  0.00     0.101 N 
ATOM     12  C14 <0> d           0.036  -6.840   0.511  0.00  0.00     0.303 C 
ATOM     13  C13 <0> d           0.024  -8.321   0.126  0.00  0.00     0.302 C 
ATOM     14  N2  <0> d          -1.095  -8.991   0.803  0.00  0.00     0.093 N 
ATOM     15  C12 <0> d          -2.377  -8.380   0.427  0.00  0.00     0.302 C 
ATOM     16  C11 <0> d          -2.365  -6.899   0.812  0.00  0.00     0.303 C 
BRANCH  14  17
ATOM     17  C15 <0> d          -1.096 -10.432   0.518  0.00  0.00     0.298 C 
BRANCH  17  18
ATOM     18  C16 <0> d           0.143 -11.077   1.145  0.00  0.00     0.194 C 
BRANCH  18  19
ATOM     19  O4  <0> d           0.066 -10.973   2.568  0.00  0.00    -0.399 OA
ATOM     20  H24 <0> d           0.820 -11.361   3.032  0.00  0.00     0.209 HD
ENDBRANCH  18  19
ENDBRANCH  17  18
ENDBRANCH  14  17
ENDBRANCH   9  11
BRANCH  10  21
ATOM     21  O3  <0> d          -2.902  -4.621  -1.318  0.00  0.00    -0.389 OA
ATOM     22  H11 <0> d          -3.739  -4.276  -1.657  0.00  0.00     0.210 HD
ENDBRANCH  10  21
BRANCH   1  23
ATOM     23  O1  <0> d           0.002  -0.004   0.002  0.00  0.00    -0.353 OA
ATOM     24  C1  <0> d          -0.017   1.425   0.010  0.00  0.00     0.210 C 
ENDBRANCH   1  23
TORSDOF 6
