REMARK  2 active torsions:
REMARK  status: ('A' for Active; 'I' for Inactive)
REMARK       I    between atoms: C2_2  and  N1_4 
REMARK    1  A    between atoms: N1_4  and  C3_5 
REMARK    2  A    between atoms: N3_9  and  C6_10 
ROOT
ATOM      1  C3  <0> d          -1.172  -2.086   0.272  0.00  0.00     0.141 A 
ATOM      2  C4  <0> d          -2.289  -2.888   0.214  0.00  0.00     0.027 A 
ATOM      3  C5  <0> d          -1.863  -4.201   0.103  0.00  0.00     0.077 A 
ATOM      4  N2  <0> d          -0.538  -4.209   0.093  0.00  0.00    -0.169 NA
ATOM      5  N3  <0> d          -0.084  -2.893   0.192  0.00  0.00    -0.217 N 
ATOM      6  C12 <0> d          -2.950  -5.271   0.022  0.00  0.00     0.170 C 
ATOM      7  S1  <0> d          -4.434  -4.344   0.592  0.00  0.00     0.025 S 
ATOM      8  O2  <0> d          -4.587  -4.512   1.995  0.00  0.00    -0.257 OA
ATOM      9  C13 <0> d          -3.798  -2.654   0.243  0.00  0.00     0.153 C 
ENDROOT
BRANCH   5  10
ATOM     10  C6  <0> d           1.255  -2.479   0.210  0.00  0.00     0.060 A 
ATOM     11  C11 <0> d           2.204  -3.225   0.894  0.00  0.00     0.031 A 
ATOM     12  C10 <0> d           3.524  -2.818   0.905  0.00  0.00     0.002 A 
ATOM     13  C9  <0> d           3.898  -1.662   0.244  0.00  0.00     0.000 A 
ATOM     14  C8  <0> d           2.953  -0.913  -0.433  0.00  0.00     0.002 A 
ATOM     15  C7  <0> d           1.633  -1.319  -0.453  0.00  0.00     0.031 A 
ENDBRANCH   5  10
BRANCH   1  16
ATOM     16  N1  <0> d          -1.160  -0.697   0.386  0.00  0.00    -0.311 N 
ATOM     17  C2  <0> d          -2.196   0.027  -0.082  0.00  0.00     0.219 C 
ATOM     18  C1  <0> d          -2.230   1.518   0.129  0.00  0.00     0.117 C 
ATOM     19  O1  <0> d          -3.102  -0.523  -0.673  0.00  0.00    -0.274 OA
ATOM     20  H4  <0> d          -0.406  -0.251   0.802  0.00  0.00     0.170 HD
ENDBRANCH   1  16
TORSDOF 2
