REMARK  4 active torsions:
REMARK  status: ('A' for Active; 'I' for Inactive)
REMARK    1  A    between atoms: C2_2  and  C3_3 
REMARK    2  A    between atoms: C2_2  and  N1_8 
REMARK       I    between atoms: N1_8  and  C7_9 
REMARK    3  A    between atoms: C7_9  and  C8_11 
REMARK    4  A    between atoms: C12_16  and  O3_22 
ROOT
ATOM      1  C8  <0> d           0.716  -0.976  -3.593  0.00  0.00     0.098 A 
ATOM      2  C9  <0> d           0.051  -1.009  -4.801  0.00  0.00     0.109 A 
ATOM      3  N2  <0> d           0.665  -1.339  -5.945  0.00  0.00    -0.364 N 
ATOM      4  C10 <0> d           2.002  -1.671  -6.006  0.00  0.00     0.049 A 
ATOM      5  C11 <0> d           2.592  -2.007  -7.219  0.00  0.00     0.067 A 
ATOM      6  C12 <0> d           3.935  -2.338  -7.262  0.00  0.00     0.070 A 
ATOM      7  C13 <0> d           4.703  -2.338  -6.100  0.00  0.00     0.038 A 
ATOM      8  C14 <0> d           4.139  -2.011  -4.900  0.00  0.00     0.020 A 
ATOM      9  C15 <0> d           2.786  -1.674  -4.838  0.00  0.00     0.042 A 
ATOM     10  C16 <0> d           2.150  -1.310  -3.560  0.00  0.00     0.201 A 
ATOM     11  O2  <0> d           2.782  -1.291  -2.519  0.00  0.00    -0.286 OA
ATOM     12  H16 <0> d           0.147  -1.345  -6.765  0.00  0.00     0.165 HD
ENDROOT
BRANCH   1  13
ATOM     13  C7  <0> d           0.006  -0.608  -2.358  0.00  0.00     0.257 C 
ATOM     14  N1  <0> d           0.688  -0.470  -1.204  0.00  0.00    -0.348 N 
ATOM     15  H8  <0> d           1.634  -0.685  -1.171  0.00  0.00     0.163 HD
ATOM     16  O1  <0> d          -1.197  -0.429  -2.379  0.00  0.00    -0.267 OA
BRANCH  14  17
ATOM     17  C2  <0> d           0.002   0.006  -0.001  0.00  0.00     0.120 C 
ATOM     18  C1  <0> d          -0.023   1.535   0.002  0.00  0.00     0.038 C 
BRANCH  17  19
ATOM     19  C3  <0> d           0.734  -0.486   1.222  0.00  0.00     0.005 A 
ATOM     20  S1  <0> d           2.492  -0.606   1.508  0.00  0.00    -0.104 SA
ATOM     21  C6  <0> d           2.433  -1.269   3.164  0.00  0.00     0.050 A 
ATOM     22  C5  <0> d           1.099  -1.359   3.383  0.00  0.00     0.008 A 
ATOM     23  C4  <0> d           0.228  -0.959   2.387  0.00  0.00     0.017 A 
ENDBRANCH  17  19
ENDBRANCH  14  17
ENDBRANCH   1  13
BRANCH   6  24
ATOM     24  O3  <0> d           4.509  -2.666  -8.448  0.00  0.00    -0.356 OA
ATOM     25  C17 <0> d           5.899  -2.998  -8.426  0.00  0.00     0.210 C 
ENDBRANCH   6  24
TORSDOF 4
