REMARK  4 active torsions:
REMARK  status: ('A' for Active; 'I' for Inactive)
REMARK    1  A    between atoms: C2_2  and  C3_3 
REMARK    2  A    between atoms: C3_3  and  C8_11 
REMARK    3  A    between atoms: C11_14  and  N2_17 
REMARK       I    between atoms: N2_17  and  C14_18 
REMARK    4  A    between atoms: C14_18  and  C15_20 
ROOT
ATOM      1  C8  <0> d           0.137  -0.109  -2.475  0.00  0.00    -0.040 A 
ATOM      2  C9  <0> d          -0.318  -1.016  -3.415  0.00  0.00     0.011 A 
ATOM      3  C10 <0> d          -0.883  -0.569  -4.593  0.00  0.00     0.030 A 
ATOM      4  C11 <0> d          -0.995   0.795  -4.833  0.00  0.00     0.035 A 
ATOM      5  C12 <0> d          -0.537   1.704  -3.888  0.00  0.00     0.030 A 
ATOM      6  C13 <0> d           0.022   1.249  -2.710  0.00  0.00     0.011 A 
ENDROOT
BRANCH   4   7
ATOM      7  N2  <0> d          -1.566   1.251  -6.025  0.00  0.00    -0.322 N 
ATOM      8  C14 <0> d          -1.122   2.390  -6.592  0.00  0.00     0.275 C 
ATOM      9  O3  <0> d          -0.164   2.971  -6.120  0.00  0.00    -0.266 OA
ATOM     10  H15 <0> d          -2.282   0.748  -6.443  0.00  0.00     0.169 HD
BRANCH   8  11
ATOM     11  C15 <0> d          -1.800   2.934  -7.789  0.00  0.00     0.135 A 
ATOM     12  N3  <0> d          -2.903   2.364  -8.243  0.00  0.00    -0.255 NA
ATOM     13  C23 <0> d          -3.551   2.811  -9.303  0.00  0.00     0.118 A 
ATOM     14  C22 <0> d          -3.117   3.894 -10.016  0.00  0.00     0.031 A 
ATOM     15  C21 <0> d          -1.947   4.553  -9.601  0.00  0.00    -0.022 A 
ATOM     16  C16 <0> d          -1.268   4.061  -8.456  0.00  0.00     0.009 A 
ATOM     17  C20 <0> d          -1.438   5.671 -10.279  0.00  0.00     0.012 A 
ATOM     18  C17 <0> d          -0.099   4.700  -8.022  0.00  0.00     0.015 A 
ATOM     19  C18 <0> d           0.368   5.783  -8.705  0.00  0.00     0.001 A 
ATOM     20  C19 <0> d          -0.299   6.267  -9.829  0.00  0.00     0.001 A 
ENDBRANCH   8  11
ENDBRANCH   4   7
BRANCH   1  21
ATOM     21  C3  <0> d           0.753  -0.601  -1.191  0.00  0.00     0.068 C 
ATOM     22  C7  <0> d           2.206  -0.207  -1.147  0.00  0.00     0.237 C 
ATOM     23  N1  <0> d           3.114  -0.963  -0.511  0.00  0.00    -0.297 N 
ATOM     24  O2  <0> d           2.562   0.814  -1.696  0.00  0.00    -0.272 OA
ATOM     25  C6  <0> d           2.793  -2.109   0.108  0.00  0.00     0.224 C 
ATOM     26  H10 <0> d           4.038  -0.669  -0.499  0.00  0.00     0.171 HD
ATOM     27  C5  <0> d           1.375  -2.613   0.135  0.00  0.00     0.105 C 
ATOM     28  O1  <0> d           3.663  -2.752   0.655  0.00  0.00    -0.273 OA
ATOM     29  C4  <0> d           0.644  -2.128  -1.122  0.00  0.00     0.033 C 
BRANCH  21  30
ATOM     30  C2  <0> d           0.018   0.018  -0.001  0.00  0.00     0.020 C 
ATOM     31  C1  <0> d          -1.466  -0.346  -0.072  0.00  0.00     0.006 C 
ENDBRANCH  21  30
ENDBRANCH   1  21
TORSDOF 4
