REMARK  4 active torsions:
REMARK  status: ('A' for Active; 'I' for Inactive)
REMARK    1  A    between atoms: C2_2  and  C3_3 
REMARK    2  A    between atoms: C2_2  and  N5_8 
REMARK    3  A    between atoms: N5_8  and  S1_9 
REMARK    4  A    between atoms: S1_9  and  C4_12 
ROOT
ATOM      1  S1  <0> d          -2.092  -0.923   1.446  0.00  0.00     0.262 S 
ATOM      2  O1  <0> d          -3.411  -1.347   1.131  0.00  0.00    -0.200 OA
ATOM      3  O2  <0> d          -1.170  -1.752   2.140  0.00  0.00    -0.200 OA
ENDROOT
BRANCH   1   4
ATOM      4  N5  <0> d          -1.372  -0.511   0.012  0.00  0.00    -0.303 N 
ATOM      5  H5  <0> d          -1.861  -0.606  -0.820  0.00  0.00     0.173 HD
BRANCH   4   6
ATOM      6  C2  <0> d           0.002  -0.004   0.002  0.00  0.00     0.164 C 
ATOM      7  C1  <0> d          -0.019   1.526   0.010  0.00  0.00     0.041 C 
BRANCH   6   8
ATOM      8  C3  <0> d           0.707  -0.490  -1.238  0.00  0.00     0.196 A 
ATOM      9  N1  <0> d           1.930  -0.996  -1.304  0.00  0.00    -0.109 NA
ATOM     10  N2  <0> d           2.164  -1.290  -2.538  0.00  0.00    -0.021 NA
ATOM     11  N3  <0> d           1.131  -0.987  -3.244  0.00  0.00    -0.021 NA
ATOM     12  N4  <0> d           0.222  -0.499  -2.471  0.00  0.00    -0.109 NA
ENDBRANCH   6   8
ENDBRANCH   4   6
ENDBRANCH   1   4
BRANCH   1  13
ATOM     13  C4  <0> d          -2.251   0.555   2.392  0.00  0.00     0.122 A 
ATOM     14  C9  <0> d          -3.392   1.330   2.278  0.00  0.00     0.060 A 
ATOM     15  C8  <0> d          -3.518   2.488   3.025  0.00  0.00     0.044 A 
ATOM     16 Cl1  <0> d          -4.666   0.847   1.203  0.00  0.00    -0.083 Cl
ATOM     17  C7  <0> d          -2.501   2.876   3.877  0.00  0.00     0.014 A 
ATOM     18  C6  <0> d          -1.358   2.104   3.987  0.00  0.00     0.044 A 
ATOM     19 Br1  <0> d          -2.671   4.462   4.893  0.00  0.00    -0.051 Br
ATOM     20  C5  <0> d          -1.234   0.944   3.245  0.00  0.00     0.060 A 
ATOM     21 Cl2  <0> d           0.200  -0.026   3.383  0.00  0.00    -0.083 Cl
ENDBRANCH   1  13
TORSDOF 4
