REMARK  6 active torsions:
REMARK  status: ('A' for Active; 'I' for Inactive)
REMARK       I    between atoms: C2_2  and  N1_4 
REMARK    1  A    between atoms: N1_4  and  C3_5 
REMARK    2  A    between atoms: C3_5  and  C4_6 
REMARK    3  A    between atoms: C4_6  and  C5_7 
REMARK    4  A    between atoms: C5_7  and  C6_8 
REMARK    5  A    between atoms: C6_8  and  N2_9 
REMARK       I    between atoms: N2_9  and  C7_10 
REMARK    6  A    between atoms: C7_10  and  C8_12 
ROOT
ATOM      1  C8  <0> d          -5.108  -8.369  -0.105  0.00  0.00     0.100 A 
ATOM      2  C9  <0> d          -6.293  -9.077  -0.202  0.00  0.00     0.036 A 
ATOM      3  C10 <0> d          -6.245 -10.486  -0.316  0.00  0.00    -0.008 A 
ATOM      4  C11 <0> d          -7.433 -11.228  -0.417  0.00  0.00     0.017 A 
ATOM      5  C12 <0> d          -7.379 -12.586  -0.527  0.00  0.00     0.043 A 
ATOM      6  C13 <0> d          -6.153 -13.246  -0.540  0.00  0.00     0.118 A 
ATOM      7  C14 <0> d          -4.973 -12.537  -0.442  0.00  0.00     0.072 A 
ATOM      8  C15 <0> d          -5.003 -11.151  -0.330  0.00  0.00     0.048 A 
ATOM      9  N3  <0> d          -3.826 -10.440  -0.233  0.00  0.00    -0.322 N 
ATOM     10  H1  <0> d          -2.979 -10.913  -0.244  0.00  0.00     0.169 HD
ATOM     11  C16 <0> d          -3.835  -9.098  -0.129  0.00  0.00     0.261 A 
ATOM     12  O3  <0> d          -2.784  -8.487  -0.049  0.00  0.00    -0.267 OA
ATOM     13  F1  <0> d          -6.119 -14.592  -0.648  0.00  0.00    -0.206 F 
ENDROOT
BRANCH   1  14
ATOM     14  C7  <0> d          -5.124  -6.902   0.014  0.00  0.00     0.257 C 
ATOM     15  N2  <0> d          -3.967  -6.211  -0.008  0.00  0.00    -0.357 N 
ATOM     16  H14 <0> d          -3.120  -6.684  -0.028  0.00  0.00     0.162 HD
ATOM     17  O2  <0> d          -6.182  -6.313   0.133  0.00  0.00    -0.267 OA
BRANCH  15  18
ATOM     18  C6  <0> d          -3.988  -4.746  -0.003  0.00  0.00     0.123 C 
BRANCH  18  19
ATOM     19  C5  <0> d          -2.554  -4.215  -0.032  0.00  0.00     0.021 C 
BRANCH  19  20
ATOM     20  C4  <0> d          -2.576  -2.686  -0.026  0.00  0.00     0.021 C 
BRANCH  20  21
ATOM     21  C3  <0> d          -1.141  -2.155  -0.055  0.00  0.00     0.122 C 
BRANCH  21  22
ATOM     22  N1  <0> d          -1.163  -0.690  -0.050  0.00  0.00    -0.361 N 
ATOM     23  C2  <0> d          -0.006   0.001  -0.072  0.00  0.00     0.213 C 
ATOM     24  C1  <0> d          -0.028   1.508  -0.066  0.00  0.00     0.117 C 
ATOM     25  O1  <0> d           1.053  -0.590  -0.096  0.00  0.00    -0.274 OA
ATOM     26  H5  <0> d          -2.010  -0.217  -0.030  0.00  0.00     0.162 HD
ENDBRANCH  21  22
ENDBRANCH  20  21
ENDBRANCH  19  20
ENDBRANCH  18  19
ENDBRANCH  15  18
ENDBRANCH   1  14
TORSDOF 6
