REMARK  6 active torsions:
REMARK  status: ('A' for Active; 'I' for Inactive)
REMARK    1  A    between atoms: C2_2  and  O1_3 
REMARK    2  A    between atoms: O1_3  and  C3_4 
REMARK    3  A    between atoms: C7_8  and  C9_11 
REMARK    4  A    between atoms: C8_9  and  O2_10 
REMARK    5  A    between atoms: N1_12  and  C10_13 
REMARK    6  A    between atoms: C15_18  and  O3_19 
ROOT
ATOM      1  C3  <0> d          -1.533  -1.837  -0.315  0.00  0.00     0.102 A 
ATOM      2  C4  <0> d          -0.451  -2.654  -0.601  0.00  0.00     0.041 A 
ATOM      3  C5  <0> d          -0.611  -4.028  -0.669  0.00  0.00     0.023 A 
ATOM      4  C6  <0> d          -1.848  -4.597  -0.453  0.00  0.00     0.025 A 
ATOM      5  C7  <0> d          -2.951  -3.784  -0.163  0.00  0.00     0.035 A 
ATOM      6  C8  <0> d          -2.786  -2.394  -0.089  0.00  0.00     0.112 A 
ATOM      7 Br1  <0> d          -2.056  -6.474  -0.548  0.00  0.00    -0.050 Br
ENDROOT
BRANCH   5   8
ATOM      8  C9  <0> d          -4.272  -4.385   0.068  0.00  0.00     0.133 C 
ATOM      9  N1  <0> d          -4.420  -5.679   0.003  0.00  0.00    -0.257 NA
BRANCH   9  10
ATOM     10  C10 <0> d          -5.668  -6.231   0.110  0.00  0.00     0.091 A 
ATOM     11  C15 <0> d          -5.887  -7.315   0.970  0.00  0.00     0.094 A 
ATOM     12  C14 <0> d          -7.154  -7.863   1.076  0.00  0.00     0.040 A 
ATOM     13  C13 <0> d          -8.196  -7.351   0.325  0.00  0.00     0.026 A 
ATOM     14  C12 <0> d          -7.983  -6.283  -0.531  0.00  0.00     0.036 A 
ATOM     15  C11 <0> d          -6.727  -5.721  -0.643  0.00  0.00     0.058 A 
ATOM     16 Cl1  <0> d          -9.301  -5.649  -1.467  0.00  0.00    -0.084 Cl
BRANCH  11  17
ATOM     17  O3  <0> d          -4.861  -7.822   1.703  0.00  0.00    -0.358 OA
ATOM     18  H13 <0> d          -4.756  -7.409   2.571  0.00  0.00     0.217 HD
ENDBRANCH  11  17
ENDBRANCH   9  10
ENDBRANCH   5   8
BRANCH   6  19
ATOM     19  O2  <0> d          -3.847  -1.595   0.196  0.00  0.00    -0.357 OA
ATOM     20  H8  <0> d          -4.338  -1.300  -0.583  0.00  0.00     0.217 HD
ENDBRANCH   6  19
BRANCH   1  21
ATOM     21  O1  <0> d          -1.367  -0.488  -0.250  0.00  0.00    -0.349 OA
BRANCH  21  22
ATOM     22  C2  <0> d          -0.052   0.016  -0.492  0.00  0.00     0.171 C 
ATOM     23  C1  <0> d          -0.061   1.542  -0.377  0.00  0.00     0.034 C 
ENDBRANCH  21  22
ENDBRANCH   1  21
TORSDOF 6
