REMARK  2 active torsions:
REMARK  status: ('A' for Active; 'I' for Inactive)
REMARK    1  A    between atoms: C4_4  and  O5_20 
REMARK    2  A    between atoms: C12_13  and  O2_14 
ROOT
ATOM      1  C1  <0> d           0.418   3.535  -1.263  0.00  0.00     0.018 C 
ATOM      2  C2  <0> d           1.142   3.084   0.008  0.00  0.00    -0.009 C 
ATOM      3  C3  <0> d           0.336   3.519   1.232  0.00  0.00     0.044 C 
ATOM      4  C4  <0> d           0.764   4.906   1.690  0.00  0.00     0.130 C 
ATOM      5  C5  <0> d           1.143   5.775   0.492  0.00  0.00     0.083 C 
ATOM      6  C6  <0> d           2.421   5.226  -0.165  0.00  0.00     0.148 C 
ATOM      7  C7  <0> d           2.532   3.720   0.054  0.00  0.00     0.033 C 
ATOM      8  C8  <0> d           3.384   3.130  -1.047  0.00  0.00     0.028 C 
ATOM      9  C9  <0> d           4.059   3.912  -1.864  0.00  0.00     0.197 C 
ATOM     10  O1  <0> d           4.820   3.370  -2.848  0.00  0.00    -0.232 OA
ATOM     11  C10 <0> d           3.447   1.627  -1.193  0.00  0.00     0.010 C 
ATOM     12  C11 <0> d           2.009   1.088  -1.239  0.00  0.00     0.033 C 
ATOM     13  C12 <0> d           1.264   1.560   0.010  0.00  0.00     0.127 C 
ATOM     14  O3  <0> d           3.525   5.919   0.480  0.00  0.00    -0.311 OA
ATOM     15  C13 <0> d           3.072   7.061   1.050  0.00  0.00     0.289 C 
ATOM     16  O4  <0> d           3.789   7.919   1.525  0.00  0.00    -0.260 OA
ATOM     17  C14 <0> d           1.603   7.133   1.008  0.00  0.00     0.017 C 
ATOM     18  C15 <0> d           0.837   8.167   1.348  0.00  0.00     0.025 C 
ENDROOT
BRANCH   4  19
ATOM     19  O5  <0> d          -0.312   5.524   2.398  0.00  0.00    -0.395 OA
ATOM     20  H20 <0> d          -0.608   5.028   3.174  0.00  0.00     0.210 HD
ENDBRANCH   4  19
BRANCH  13  21
ATOM     21  O2  <0> d          -0.041   0.980   0.030  0.00  0.00    -0.395 OA
ATOM     22  H17 <0> d          -0.042   0.013   0.033  0.00  0.00     0.210 HD
ENDBRANCH  13  21
TORSDOF 2
