REMARK  7 active torsions:
REMARK  status: ('A' for Active; 'I' for Inactive)
REMARK    1  A    between atoms: C6_6  and  C15_18 
REMARK    2  A    between atoms: N1_8  and  C8_9 
REMARK    3  A    between atoms: C12_13  and  O1_15 
REMARK       I    between atoms: C15_18  and  N2_20 
REMARK    4  A    between atoms: N2_20  and  C16_21 
REMARK    5  A    between atoms: C20_25  and  C22_27 
REMARK    6  A    between atoms: C23_31  and  C25_34 
REMARK    7  A    between atoms: C25_34  and  O4_35 
ROOT
ATOM      1  C1  <0> d          -2.954   5.630   1.163  0.00  0.00     0.073 C 
ATOM      2  C2  <0> d          -4.206   4.886   1.549  0.00  0.00     0.065 A 
ATOM      3  C3  <0> d          -4.443   3.619   1.034  0.00  0.00     0.113 A 
ATOM      4  C4  <0> d          -5.619   2.943   1.411  0.00  0.00     0.011 A 
ATOM      5  C5  <0> d          -5.885   1.604   0.882  0.00  0.00     0.036 C 
ATOM      6  C6  <0> d          -4.847   0.957   0.249  0.00  0.00     0.084 C 
ATOM      7  C7  <0> d          -3.557   1.671   0.163  0.00  0.00     0.164 C 
ATOM      8  N1  <0> d          -2.424   1.011   0.071  0.00  0.00    -0.336 N 
ATOM      9  O2  <0> d          -3.573   3.029   0.186  0.00  0.00    -0.290 OA
ATOM     10  C23 <0> d          -6.505   3.579   2.289  0.00  0.00    -0.004 A 
ATOM     11  C24 <0> d          -6.185   4.840   2.748  0.00  0.00     0.127 A 
ATOM     12  N3  <0> d          -5.071   5.442   2.373  0.00  0.00    -0.262 NA
ATOM     13  H21 <0> d          -2.432  -0.085  -0.025  0.00  0.00     0.168 HD
ENDROOT
BRANCH   6  14
ATOM     14  C15 <0> d          -5.016  -0.393  -0.319  0.00  0.00     0.260 C 
ATOM     15  O3  <0> d          -6.089  -0.958  -0.234  0.00  0.00    -0.267 OA
ATOM     16  N2  <0> d          -3.981  -1.000  -0.934  0.00  0.00    -0.323 N 
ATOM     17  H12 <0> d          -3.041  -0.454  -1.096  0.00  0.00     0.169 HD
BRANCH  16  18
ATOM     18  C16 <0> d          -4.104  -2.324  -1.365  0.00  0.00     0.035 A 
ATOM     19  C21 <0> d          -3.328  -2.787  -2.420  0.00  0.00     0.045 A 
ATOM     20  C20 <0> d          -3.451  -4.096  -2.843  0.00  0.00     0.050 A 
ATOM     21  C19 <0> d          -4.346  -4.946  -2.217  0.00  0.00     0.016 A 
ATOM     22  C18 <0> d          -5.120  -4.487  -1.167  0.00  0.00     0.003 A 
ATOM     23  C17 <0> d          -4.998  -3.181  -0.736  0.00  0.00     0.029 A 
BRANCH  20  24
ATOM     24  C22 <0> d          -2.610  -4.600  -3.987  0.00  0.00     0.417 C 
ATOM     25  F1  <0> d          -1.410  -5.119  -3.490  0.00  0.00    -0.166 F 
ATOM     26  F2  <0> d          -3.305  -5.603  -4.671  0.00  0.00    -0.166 F 
ATOM     27  F3  <0> d          -2.334  -3.544  -4.863  0.00  0.00    -0.166 F 
ENDBRANCH  20  24
ENDBRANCH  16  18
ENDBRANCH   6  14
BRANCH   8  28
ATOM     28  C8  <0> d          -1.235   1.686   0.096  0.00  0.00     0.036 A 
ATOM     29  C13 <0> d          -0.609   2.047  -1.099  0.00  0.00     0.066 A 
ATOM     30  C12 <0> d           0.592   2.735  -1.066  0.00  0.00     0.070 A 
ATOM     31  C11 <0> d           1.173   3.060   0.152  0.00  0.00     0.037 A 
ATOM     32  C10 <0> d           0.557   2.699   1.337  0.00  0.00     0.005 A 
ATOM     33  C9  <0> d          -0.639   2.013   1.317  0.00  0.00     0.029 A 
BRANCH  30  34
ATOM     34  O1  <0> d           1.201   3.093  -2.227  0.00  0.00    -0.356 OA
ATOM     35  C14 <0> d           2.438   3.801  -2.118  0.00  0.00     0.210 C 
ENDBRANCH  30  34
ENDBRANCH   8  28
BRANCH  10  36
ATOM     36  C25 <0> d          -7.779   2.901   2.723  0.00  0.00     0.205 C 
BRANCH  36  37
ATOM     37  O4  <0> d          -8.496   3.759   3.613  0.00  0.00    -0.396 OA
ATOM     38  H20 <0> d          -9.457   3.433   4.036  0.00  0.00     0.209 HD
ENDBRANCH  36  37
ENDBRANCH  10  36
TORSDOF 7
