REMARK  3 active torsions:
REMARK  status: ('A' for Active; 'I' for Inactive)
REMARK    1  A    between atoms: C4_5  and  N2_8 
REMARK       I    between atoms: N2_8  and  C7_9 
REMARK       I    between atoms: C7_9  and  N3_11 
REMARK    2  A    between atoms: N3_11  and  C8_12 
REMARK    3  A    between atoms: N4_15  and  C13_18 
ROOT
ATOM      1  N2  <0> d           1.228  -4.036  -0.035  0.00  0.00    -0.338 N 
ATOM      2  C7  <0> d           2.142  -4.783   0.615  0.00  0.00     0.316 C 
ATOM      3  O1  <0> d           3.057  -4.244   1.208  0.00  0.00    -0.247 OA
ATOM      4  N3  <0> d           2.043  -6.127   0.610  0.00  0.00    -0.338 N 
ATOM      5  H13 <0> d           0.498  -4.467  -0.508  0.00  0.00     0.164 HD
ATOM      6  H14 <0> d           1.313  -6.557   0.137  0.00  0.00     0.164 HD
ENDROOT
BRANCH   1   7
ATOM      7  C4  <0> d           1.336  -2.575  -0.029  0.00  0.00     0.089 C 
ATOM      8  C3  <0> d           0.634  -2.005  -1.264  0.00  0.00     0.053 C 
ATOM      9  C2  <0> d           0.681  -0.476  -1.210  0.00  0.00     0.236 C 
ATOM     10  N1  <0> d           0.002  -0.004   0.002  0.00  0.00    -0.075 N 
ATOM     11  C1  <0> d          -0.018   1.465   0.010  0.00  0.00     0.269 C 
ATOM     12  C6  <0> d           0.712  -0.489   1.192  0.00  0.00     0.236 C 
ATOM     13  H30 <0> d          -0.945  -0.352   0.012  0.00  0.00     0.279 HD
ATOM     14  C5  <0> d           0.666  -2.018   1.230  0.00  0.00     0.053 C 
ENDBRANCH   1   7
BRANCH   4  15
ATOM     15  C8  <0> d           3.037  -6.938   1.317  0.00  0.00     0.089 C 
ATOM     16  C12 <0> d           2.419  -8.287   1.698  0.00  0.00     0.053 C 
ATOM     17  C11 <0> d           3.485  -9.159   2.365  0.00  0.00     0.237 C 
ATOM     18  N4  <0> d           4.599  -9.375   1.434  0.00  0.00    -0.067 N 
ATOM     19  C10 <0> d           5.241  -8.093   1.120  0.00  0.00     0.237 C 
ATOM     20  H29 <0> d           4.250  -9.792   0.584  0.00  0.00     0.280 HD
ATOM     21  C9  <0> d           4.243  -7.179   0.405  0.00  0.00     0.053 C 
BRANCH  18  22
ATOM     22  C13 <0> d           5.583 -10.275   2.050  0.00  0.00     0.188 A 
ATOM     23  C15 <0> d           5.106 -11.672   2.453  0.00  0.00     0.035 A 
ATOM     24  C14 <0> d           6.024 -11.498   1.242  0.00  0.00     0.035 A 
ENDBRANCH  18  22
ENDBRANCH   4  15
TORSDOF 3
