REMARK  2 active torsions:
REMARK  status: ('A' for Active; 'I' for Inactive)
REMARK    1  A    between atoms: C7_7  and  C8_8 
REMARK       I    between atoms: C8_8  and  N1_10 
REMARK    2  A    between atoms: N1_10  and  C9_11 
ROOT
ATOM      1  C8  <0> d           0.242   0.021   2.481  0.00  0.00     0.258 C 
ATOM      2  O1  <0> d           0.135   1.232   2.502  0.00  0.00    -0.267 OA
ATOM      3  N1  <0> d           0.465  -0.656   3.624  0.00  0.00    -0.301 N 
ATOM      4  H8  <0> d           0.550  -1.623   3.607  0.00  0.00     0.171 HD
ENDROOT
BRANCH   3   5
ATOM      5  C9  <0> d           0.572   0.029   4.828  0.00  0.00     0.174 A 
ATOM      6  S1  <0> d           0.846  -0.596   6.367  0.00  0.00    -0.053 SA
ATOM      7  C11 <0> d           0.834   0.942   7.253  0.00  0.00     0.040 A 
ATOM      8  C10 <0> d           0.604   1.844   6.266  0.00  0.00     0.080 A 
ATOM      9  C12 <0> d           0.961   1.629   8.575  0.00  0.00     0.318 C 
ATOM     10  N2  <0> d           0.479   1.319   5.043  0.00  0.00    -0.226 NA
ATOM     11  C13 <0> d           0.560   3.217   6.929  0.00  0.00     0.330 C 
ATOM     12  N3  <0> d           1.203   3.055   8.251  0.00  0.00     0.093 N 
ATOM     13  H13 <0> d           0.776   3.659   8.937  0.00  0.00     0.316 HD
ENDBRANCH   3   5
BRANCH   1  14
ATOM     14  C7  <0> d           0.128  -0.708   1.200  0.00  0.00     0.038 A 
ATOM     15  C2  <0> d          -0.235  -0.028   0.036  0.00  0.00    -0.046 A 
ATOM     16  C1  <0> d          -0.512   1.452   0.082  0.00  0.00     0.049 C 
ATOM     17  C3  <0> d          -0.334  -0.714  -1.157  0.00  0.00     0.007 A 
ATOM     18  C4  <0> d          -0.080  -2.073  -1.200  0.00  0.00     0.001 A 
ATOM     19  C5  <0> d           0.275  -2.754  -0.049  0.00  0.00     0.001 A 
ATOM     20  C6  <0> d           0.378  -2.081   1.150  0.00  0.00     0.017 A 
ENDBRANCH   1  14
TORSDOF 2
