REMARK  4 active torsions:
REMARK  status: ('A' for Active; 'I' for Inactive)
REMARK    1  A    between atoms: C7_7  and  N1_8 
REMARK    2  A    between atoms: C8_9  and  N4_22 
REMARK    3  A    between atoms: C10_11  and  C11_13 
REMARK    4  A    between atoms: C11_13  and  N3_14 
ROOT
ATOM      1  N1  <0> d           0.025  -0.013   2.419  0.00  0.00    -0.240 N 
ATOM      2  C8  <0> d          -0.980   0.769   2.899  0.00  0.00     0.123 A 
ATOM      3  C9  <0> d          -0.579   1.253   4.107  0.00  0.00     0.078 A 
ATOM      4  C10 <0> d           0.700   0.752   4.366  0.00  0.00     0.056 A 
ATOM      5  N2  <0> d           1.060  -0.008   3.363  0.00  0.00    -0.294 N 
ATOM      6  H27 <0> d           1.901  -0.485   3.286  0.00  0.00     0.187 HD
ENDROOT
BRANCH   4   7
ATOM      7  C11 <0> d           1.524   1.034   5.596  0.00  0.00     0.293 C 
BRANCH   7   8
ATOM      8  N3  <0> d           1.325  -0.041   6.577  0.00  0.00    -0.065 N 
ATOM      9  C16 <0> d           2.216   0.172   7.723  0.00  0.00     0.239 C 
ATOM     10  C15 <0> d           2.071  -0.989   8.709  0.00  0.00     0.008 C 
ATOM     11  C14 <0> d           0.621  -1.060   9.195  0.00  0.00     0.011 C 
ATOM     12  C17 <0> d           2.442  -2.300   8.015  0.00  0.00     0.011 C 
ATOM     13  C13 <0> d          -0.306  -1.208   7.985  0.00  0.00     0.008 C 
ATOM     14  C12 <0> d          -0.073  -0.039   7.026  0.00  0.00     0.239 C 
ATOM     15  C18 <0> d          -1.763  -1.202   8.453  0.00  0.00     0.011 C 
ATOM     16  H28 <0> d           1.536  -0.929   6.147  0.00  0.00     0.280 HD
ENDBRANCH   7   8
ENDBRANCH   4   7
BRANCH   2  17
ATOM     17  N4  <0> d          -2.194   1.027   2.270  0.00  0.00    -0.384 N 
ATOM     18  H25 <0> d          -2.386   0.633   1.405  0.00  0.00     0.157 HD
ATOM     19  H26 <0> d          -2.849   1.602   2.697  0.00  0.00     0.157 HD
ENDBRANCH   2  17
BRANCH   1  20
ATOM     20  C7  <0> d           0.023  -0.705   1.200  0.00  0.00     0.064 A 
ATOM     21  C2  <0> d           0.002  -0.004   0.002  0.00  0.00    -0.033 A 
ATOM     22  C1  <0> d          -0.018   1.503   0.010  0.00  0.00     0.050 C 
ATOM     23  C3  <0> d           0.006  -0.689  -1.198  0.00  0.00     0.009 A 
ATOM     24  C4  <0> d           0.024  -2.071  -1.206  0.00  0.00     0.001 A 
ATOM     25  C5  <0> d           0.040  -2.773  -0.014  0.00  0.00     0.002 A 
ATOM     26  C6  <0> d           0.036  -2.094   1.188  0.00  0.00     0.032 A 
ENDBRANCH   1  20
TORSDOF 4
