REMARK  4 active torsions:
REMARK  status: ('A' for Active; 'I' for Inactive)
REMARK    1  A    between atoms: C5_5  and  C13_16 
REMARK    2  A    between atoms: C6_6  and  N2_8 
REMARK    3  A    between atoms: N2_8  and  C7_9 
REMARK    4  A    between atoms: C7_9  and  C8_10 
ROOT
ATOM      1  C1  <0> d          -0.012   1.503   0.003  0.00  0.00     0.070 C 
ATOM      2  C2  <0> d           0.005  -0.004  -0.002  0.00  0.00     0.033 A 
ATOM      3  C3  <0> d           0.004  -0.679  -1.209  0.00  0.00     0.028 A 
ATOM      4  C4  <0> d           0.020  -2.063  -1.216  0.00  0.00     0.020 A 
ATOM      5  C5  <0> d           0.036  -2.734   0.013  0.00  0.00     0.047 A 
ATOM      6  C6  <0> d           0.036  -1.977   1.197  0.00  0.00     0.137 A 
ATOM      7  N1  <0> d           0.026  -0.654   1.146  0.00  0.00    -0.236 NA
ENDROOT
BRANCH   6   8
ATOM      8  N2  <0> d           0.051  -2.618   2.423  0.00  0.00    -0.374 N 
ATOM      9  H7  <0> d           0.138  -3.583   2.465  0.00  0.00     0.161 HD
BRANCH   8  10
ATOM     10  C7  <0> d          -0.062  -1.838   3.658  0.00  0.00     0.128 C 
BRANCH  10  11
ATOM     11  C8  <0> d          -0.019  -2.782   4.862  0.00  0.00     0.027 C 
ATOM     12  C12 <0> d          -1.251  -3.690   4.846  0.00  0.00     0.173 C 
ATOM     13  O1  <0> d          -1.238  -4.529   6.003  0.00  0.00    -0.391 OA
ATOM     14  C11 <0> d          -1.282  -3.817   7.241  0.00  0.00     0.167 C 
ATOM     15  C10 <0> d          -0.050  -2.915   7.353  0.00  0.00     0.027 C 
ATOM     16  C9  <0> d          -0.015  -1.961   6.156  0.00  0.00     0.010 C 
ENDBRANCH  10  11
ENDBRANCH   8  10
ENDBRANCH   6   8
BRANCH   5  17
ATOM     17  C13 <0> d           0.053  -4.205   0.063  0.00  0.00     0.108 C 
ATOM     18  S1  <0> d           1.539  -5.049  -0.046  0.00  0.00    -0.060 SA
ATOM     19  N3  <0> d          -1.102  -4.888   0.195  0.00  0.00    -0.389 N 
ATOM     20  H18 <0> d          -1.944  -4.410   0.257  0.00  0.00     0.157 HD
ATOM     21  H19 <0> d          -1.091  -5.858   0.228  0.00  0.00     0.157 HD
ENDBRANCH   5  17
TORSDOF 4
