REMARK  5 active torsions:
REMARK  status: ('A' for Active; 'I' for Inactive)
REMARK    1  A    between atoms: C3_3  and  C5_6 
REMARK    2  A    between atoms: C9_13  and  S2_16 
REMARK    3  A    between atoms: S2_16  and  C10_17 
REMARK    4  A    between atoms: C10_17  and  C11_18 
REMARK       I    between atoms: C11_18  and  N5_20 
REMARK    5  A    between atoms: N5_20  and  C12_21 
ROOT
ATOM      1  C5  <0> d           3.741   1.844  -0.052  0.00  0.00     0.113 C 
ATOM      2  C6  <0> d           4.346   1.758   1.374  0.00  0.00     0.057 C 
ATOM      3  C7  <0> d           5.496   0.760   1.212  0.00  0.00     0.175 C 
ATOM      4  C8  <0> d           6.727   1.055   2.015  0.00  0.00     0.280 C 
ATOM      5  O1  <0> d           6.670   1.624   3.079  0.00  0.00    -0.268 OA
ATOM      6  N1  <0> d           7.908   0.650   1.484  0.00  0.00    -0.112 NA
ATOM      7  N2  <0> d           8.018   0.157   0.360  0.00  0.00    -0.157 NA
ATOM      8  C9  <0> d           6.886  -0.022  -0.564  0.00  0.00     0.283 C 
ATOM      9  N3  <0> d           5.875   0.958  -0.220  0.00  0.00    -0.202 NA
ATOM     10  N4  <0> d           4.602   0.975  -0.908  0.00  0.00    -0.246 NA
ATOM     11  H9  <0> d           4.697   1.361  -1.836  0.00  0.00     0.141 HD
ENDROOT
BRANCH   8  12
ATOM     12  S2  <0> d           7.438   0.229  -2.274  0.00  0.00    -0.115 SA
BRANCH  12  13
ATOM     13  C10 <0> d           8.061   1.932  -2.288  0.00  0.00     0.180 C 
BRANCH  13  14
ATOM     14  C11 <0> d           8.557   2.274  -3.669  0.00  0.00     0.231 C 
ATOM     15  O2  <0> d           8.496   1.450  -4.557  0.00  0.00    -0.272 OA
ATOM     16  N5  <0> d           9.069   3.496  -3.918  0.00  0.00    -0.327 N 
ATOM     17  H12 <0> d           9.056   4.177  -3.228  0.00  0.00     0.169 HD
BRANCH  16  18
ATOM     18  C12 <0> d           9.618   3.782  -5.173  0.00  0.00     0.034 A 
ATOM     19  C17 <0> d           9.065   3.225  -6.318  0.00  0.00     0.031 A 
ATOM     20  C16 <0> d           9.606   3.513  -7.556  0.00  0.00     0.021 A 
ATOM     21  C15 <0> d          10.705   4.348  -7.655  0.00  0.00     0.011 A 
ATOM     22  C14 <0> d          11.261   4.900  -6.515  0.00  0.00     0.021 A 
ATOM     23 Br1  <0> d          11.447   4.734  -9.350  0.00  0.00    -0.051 Br
ATOM     24  C13 <0> d          10.721   4.620  -5.275  0.00  0.00     0.031 A 
ENDBRANCH  16  18
ENDBRANCH  13  14
ENDBRANCH  12  13
ENDBRANCH   8  12
BRANCH   1  25
ATOM     25  C3  <0> d           2.324   1.331  -0.049  0.00  0.00     0.001 A 
ATOM     26  C2  <0> d           1.163   2.030  -0.043  0.00  0.00     0.017 A 
ATOM     27  C1  <0> d          -0.035   1.340  -0.041  0.00  0.00     0.008 A 
ATOM     28  C4  <0> d          -0.013  -0.015  -0.044  0.00  0.00     0.050 A 
ATOM     29  S1  <0> d           1.739  -0.356  -0.051  0.00  0.00    -0.105 SA
ENDBRANCH   1  25
TORSDOF 5
