REMARK  2 active torsions:
REMARK  status: ('A' for Active; 'I' for Inactive)
REMARK    1  A    between atoms: C7_8  and  N2_10 
REMARK    2  A    between atoms: N2_10  and  C9_11 
ROOT
ATOM      1  C9  <0> d          -1.192  -5.087   0.945  0.00  0.00     0.048 A 
ATOM      2  C10 <0> d          -2.322  -4.690   1.645  0.00  0.00     0.062 A 
ATOM      3  C11 <0> d          -3.268  -5.632   2.017  0.00  0.00     0.065 A 
ATOM      4  C12 <0> d          -3.080  -6.976   1.686  0.00  0.00     0.064 A 
ATOM      5  C13 <0> d          -1.949  -7.367   0.986  0.00  0.00     0.053 A 
ATOM      6  C14 <0> d          -1.011  -6.425   0.612  0.00  0.00     0.039 A 
ATOM      7 Br1  <0> d           0.529  -6.957  -0.348  0.00  0.00    -0.049 Br
ATOM      8  N3  <0> d          -4.182  -7.671   2.187  0.00  0.00    -0.306 N 
ATOM      9  H3  <0> d          -4.333  -8.626   2.111  0.00  0.00     0.170 HD
ATOM     10  C15 <0> d          -4.999  -6.789   2.793  0.00  0.00     0.325 A 
ATOM     11  O1  <0> d          -6.052  -7.068   3.336  0.00  0.00    -0.247 OA
ATOM     12  N4  <0> d          -4.475  -5.552   2.708  0.00  0.00    -0.306 N 
ATOM     13  H4  <0> d          -4.871  -4.742   3.066  0.00  0.00     0.170 HD
ENDROOT
BRANCH   1  14
ATOM     14  N2  <0> d          -0.235  -4.137   0.568  0.00  0.00    -0.384 N 
ATOM     15  H17 <0> d           0.553  -4.413   0.075  0.00  0.00     0.160 HD
BRANCH  14  16
ATOM     16  C7  <0> d          -0.424  -2.727   0.918  0.00  0.00     0.085 C 
ATOM     17  C6  <0> d           0.938  -2.030   0.977  0.00  0.00     0.058 C 
ATOM     18  C5  <0> d           0.717  -0.525   1.198  0.00  0.00     0.190 C 
ATOM     19  N1  <0> d           0.002  -0.004   0.002  0.00  0.00    -0.066 N 
ATOM     20  C4  <0> d          -0.301  -0.360   2.350  0.00  0.00     0.035 C 
ATOM     21  C1  <0> d          -0.018   1.465   0.010  0.00  0.00     0.270 C 
ATOM     22  C2  <0> d          -1.374  -0.547   0.157  0.00  0.00     0.190 C 
ATOM     23  H20 <0> d           0.429  -0.349  -0.845  0.00  0.00     0.280 HD
ATOM     24  C8  <0> d          -1.308  -2.051  -0.154  0.00  0.00     0.058 C 
ATOM     25  C3  <0> d          -1.682  -0.375   1.663  0.00  0.00     0.035 C 
ENDBRANCH  14  16
ENDBRANCH   1  14
TORSDOF 2
