REMARK  3 active torsions:
REMARK  status: ('A' for Active; 'I' for Inactive)
REMARK    1  A    between atoms: C6_6  and  C8_9 
REMARK       I    between atoms: C8_9  and  N1_11 
REMARK    2  A    between atoms: N1_11  and  C9_12 
REMARK    3  A    between atoms: C9_12  and  C10_13 
ROOT
ATOM      1  C8  <0> d           0.052  -2.847   2.457  0.00  0.00     0.253 C 
ATOM      2  O1  <0> d           0.049  -2.250   3.516  0.00  0.00    -0.268 OA
ATOM      3  N1  <0> d           0.070  -4.195   2.444  0.00  0.00    -0.352 N 
ATOM      4  H8  <0> d           0.072  -4.671   1.599  0.00  0.00     0.163 HD
ENDROOT
BRANCH   3   5
ATOM      5  C9  <0> d           0.085  -4.939   3.705  0.00  0.00     0.167 C 
BRANCH   5   6
ATOM      6  C10 <0> d           0.103  -6.418   3.415  0.00  0.00     0.033 A 
ATOM      7  C14 <0> d          -1.097  -7.110   3.181  0.00  0.00     0.254 A 
ATOM      8  N2  <0> d          -1.074  -8.431   2.918  0.00  0.00    -0.327 N 
ATOM      9  O2  <0> d          -2.162  -6.513   3.211  0.00  0.00    -0.268 OA
ATOM     10  C13 <0> d           0.101  -9.111   2.885  0.00  0.00     0.009 A 
ATOM     11  H1  <0> d          -1.905  -8.902   2.753  0.00  0.00     0.169 HD
ATOM     12  C12 <0> d           1.274  -8.475   3.112  0.00  0.00     0.032 A 
ATOM     13  C15 <0> d           0.098 -10.589   2.594  0.00  0.00     0.068 C 
ATOM     14  C11 <0> d           1.284  -7.100   3.384  0.00  0.00    -0.047 A 
ATOM     15  C16 <0> d           2.585  -6.383   3.637  0.00  0.00     0.049 C 
ENDBRANCH   5   6
ENDBRANCH   3   5
BRANCH   1  16
ATOM     16  C6  <0> d           0.036  -2.096   1.184  0.00  0.00     0.049 A 
ATOM     17  C5  <0> d           0.040  -2.779  -0.033  0.00  0.00     0.018 A 
ATOM     18  C4  <0> d           0.025  -2.071  -1.217  0.00  0.00     0.002 A 
ATOM     19  C3  <0> d           0.006  -0.688  -1.201  0.00  0.00     0.008 A 
ATOM     20  C2  <0> d           0.002  -0.004   0.002  0.00  0.00    -0.044 A 
ATOM     21  C1  <0> d          -0.018   1.503   0.010  0.00  0.00     0.049 C 
ATOM     22  C7  <0> d           0.023  -0.699   1.194  0.00  0.00     0.028 A 
ATOM     23  I1  <0> d           0.026   0.338   3.014  0.00  0.00    -0.043 I 
ENDBRANCH   1  16
TORSDOF 3
