REMARK  5 active torsions:
REMARK  status: ('A' for Active; 'I' for Inactive)
REMARK    1  A    between atoms: C3_5  and  S1_8 
REMARK    2  A    between atoms: S1_8  and  C4_9 
REMARK    3  A    between atoms: C4_9  and  C5_10 
REMARK    4  A    between atoms: C4_9  and  C9_16 
REMARK    5  A    between atoms: C9_16  and  N4_18 
ROOT
ATOM      1  C4  <0> d          -5.042   2.271  -1.667  0.00  0.00     0.125 C 
ENDROOT
BRANCH   1   2
ATOM      2  S1  <0> d          -4.095   2.794  -3.123  0.00  0.00    -0.078 SA
BRANCH   2   3
ATOM      3  C3  <0> d          -2.416   2.543  -2.652  0.00  0.00     0.185 A 
ATOM      4  N1  <0> d          -1.992   2.156  -1.468  0.00  0.00    -0.207 NA
ATOM      5  C2  <0> d          -0.661   2.072  -1.472  0.00  0.00     0.145 A 
ATOM      6  C1  <0> d           0.192   1.661  -0.299  0.00  0.00     0.095 C 
ATOM      7  N3  <0> d          -0.215   2.407  -2.652  0.00  0.00    -0.158 NA
ATOM      8  N2  <0> d          -1.334   2.713  -3.443  0.00  0.00    -0.254 N 
ATOM      9  H1  <0> d          -1.331   2.995  -4.371  0.00  0.00     0.191 HD
ENDBRANCH   2   3
ENDBRANCH   1   2
BRANCH   1  10
ATOM     10  C5  <0> d          -6.510   2.244  -2.006  0.00  0.00    -0.000 A 
ATOM     11  S2  <0> d          -7.561   3.577  -2.557  0.00  0.00    -0.104 SA
ATOM     12  C8  <0> d          -9.082   2.654  -2.706  0.00  0.00     0.069 A 
ATOM     13  C7  <0> d          -8.695   1.412  -2.323  0.00  0.00     0.018 A 
ATOM     14  C6  <0> d          -7.377   1.202  -1.964  0.00  0.00     0.035 A 
ATOM     15 Br1  <0> d          -9.940  -0.011  -2.282  0.00  0.00    -0.051 Br
ENDBRANCH   1  10
BRANCH   1  16
ATOM     16  C9  <0> d          -4.801   3.256  -0.521  0.00  0.00     0.198 C 
ATOM     17  C10 <0> d          -5.102   4.678  -0.999  0.00  0.00     0.041 C 
BRANCH  16  18
ATOM     18  N4  <0> d          -5.681   2.921   0.606  0.00  0.00    -0.074 N 
ATOM     19  H12 <0> d          -5.547   1.954   0.862  0.00  0.00     0.274 HD
ATOM     20  H13 <0> d          -5.459   3.512   1.393  0.00  0.00     0.274 HD
ATOM     21  H14 <0> d          -6.643   3.067   0.337  0.00  0.00     0.274 HD
ENDBRANCH  16  18
ENDBRANCH   1  16
TORSDOF 5
