REMARK  5 active torsions:
REMARK  status: ('A' for Active; 'I' for Inactive)
REMARK    1  A    between atoms: C2_2  and  N1_3 
REMARK    2  A    between atoms: N1_3  and  C3_4 
REMARK    3  A    between atoms: N1_3  and  S1_9 
REMARK    4  A    between atoms: C3_4  and  C4_5 
REMARK       I    between atoms: C4_5  and  N2_7 
REMARK    5  A    between atoms: S1_9  and  N3_12 
ROOT
ATOM      1  S1  <0> d          -0.188  -0.875  -2.551  0.00  0.00     0.319 S 
ATOM      2  O2  <0> d           0.610  -1.782  -3.300  0.00  0.00    -0.182 OA
ATOM      3  O3  <0> d          -1.496  -1.201  -2.104  0.00  0.00    -0.182 OA
ENDROOT
BRANCH   1   4
ATOM      4  N1  <0> d           0.688  -0.476  -1.203  0.00  0.00    -0.286 N 
BRANCH   4   5
ATOM      5  C2  <0> d           0.002  -0.004   0.002  0.00  0.00     0.133 C 
ATOM      6  C1  <0> d          -0.019   1.526   0.010  0.00  0.00     0.027 C 
ENDBRANCH   4   5
BRANCH   4   7
ATOM      7  C3  <0> d           2.148  -0.597  -1.216  0.00  0.00     0.239 C 
BRANCH   7   8
ATOM      8  C4  <0> d           2.547  -1.931  -0.641  0.00  0.00     0.235 C 
ATOM      9  O1  <0> d           1.696  -2.705  -0.258  0.00  0.00    -0.272 OA
ATOM     10  N2  <0> d           3.850  -2.264  -0.552  0.00  0.00    -0.364 N 
ATOM     11  C5  <0> d           4.238  -3.561   0.008  0.00  0.00     0.149 C 
ATOM     12  H8  <0> d           4.531  -1.644  -0.858  0.00  0.00     0.161 HD
ENDBRANCH   7   8
ENDBRANCH   4   7
ENDBRANCH   1   4
BRANCH   1  13
ATOM     13  N3  <0> d          -0.328   0.498  -3.467  0.00  0.00    -0.291 N 
ATOM     14  C9  <0> d           0.675   0.829  -4.490  0.00  0.00     0.166 C 
ATOM     15  C8  <0> d          -0.059   1.118  -5.809  0.00  0.00     0.290 C 
ATOM     16  N4  <0> d          -1.077   2.152  -5.581  0.00  0.00     0.086 N 
ATOM     17  C7  <0> d          -2.103   1.690  -4.637  0.00  0.00     0.290 C 
ATOM     18  H16 <0> d          -1.492   2.449  -6.451  0.00  0.00     0.316 HD
ATOM     19  C6  <0> d          -1.456   1.421  -3.275  0.00  0.00     0.166 C 
ENDBRANCH   1  13
TORSDOF 5
