REMARK  6 active torsions:
REMARK  status: ('A' for Active; 'I' for Inactive)
REMARK    1  A    between atoms: C4_4  and  N1_7 
REMARK    2  A    between atoms: N1_7  and  C7_8 
REMARK    3  A    between atoms: C7_8  and  C8_9 
REMARK    4  A    between atoms: C8_9  and  N2_10 
REMARK       I    between atoms: N2_10  and  C9_11 
REMARK    5  A    between atoms: C9_11  and  C10_13 
REMARK       I    between atoms: N3_15  and  C18_23 
REMARK    6  A    between atoms: C18_23  and  C19_25 
ROOT
ATOM      1  C10 <0> d           6.452  -5.883   0.502  0.00  0.00     0.106 C 
ATOM      2  C11 <0> d           5.778  -6.691   1.633  0.00  0.00     0.141 C 
ATOM      3  N3  <0> d           6.639  -7.885   1.806  0.00  0.00    -0.346 N 
ATOM      4  C12 <0> d           8.021  -7.366   1.657  0.00  0.00     0.136 C 
ATOM      5  C13 <0> d           7.924  -6.328   0.522  0.00  0.00    -0.007 C 
ATOM      6  C14 <0> d           8.832  -5.138   0.817  0.00  0.00     0.039 C 
ATOM      7  C15 <0> d          10.293  -5.594   0.774  0.00  0.00     0.233 C 
ATOM      8  N4  <0> d          10.595  -6.149  -0.551  0.00  0.00    -0.075 N 
ATOM      9  C16 <0> d           9.783  -7.348  -0.789  0.00  0.00     0.233 C 
ATOM     10  C17 <0> d           8.300  -6.967  -0.811  0.00  0.00     0.039 C 
ATOM     11  C18 <0> d           6.255  -9.154   2.043  0.00  0.00     0.253 C 
ATOM     12  O2  <0> d           5.075  -9.448   2.011  0.00  0.00    -0.267 OA
ATOM     13  H21 <0> d          10.389  -5.460  -1.258  0.00  0.00     0.277 HD
ATOM     14  H30 <0> d          11.574  -6.392  -0.597  0.00  0.00     0.277 HD
ENDROOT
BRANCH   1  15
ATOM     15  C9  <0> d           6.347  -4.405   0.779  0.00  0.00     0.224 C 
ATOM     16  N2  <0> d           6.290  -3.530  -0.245  0.00  0.00    -0.359 N 
ATOM     17  H12 <0> d           6.316  -3.852  -1.159  0.00  0.00     0.162 HD
ATOM     18  O1  <0> d           6.314  -4.003   1.923  0.00  0.00    -0.273 OA
BRANCH  16  19
ATOM     19  C8  <0> d           6.188  -2.094   0.024  0.00  0.00     0.142 C 
BRANCH  19  20
ATOM     20  C7  <0> d           6.139  -1.329  -1.300  0.00  0.00     0.139 C 
BRANCH  20  21
ATOM     21  N1  <0> d           6.037   0.107  -1.031  0.00  0.00    -0.388 N 
ATOM     22  H7  <0> d           6.011   0.429  -0.116  0.00  0.00     0.159 HD
BRANCH  21  23
ATOM     23  C4  <0> d           5.978   1.014  -2.092  0.00  0.00     0.028 A 
ATOM     24  C3  <0> d           5.881   2.376  -1.839  0.00  0.00     0.029 A 
ATOM     25  C2  <0> d           5.823   3.270  -2.890  0.00  0.00     0.002 A 
ATOM     26  C1  <0> d           5.861   2.810  -4.193  0.00  0.00     0.000 A 
ATOM     27  C6  <0> d           5.958   1.454  -4.449  0.00  0.00     0.002 A 
ATOM     28  C5  <0> d           6.016   0.555  -3.402  0.00  0.00     0.029 A 
ENDBRANCH  21  23
ENDBRANCH  20  21
ENDBRANCH  19  20
ENDBRANCH  16  19
ENDBRANCH   1  15
BRANCH  11  29
ATOM     29  C19 <0> d           7.266 -10.190   2.343  0.00  0.00     0.033 A 
ATOM     30  C24 <0> d           6.959 -11.540   2.172  0.00  0.00     0.036 A 
ATOM     31  C23 <0> d           7.910 -12.502   2.447  0.00  0.00     0.011 A 
ATOM     32  C22 <0> d           9.163 -12.129   2.904  0.00  0.00     0.019 A 
ATOM     33 Br1  <0> d           7.500 -14.332   2.208  0.00  0.00    -0.051 Br
ATOM     34  C21 <0> d           9.472 -10.792   3.080  0.00  0.00     0.002 A 
ATOM     35  C20 <0> d           8.532  -9.821   2.802  0.00  0.00     0.017 A 
ENDBRANCH  11  29
TORSDOF 6
