REMARK  5 active torsions:
REMARK  status: ('A' for Active; 'I' for Inactive)
REMARK    1  A    between atoms: C2_2  and  N1_3 
REMARK    2  A    between atoms: C4_5  and  C7_9 
REMARK    3  A    between atoms: C7_9  and  N3_10 
REMARK       I    between atoms: N3_10  and  C8_11 
REMARK       I    between atoms: C8_11  and  N4_13 
REMARK    4  A    between atoms: N4_13  and  C9_14 
REMARK    5  A    between atoms: C14_19  and  O2_20 
ROOT
ATOM      1  N3  <0> d          -5.318  -0.501   1.857  0.00  0.00    -0.338 N 
ATOM      2  C8  <0> d          -6.399  -0.642   2.649  0.00  0.00     0.321 C 
ATOM      3  O1  <0> d          -6.674  -1.731   3.116  0.00  0.00    -0.247 OA
ATOM      4  N4  <0> d          -7.176   0.424   2.925  0.00  0.00    -0.306 N 
ATOM      5  H11 <0> d          -5.099   0.367   1.485  0.00  0.00     0.164 HD
ATOM      6  H12 <0> d          -6.913   1.307   2.622  0.00  0.00     0.171 HD
ENDROOT
BRANCH   1   7
ATOM      7  C7  <0> d          -4.474  -1.661   1.558  0.00  0.00     0.167 C 
BRANCH   7   8
ATOM      8  C4  <0> d          -3.341  -1.238   0.658  0.00  0.00     0.009 A 
ATOM      9  C3  <0> d          -2.128  -0.793   1.061  0.00  0.00     0.036 A 
ATOM     10  N1  <0> d          -1.402  -0.520  -0.043  0.00  0.00    -0.274 N 
ATOM     11  C18 <0> d          -1.669  -0.633   2.488  0.00  0.00     0.070 C 
ATOM     12  N2  <0> d          -2.198  -0.800  -1.162  0.00  0.00    -0.177 NA
ATOM     13  C5  <0> d          -3.357  -1.236  -0.740  0.00  0.00     0.061 A 
ATOM     14  C6  <0> d          -4.513  -1.656  -1.611  0.00  0.00     0.073 C 
BRANCH  10  15
ATOM     15  C2  <0> d          -0.028  -0.014  -0.068  0.00  0.00     0.146 C 
ATOM     16  C1  <0> d          -0.047   1.516  -0.062  0.00  0.00     0.028 C 
ENDBRANCH  10  15
ENDBRANCH   7   8
ENDBRANCH   1   7
BRANCH   4  17
ATOM     17  C9  <0> d          -8.365   0.257   3.650  0.00  0.00     0.071 A 
ATOM     18  C14 <0> d          -8.901   1.321   4.380  0.00  0.00     0.097 A 
ATOM     19  C13 <0> d         -10.067   1.180   5.094  0.00  0.00     0.072 A 
ATOM     20  C12 <0> d         -10.750  -0.055   5.113  0.00  0.00     0.077 A 
ATOM     21  C11 <0> d         -10.180  -1.112   4.369  0.00  0.00     0.037 A 
ATOM     22  N5  <0> d         -11.892  -0.400   5.745  0.00  0.00    -0.245 NA
ATOM     23  C10 <0> d          -9.017  -0.967   3.653  0.00  0.00     0.053 A 
ATOM     24  S1  <0> d         -11.328  -2.432   4.665  0.00  0.00    -0.073 SA
ATOM     25  C16 <0> d         -12.397  -1.596   5.661  0.00  0.00     0.072 A 
ATOM     26  C17 <0> d         -13.654  -2.115   6.309  0.00  0.00     0.079 C 
BRANCH  18  27
ATOM     27  O2  <0> d          -8.259   2.520   4.382  0.00  0.00    -0.354 OA
ATOM     28  C15 <0> d          -8.852   3.573   5.146  0.00  0.00     0.210 C 
ENDBRANCH  18  27
ENDBRANCH   4  17
TORSDOF 5
