REMARK  7 active torsions:
REMARK  status: ('A' for Active; 'I' for Inactive)
REMARK    1  A    between atoms: C2_2  and  C3_3 
REMARK    2  A    between atoms: C3_3  and  C4_4 
REMARK    3  A    between atoms: C3_3  and  N3_19 
REMARK    4  A    between atoms: C4_4  and  C5_5 
REMARK    5  A    between atoms: C4_4  and  N1_11 
REMARK    6  A    between atoms: N1_11  and  C10_13 
REMARK    7  A    between atoms: C10_13  and  C11_14 
REMARK       I    between atoms: C11_14  and  N2_16 
ROOT
ATOM      1  C4  <0> d          -1.413  -2.059   0.130  0.00  0.00     0.258 C 
ENDROOT
BRANCH   1   2
ATOM      2  C3  <0> d          -1.433  -0.534   0.013  0.00  0.00     0.218 C 
BRANCH   2   3
ATOM      3  C2  <0> d           0.002  -0.004   0.002  0.00  0.00     0.031 C 
ATOM      4  C1  <0> d          -0.019   1.526   0.010  0.00  0.00     0.007 C 
ENDBRANCH   2   3
BRANCH   2   5
ATOM      5  N3  <0> d          -2.107  -0.147  -1.234  0.00  0.00    -0.073 N 
ATOM      6  H21 <0> d          -3.054  -0.496  -1.227  0.00  0.00     0.274 HD
ATOM      7  H22 <0> d          -2.120   0.859  -1.311  0.00  0.00     0.274 HD
ATOM      8  H23 <0> d          -1.610  -0.539  -2.020  0.00  0.00     0.274 HD
ENDBRANCH   2   5
ENDBRANCH   1   2
BRANCH   1   9
ATOM      9  C5  <0> d          -0.780  -2.649  -1.103  0.00  0.00     0.017 A 
ATOM     10  S1  <0> d           0.951  -2.806  -1.513  0.00  0.00    -0.103 SA
ATOM     11  C8  <0> d           0.763  -3.596  -3.103  0.00  0.00     0.069 A 
ATOM     12  C7  <0> d          -0.586  -3.680  -3.217  0.00  0.00     0.018 A 
ATOM     13  C6  <0> d          -1.376  -3.194  -2.192  0.00  0.00     0.036 A 
ATOM     14 Br1  <0> d          -1.373  -4.449  -4.755  0.00  0.00    -0.051 Br
ENDBRANCH   1   9
BRANCH   1  15
ATOM     15  N1  <0> d          -0.636  -2.449   1.314  0.00  0.00    -0.056 N 
ATOM     16  C9  <0> d          -0.617  -3.913   1.427  0.00  0.00     0.271 C 
ATOM     17  H24 <0> d           0.309  -2.106   1.224  0.00  0.00     0.280 HD
BRANCH  15  18
ATOM     18  C10 <0> d          -1.254  -1.873   2.517  0.00  0.00     0.337 C 
BRANCH  18  19
ATOM     19  C11 <0> d          -0.390  -2.170   3.716  0.00  0.00     0.245 C 
ATOM     20  O1  <0> d           0.638  -2.798   3.582  0.00  0.00    -0.272 OA
ATOM     21  N2  <0> d          -0.761  -1.736   4.937  0.00  0.00    -0.359 N 
ATOM     22  C12 <0> d           0.079  -2.024   6.102  0.00  0.00     0.152 C 
ATOM     23  C13 <0> d          -2.003  -0.977   5.098  0.00  0.00     0.152 C 
ENDBRANCH  18  19
ENDBRANCH  15  18
ENDBRANCH   1  15
TORSDOF 7
