REMARK  6 active torsions:
REMARK  status: ('A' for Active; 'I' for Inactive)
REMARK    1  A    between atoms: C4_4  and  C7_7 
REMARK    2  A    between atoms: C9_9  and  N1_10 
REMARK    3  A    between atoms: N2_11  and  C19_23 
REMARK    4  A    between atoms: C12_16  and  C13_17 
REMARK    5  A    between atoms: C19_23  and  C20_24 
REMARK    6  A    between atoms: C20_24  and  N4_25 
ROOT
ATOM      1  C7  <0> d           3.674  -0.731  -0.009  0.00  0.00     0.027 A 
ATOM      2  C8  <0> d           4.165  -1.631  -1.032  0.00  0.00     0.075 A 
ATOM      3  C9  <0> d           3.588  -2.175  -2.269  0.00  0.00     0.117 C 
ATOM      4  N2  <0> d           4.559  -2.694  -3.132  0.00  0.00    -0.325 N 
ATOM      5  C10 <0> d           5.712  -3.187  -2.599  0.00  0.00     0.214 C 
ATOM      6  N3  <0> d           6.184  -2.833  -1.430  0.00  0.00    -0.218 NA
ATOM      7  C11 <0> d           5.469  -1.998  -0.652  0.00  0.00     0.186 A 
ATOM      8  O1  <0> d           5.746  -1.386   0.496  0.00  0.00    -0.289 OA
ATOM      9  C12 <0> d           4.710  -0.619   0.905  0.00  0.00     0.100 A 
ENDROOT
BRANCH   4  10
ATOM     10  C19 <0> d           4.341  -2.707  -4.580  0.00  0.00     0.161 C 
BRANCH  10  11
ATOM     11  C20 <0> d           4.871  -1.406  -5.187  0.00  0.00     0.292 C 
BRANCH  11  12
ATOM     12  N4  <0> d           4.652  -1.419  -6.640  0.00  0.00     0.094 N 
ATOM     13  C24 <0> d           4.928  -0.100  -7.226  0.00  0.00     0.298 C 
ATOM     14  C23 <0> d           4.630  -0.142  -8.727  0.00  0.00     0.198 C 
ATOM     15  O2  <0> d           5.409  -1.177  -9.334  0.00  0.00    -0.388 OA
ATOM     16  C22 <0> d           5.165  -2.476  -8.787  0.00  0.00     0.198 C 
ATOM     17  C21 <0> d           5.468  -2.457  -7.286  0.00  0.00     0.298 C 
ENDBRANCH  11  12
ENDBRANCH  10  11
ENDBRANCH   4  10
BRANCH   3  18
ATOM     18  N1  <0> d           2.304  -2.174  -2.535  0.00  0.00    -0.384 N 
ATOM     19  H6  <0> d           1.676  -1.800  -1.897  0.00  0.00     0.157 HD
ATOM     20  H25 <0> d           1.981  -2.549  -3.370  0.00  0.00     0.157 HD
ENDBRANCH   3  18
BRANCH   1  21
ATOM     21  C4  <0> d           2.352  -0.067   0.045  0.00  0.00    -0.022 A 
ATOM     22  C3  <0> d           2.256   1.316  -0.111  0.00  0.00     0.012 A 
ATOM     23  C2  <0> d           1.021   1.929  -0.061  0.00  0.00     0.001 A 
ATOM     24  C1  <0> d          -0.121   1.175   0.144  0.00  0.00     0.000 A 
ATOM     25  C6  <0> d          -0.032  -0.197   0.300  0.00  0.00     0.001 A 
ATOM     26  C5  <0> d           1.197  -0.821   0.252  0.00  0.00     0.012 A 
ENDBRANCH   1  21
BRANCH   9  27
ATOM     27  C13 <0> d           4.685   0.203   2.129  0.00  0.00    -0.001 A 
ATOM     28  C18 <0> d           5.764   1.035   2.438  0.00  0.00     0.014 A 
ATOM     29  C17 <0> d           5.731   1.805   3.582  0.00  0.00     0.001 A 
ATOM     30  C16 <0> d           4.638   1.747   4.428  0.00  0.00     0.000 A 
ATOM     31  C15 <0> d           3.568   0.921   4.132  0.00  0.00     0.001 A 
ATOM     32  C14 <0> d           3.584   0.149   2.989  0.00  0.00     0.014 A 
ENDBRANCH   9  27
TORSDOF 6
