REMARK  5 active torsions:
REMARK  status: ('A' for Active; 'I' for Inactive)
REMARK    1  A    between atoms: C3_3  and  C6_7 
REMARK       I    between atoms: C6_7  and  N1_9 
REMARK    2  A    between atoms: N1_9  and  C7_10 
REMARK    3  A    between atoms: C9_12  and  C13_17 
REMARK    4  A    between atoms: C14_18  and  C15_19 
REMARK    5  A    between atoms: C15_19  and  N2_20 
ROOT
ATOM      1  C7  <0> d          -4.836  -1.001   0.112  0.00  0.00     0.058 A 
ATOM      2  C8  <0> d          -5.221   0.331   0.110  0.00  0.00     0.052 A 
ATOM      3  C9  <0> d          -6.572   0.662   0.209  0.00  0.00     0.020 A 
ATOM      4  C10 <0> d          -7.528  -0.350   0.309  0.00  0.00     0.022 A 
ATOM      5  C11 <0> d          -7.136  -1.673   0.310  0.00  0.00     0.028 A 
ATOM      6  C12 <0> d          -5.797  -2.002   0.206  0.00  0.00     0.060 A 
ATOM      7 Cl1  <0> d          -5.313  -3.669   0.200  0.00  0.00    -0.082 Cl
ENDROOT
BRANCH   1   8
ATOM      8  N1  <0> d          -3.482  -1.338   0.012  0.00  0.00    -0.321 N 
ATOM      9  C6  <0> d          -2.548  -0.554   0.586  0.00  0.00     0.258 C 
ATOM     10  O2  <0> d          -2.874   0.489   1.120  0.00  0.00    -0.267 OA
ATOM     11  H6  <0> d          -3.215  -2.136  -0.471  0.00  0.00     0.169 HD
BRANCH   9  12
ATOM     12  C3  <0> d          -1.131  -0.960   0.567  0.00  0.00     0.063 A 
ATOM     13  C2  <0> d          -0.072  -0.284   1.099  0.00  0.00     0.064 A 
ATOM     14  C1  <0> d          -0.143   1.036   1.823  0.00  0.00     0.077 C 
ATOM     15  O1  <0> d           1.039  -0.988   0.863  0.00  0.00    -0.326 OA
ATOM     16  C5  <0> d           0.757  -2.119   0.197  0.00  0.00     0.143 A 
ATOM     17  C4  <0> d          -0.564  -2.178  -0.029  0.00  0.00     0.044 A 
ENDBRANCH   9  12
ENDBRANCH   1   8
BRANCH   3  18
ATOM     18  C13 <0> d          -6.976   2.035   0.209  0.00  0.00    -0.065 C 
ATOM     19  C14 <0> d          -7.308   3.162   0.209  0.00  0.00    -0.074 C 
BRANCH  19  20
ATOM     20  C15 <0> d          -7.724   4.574   0.208  0.00  0.00     0.323 C 
BRANCH  20  21
ATOM     21  N2  <0> d          -9.187   4.653   0.322  0.00  0.00    -0.069 N 
ATOM     22  H12 <0> d          -9.611   4.177  -0.460  0.00  0.00     0.275 HD
ATOM     23  H13 <0> d          -9.481   4.216   1.183  0.00  0.00     0.275 HD
ATOM     24  H14 <0> d          -9.472   5.621   0.322  0.00  0.00     0.275 HD
ENDBRANCH  20  21
ENDBRANCH  19  20
ENDBRANCH   3  18
TORSDOF 5
