REMARK  3 active torsions:
REMARK  status: ('A' for Active; 'I' for Inactive)
REMARK    1  A    between atoms: C9_12  and  C11_15 
REMARK    2  A    between atoms: C10_13  and  O2_14 
REMARK    3  A    between atoms: N3_19  and  C15_22 
ROOT
ATOM      1  C1  <0> d          -7.958   9.065   0.731  0.00  0.00     0.050 C 
ATOM      2  C2  <0> d          -7.120   8.229  -0.202  0.00  0.00    -0.034 A 
ATOM      3  C3  <0> d          -7.729   7.394  -1.115  0.00  0.00     0.009 A 
ATOM      4  C4  <0> d          -6.970   6.619  -1.981  0.00  0.00     0.002 A 
ATOM      5  C5  <0> d          -5.606   6.670  -1.942  0.00  0.00     0.016 A 
ATOM      6  C6  <0> d          -4.966   7.512  -1.024  0.00  0.00     0.025 A 
ATOM      7  C7  <0> d          -5.731   8.300  -0.144  0.00  0.00     0.054 A 
ATOM      8  N1  <0> d          -5.118   9.135   0.767  0.00  0.00    -0.322 N 
ATOM      9  H1  <0> d          -5.667   9.669   1.362  0.00  0.00     0.169 HD
ATOM     10  C8  <0> d          -3.780   9.231   0.852  0.00  0.00     0.259 A 
ATOM     11  O1  <0> d          -3.282   9.981   1.671  0.00  0.00    -0.267 OA
ATOM     12  C9  <0> d          -2.913   8.441  -0.030  0.00  0.00     0.067 A 
ATOM     13  C10 <0> d          -3.504   7.583  -0.973  0.00  0.00     0.093 A 
ENDROOT
BRANCH  12  14
ATOM     14  C11 <0> d          -1.512   8.544   0.065  0.00  0.00     0.039 C 
ATOM     15  C12 <0> d          -0.746   7.410   0.308  0.00  0.00     0.061 A 
ATOM     16  C14 <0> d          -1.225   6.057   0.620  0.00  0.00     0.281 A 
ATOM     17  C13 <0> d           0.720   7.303   0.309  0.00  0.00     0.067 A 
ATOM     18  N3  <0> d          -0.121   5.297   0.774  0.00  0.00    -0.197 N 
ATOM     19  O3  <0> d          -2.385   5.694   0.719  0.00  0.00    -0.265 OA
ATOM     20  N2  <0> d           1.023   6.071   0.587  0.00  0.00    -0.168 NA
ATOM     21  C21 <0> d           1.694   8.421   0.042  0.00  0.00     0.073 C 
BRANCH  18  22
ATOM     22  C15 <0> d          -0.125   3.931   1.082  0.00  0.00     0.062 A 
ATOM     23  C20 <0> d          -1.328   3.258   1.252  0.00  0.00     0.032 A 
ATOM     24  C19 <0> d          -1.328   1.910   1.550  0.00  0.00     0.002 A 
ATOM     25  C18 <0> d          -0.131   1.232   1.691  0.00  0.00     0.000 A 
ATOM     26  C17 <0> d           1.069   1.898   1.522  0.00  0.00     0.002 A 
ATOM     27  C16 <0> d           1.075   3.245   1.218  0.00  0.00     0.032 A 
ENDBRANCH  18  22
ENDBRANCH  12  14
BRANCH  13  28
ATOM     28  O2  <0> d          -2.745   6.843  -1.807  0.00  0.00    -0.359 OA
ATOM     29  H8  <0> d          -1.786   6.932  -1.723  0.00  0.00     0.217 HD
ENDBRANCH  13  28
TORSDOF 3
