REMARK  2 active torsions:
REMARK  status: ('A' for Active; 'I' for Inactive)
REMARK    1  A    between atoms: C5_5  and  N4_12 
REMARK    2  A    between atoms: N4_12  and  C9_13 
ROOT
ATOM      1  C1  <0> d          -0.018   1.503   0.010  0.00  0.00     0.073 C 
ATOM      2  C2  <0> d           0.002  -0.004   0.002  0.00  0.00     0.065 A 
ATOM      3  C3  <0> d           0.008  -0.858  -1.180  0.00  0.00     0.040 A 
ATOM      4  C4  <0> d          -0.002  -0.615  -2.559  0.00  0.00     0.048 A 
ATOM      5  C5  <0> d           0.009  -1.707  -3.413  0.00  0.00     0.047 A 
ATOM      6  C6  <0> d           0.028  -2.994  -2.876  0.00  0.00     0.148 A 
ATOM      7  N1  <0> d           0.037  -3.195  -1.577  0.00  0.00    -0.239 NA
ATOM      8  C7  <0> d           0.029  -2.187  -0.714  0.00  0.00     0.157 A 
ATOM      9  N2  <0> d           0.034  -2.120   0.655  0.00  0.00    -0.256 N 
ATOM     10  N3  <0> d           0.023  -0.778   1.049  0.00  0.00    -0.175 NA
ATOM     11  C8  <0> d           0.053  -3.270   1.562  0.00  0.00     0.182 C 
ENDROOT
BRANCH   5  12
ATOM     12  N4  <0> d          -0.002  -1.520  -4.800  0.00  0.00    -0.384 N 
ATOM     13  H11 <0> d          -0.016  -0.623  -5.168  0.00  0.00     0.160 HD
BRANCH  12  14
ATOM     14  C9  <0> d           0.009  -2.679  -5.696  0.00  0.00     0.082 C 
ATOM     15  C14 <0> d          -0.613  -2.292  -7.039  0.00  0.00     0.029 C 
ATOM     16  C13 <0> d          -0.601  -3.503  -7.974  0.00  0.00    -0.017 C 
ATOM     17  C12 <0> d           0.841  -3.964  -8.194  0.00  0.00     0.004 C 
ATOM     18  C15 <0> d          -1.223  -3.116  -9.317  0.00  0.00     0.010 C 
ATOM     19  C11 <0> d           1.463  -4.351  -6.851  0.00  0.00     0.002 C 
ATOM     20  C10 <0> d           1.452  -3.140  -5.915  0.00  0.00     0.025 C 
ENDBRANCH  12  14
ENDBRANCH   5  12
TORSDOF 2
