REMARK  7 active torsions:
REMARK  status: ('A' for Active; 'I' for Inactive)
REMARK    1  A    between atoms: C2_2  and  N1_3 
REMARK       I    between atoms: N1_3  and  C3_4 
REMARK       I    between atoms: C3_4  and  N2_6 
REMARK    2  A    between atoms: N2_6  and  C4_7 
REMARK    3  A    between atoms: C9_14  and  N3_15 
REMARK    4  A    between atoms: C11_17  and  C12_20 
REMARK    5  A    between atoms: C12_20  and  N6_21 
REMARK    6  A    between atoms: N6_21  and  C14_23 
REMARK    7  A    between atoms: C14_23  and  C15_24 
ROOT
ATOM      1  C4  <0> d          -3.113  -3.750   0.012  0.00  0.00     0.141 C 
ATOM      2  C5  <0> d          -3.147  -4.298   1.455  0.00  0.00     0.196 C 
ATOM      3  O2  <0> d          -4.171  -5.315   1.440  0.00  0.00    -0.379 OA
ATOM      4  C6  <0> d          -5.239  -4.777   0.633  0.00  0.00     0.179 C 
ATOM      5  C7  <0> d          -4.520  -4.054  -0.545  0.00  0.00     0.177 C 
ATOM      6  O3  <0> d          -4.403  -5.056  -1.576  0.00  0.00    -0.379 OA
ATOM      7  C8  <0> d          -5.649  -5.785  -1.552  0.00  0.00     0.198 C 
ATOM      8  C9  <0> d          -5.993  -5.947  -0.033  0.00  0.00     0.166 C 
ENDROOT
BRANCH   8   9
ATOM      9  N3  <0> d          -7.435  -5.823   0.194  0.00  0.00    -0.251 N 
ATOM     10  N5  <0> d          -8.102  -6.391   1.137  0.00  0.00    -0.066 NA
ATOM     11  N4  <0> d          -9.345  -6.073   1.056  0.00  0.00    -0.134 NA
ATOM     12  C11 <0> d          -9.517  -5.262   0.006  0.00  0.00     0.101 A 
ATOM     13  C10 <0> d          -8.296  -5.096  -0.555  0.00  0.00     0.145 A 
BRANCH  12  14
ATOM     14  C12 <0> d         -10.815  -4.654  -0.462  0.00  0.00     0.297 C 
BRANCH  14  15
ATOM     15  N6  <0> d         -11.516  -5.607  -1.332  0.00  0.00    -0.066 N 
ATOM     16  C13 <0> d         -10.729  -5.827  -2.553  0.00  0.00     0.270 C 
ATOM     17  H29 <0> d         -11.635  -6.483  -0.846  0.00  0.00     0.280 HD
BRANCH  15  18
ATOM     18  C14 <0> d         -12.833  -5.064  -1.691  0.00  0.00     0.273 C 
BRANCH  18  19
ATOM     19  C15 <0> d         -13.602  -6.091  -2.482  0.00  0.00    -0.033 A 
ATOM     20  C20 <0> d         -14.412  -7.001  -1.829  0.00  0.00     0.009 A 
ATOM     21  C19 <0> d         -15.120  -7.941  -2.555  0.00  0.00     0.001 A 
ATOM     22  C18 <0> d         -15.011  -7.976  -3.932  0.00  0.00     0.000 A 
ATOM     23  C17 <0> d         -14.197  -7.069  -4.585  0.00  0.00     0.001 A 
ATOM     24  C16 <0> d         -13.492  -6.126  -3.859  0.00  0.00     0.009 A 
ENDBRANCH  18  19
ENDBRANCH  15  18
ENDBRANCH  14  15
ENDBRANCH  12  14
ENDBRANCH   8   9
BRANCH   1  25
ATOM     25  N2  <0> d          -2.865  -2.306   0.017  0.00  0.00    -0.334 N 
ATOM     26  C3  <0> d          -1.601  -1.839   0.007  0.00  0.00     0.316 C 
ATOM     27  N1  <0> d          -1.372  -0.511   0.012  0.00  0.00    -0.343 N 
ATOM     28  O1  <0> d          -0.666  -2.617  -0.006  0.00  0.00    -0.247 OA
ATOM     29  H10 <0> d          -2.118   0.109   0.023  0.00  0.00     0.164 HD
ATOM     30  H11 <0> d          -3.611  -1.686   0.028  0.00  0.00     0.164 HD
BRANCH  27  31
ATOM     31  C2  <0> d           0.002  -0.004   0.002  0.00  0.00     0.120 C 
ATOM     32  C1  <0> d          -0.019   1.526   0.010  0.00  0.00     0.026 C 
ENDBRANCH  27  31
ENDBRANCH   1  25
TORSDOF 7
