REMARK  3 active torsions:
REMARK  status: ('A' for Active; 'I' for Inactive)
REMARK    1  A    between atoms: C5_5  and  N1_9 
REMARK       I    between atoms: N1_9  and  C8_10 
REMARK    2  A    between atoms: C8_10  and  C9_12 
REMARK    3  A    between atoms: C9_12  and  N2_13 
ROOT
ATOM      1  N2  <0> d          -0.230  -6.821  -2.575  0.00  0.00    -0.224 N 
ATOM      2  C10 <0> d           0.892  -7.118  -3.256  0.00  0.00     0.292 A 
ATOM      3  O2  <0> d           1.986  -6.988  -2.727  0.00  0.00    -0.264 OA
ATOM      4  C11 <0> d           0.798  -7.582  -4.585  0.00  0.00     0.125 A 
ATOM      5  C12 <0> d          -0.464  -7.712  -5.146  0.00  0.00     0.052 A 
ATOM      6  C13 <0> d          -1.608  -7.391  -4.395  0.00  0.00     0.160 A 
ATOM      7  N3  <0> d          -1.490  -6.971  -3.164  0.00  0.00    -0.180 NA
ATOM      8  S1  <0> d          -0.612  -8.277  -6.811  0.00  0.00    -0.117 SA
ATOM      9  C14 <0> d           0.934  -7.688  -7.566  0.00  0.00     0.182 C 
ATOM     10  C15 <0> d           2.070  -7.959  -6.617  0.00  0.00     0.233 C 
ATOM     11  O3  <0> d           3.152  -8.247  -7.085  0.00  0.00    -0.272 OA
ATOM     12  N4  <0> d           1.952  -7.899  -5.293  0.00  0.00    -0.316 N 
ATOM     13  C16 <0> d           3.152  -8.195  -4.506  0.00  0.00     0.159 C 
ENDROOT
BRANCH   1  14
ATOM     14  C9  <0> d          -0.132  -6.338  -1.195  0.00  0.00     0.257 C 
BRANCH  14  15
ATOM     15  C8  <0> d          -0.037  -4.834  -1.195  0.00  0.00     0.242 C 
ATOM     16  N1  <0> d           0.063  -4.165  -0.029  0.00  0.00    -0.323 N 
ATOM     17  H7  <0> d           0.155  -4.653   0.804  0.00  0.00     0.169 HD
ATOM     18  O1  <0> d          -0.051  -4.225  -2.244  0.00  0.00    -0.271 OA
BRANCH  16  19
ATOM     19  C5  <0> d           0.034  -2.765  -0.020  0.00  0.00     0.073 A 
ATOM     20  C4  <0> d          -0.588  -2.075  -1.052  0.00  0.00     0.033 A 
ATOM     21  C3  <0> d          -0.615  -0.694  -1.040  0.00  0.00     0.009 A 
ATOM     22  C2  <0> d          -0.024   0.003  -0.002  0.00  0.00    -0.059 A 
ATOM     23  C1  <0> d          -0.057   1.509   0.006  0.00  0.00     0.048 C 
ATOM     24  C7  <0> d           0.601  -0.679   1.025  0.00  0.00     0.051 A 
ATOM     25  C6  <0> d           0.628  -2.062   1.022  0.00  0.00     0.143 A 
ATOM     26  F1  <0> d           1.234  -2.729   2.029  0.00  0.00    -0.204 F 
ENDBRANCH  16  19
ENDBRANCH  14  15
ENDBRANCH   1  14
TORSDOF 3
