REMARK  7 active torsions:
REMARK  status: ('A' for Active; 'I' for Inactive)
REMARK    1  A    between atoms: C5_5  and  O1_8 
REMARK    2  A    between atoms: O1_8  and  C8_9 
REMARK    3  A    between atoms: C8_9  and  C9_10 
REMARK    4  A    between atoms: C9_10  and  C10_11 
REMARK    5  A    between atoms: C9_10  and  O4_20 
REMARK    6  A    between atoms: C10_11  and  N1_12 
REMARK    7  A    between atoms: N1_12  and  C11_13 
ROOT
ATOM      1  C9  <0> d          -1.967  -2.396   4.737  0.00  0.00     0.167 C 
ENDROOT
BRANCH   1   2
ATOM      2  C8  <0> d          -1.216  -2.986   3.541  0.00  0.00     0.201 C 
BRANCH   2   3
ATOM      3  O1  <0> d          -1.341  -2.110   2.420  0.00  0.00    -0.383 OA
BRANCH   3   4
ATOM      4  C5  <0> d          -0.673  -2.570   1.244  0.00  0.00     0.121 C 
ATOM      5  C4  <0> d          -1.413  -2.063   0.004  0.00  0.00     0.032 C 
ATOM      6  C3  <0> d          -1.433  -0.534   0.013  0.00  0.00     0.007 C 
ATOM      7  C2  <0> d           0.002  -0.004   0.002  0.00  0.00    -0.019 C 
ATOM      8  C1  <0> d          -0.019   1.526   0.010  0.00  0.00     0.010 C 
ATOM      9  C7  <0> d           0.742  -0.511   1.242  0.00  0.00     0.007 C 
ATOM     10  C6  <0> d           0.763  -2.041   1.233  0.00  0.00     0.032 C 
ENDBRANCH   3   4
ENDBRANCH   2   3
ENDBRANCH   1   2
BRANCH   1  11
ATOM     11  C10 <0> d          -1.730  -3.270   5.970  0.00  0.00     0.266 C 
BRANCH  11  12
ATOM     12  N1  <0> d          -2.450  -2.703   7.117  0.00  0.00    -0.068 N 
ATOM     13  H20 <0> d          -2.114  -1.769   7.298  0.00  0.00     0.277 HD
ATOM     14  H28 <0> d          -3.438  -2.671   6.912  0.00  0.00     0.277 HD
BRANCH  12  15
ATOM     15  C11 <0> d          -2.223  -3.542   8.302  0.00  0.00     0.200 C 
ATOM     16  C14 <0> d          -3.099  -3.030   9.470  0.00  0.00     0.173 C 
ATOM     17  S1  <0> d          -2.076  -3.424  10.946  0.00  0.00     0.146 S 
ATOM     18  C13 <0> d          -0.583  -4.107  10.109  0.00  0.00     0.142 C 
ATOM     19  O2  <0> d          -1.725  -2.212  11.601  0.00  0.00    -0.228 OA
ATOM     20  O3  <0> d          -2.707  -4.461  11.685  0.00  0.00    -0.228 OA
ATOM     21  C12 <0> d          -0.737  -3.478   8.695  0.00  0.00     0.049 C 
ENDBRANCH  12  15
ENDBRANCH  11  12
ENDBRANCH   1  11
BRANCH   1  22
ATOM     22  O4  <0> d          -3.365  -2.351   4.446  0.00  0.00    -0.392 OA
ATOM     23  H27 <0> d          -3.756  -3.216   4.262  0.00  0.00     0.210 HD
ENDBRANCH   1  22
TORSDOF 7
