REMARK  4 active torsions:
REMARK  status: ('A' for Active; 'I' for Inactive)
REMARK    1  A    between atoms: C2_2  and  C5_5 
REMARK    2  A    between atoms: C8_8  and  N2_19 
REMARK    3  A    between atoms: C9_9  and  N1_11 
REMARK    4  A    between atoms: C13_14  and  O1_17 
ROOT
ATOM      1  C5  <0> d           0.678  -0.964  -1.150  0.00  0.00    -0.005 C 
ATOM      2  C6  <0> d           0.937  -2.464  -1.304  0.00  0.00     0.007 C 
ATOM      3  C7  <0> d           1.554  -2.736  -2.678  0.00  0.00     0.035 C 
ATOM      4  C8  <0> d           2.875  -1.974  -2.803  0.00  0.00     0.214 C 
ATOM      5  C9  <0> d           2.615  -0.474  -2.648  0.00  0.00     0.218 C 
ATOM      6  C10 <0> d           1.998  -0.203  -1.275  0.00  0.00     0.040 C 
ENDROOT
BRANCH   5   7
ATOM      7  N1  <0> d           3.884   0.257  -2.769  0.00  0.00    -0.065 N 
ATOM      8  C15 <0> d           4.756  -0.090  -1.641  0.00  0.00     0.238 C 
ATOM      9  C14 <0> d           6.109   0.606  -1.804  0.00  0.00     0.059 C 
ATOM     10  C13 <0> d           5.896   2.122  -1.838  0.00  0.00     0.124 C 
ATOM     11  C12 <0> d           4.926   2.466  -2.972  0.00  0.00     0.059 C 
ATOM     12  C11 <0> d           3.617   1.700  -2.766  0.00  0.00     0.238 C 
ATOM     13  H34 <0> d           4.337   0.003  -3.634  0.00  0.00     0.280 HD
BRANCH  10  14
ATOM     14  O1  <0> d           7.146   2.775  -2.065  0.00  0.00    -0.391 OA
ATOM     15  C16 <0> d           7.854   3.107  -0.869  0.00  0.00     0.202 C 
ENDBRANCH  10  14
ENDBRANCH   5   7
BRANCH   4  16
ATOM     16  N2  <0> d           3.467  -2.235  -4.122  0.00  0.00    -0.073 N 
ATOM     17  H31 <0> d           2.880  -1.836  -4.839  0.00  0.00     0.274 HD
ATOM     18  H32 <0> d           4.385  -1.817  -4.167  0.00  0.00     0.274 HD
ATOM     19  H33 <0> d           3.544  -3.231  -4.265  0.00  0.00     0.274 HD
ENDBRANCH   4  16
BRANCH   1  20
ATOM     20  C2  <0> d           0.061  -0.693   0.224  0.00  0.00    -0.048 C 
ATOM     21  C1  <0> d          -0.199   0.807   0.379  0.00  0.00     0.015 C 
ATOM     22  C3  <0> d           1.024  -1.159   1.317  0.00  0.00     0.015 C 
ATOM     23  C4  <0> d          -1.260  -1.454   0.349  0.00  0.00     0.015 C 
ENDBRANCH   1  20
TORSDOF 4
