REMARK  4 active torsions:
REMARK  status: ('A' for Active; 'I' for Inactive)
REMARK    1  A    between atoms: C3_3  and  O2_19 
REMARK    2  A    between atoms: C6_6  and  C7_7 
REMARK       I    between atoms: C7_7  and  N1_9 
REMARK    3  A    between atoms: N1_9  and  C8_10 
REMARK    4  A    between atoms: C11_13  and  N2_17 
ROOT
ATOM      1  C7  <0> d          -0.759  -1.435   1.065  0.00  0.00     0.256 C 
ATOM      2  O1  <0> d          -1.405  -1.375   2.094  0.00  0.00    -0.267 OA
ATOM      3  N1  <0> d          -1.244  -2.109   0.003  0.00  0.00    -0.321 N 
ATOM      4  H5  <0> d          -0.765  -2.096  -0.840  0.00  0.00     0.169 HD
ENDROOT
BRANCH   3   5
ATOM      5  C8  <0> d          -2.442  -2.828   0.117  0.00  0.00     0.070 A 
ATOM      6  C13 <0> d          -2.418  -4.157   0.523  0.00  0.00     0.041 A 
ATOM      7  C12 <0> d          -3.599  -4.864   0.641  0.00  0.00     0.050 A 
ATOM      8 Br1  <0> d          -0.770  -4.994   0.921  0.00  0.00    -0.049 Br
ATOM      9  C11 <0> d          -4.808  -4.251   0.342  0.00  0.00     0.028 A 
ATOM     10  C10 <0> d          -4.832  -2.924  -0.069  0.00  0.00     0.050 A 
ATOM     11  C9  <0> d          -3.652  -2.215  -0.181  0.00  0.00     0.041 A 
ATOM     12 Br2  <0> d          -3.684  -0.409  -0.741  0.00  0.00    -0.049 Br
BRANCH   9  13
ATOM     13  N2  <0> d          -6.003  -4.969   0.456  0.00  0.00    -0.399 N 
ATOM     14  H8  <0> d          -6.848  -4.541   0.247  0.00  0.00     0.156 HD
ATOM     15  H9  <0> d          -5.987  -5.895   0.743  0.00  0.00     0.156 HD
ENDBRANCH   9  13
ENDBRANCH   3   5
BRANCH   1  16
ATOM     16  C6  <0> d           0.555  -0.770   0.979  0.00  0.00     0.032 A 
ATOM     17  C1  <0> d           1.060  -0.071   2.079  0.00  0.00     0.020 A 
ATOM     18  C2  <0> d           2.287   0.548   1.995  0.00  0.00     0.037 A 
ATOM     19  C3  <0> d           3.024   0.478   0.819  0.00  0.00     0.065 A 
ATOM     20  C4  <0> d           2.525  -0.216  -0.278  0.00  0.00     0.037 A 
ATOM     21  C5  <0> d           1.298  -0.837  -0.202  0.00  0.00     0.020 A 
BRANCH  19  22
ATOM     22  O2  <0> d           4.233   1.090   0.740  0.00  0.00    -0.361 OA
ATOM     23  H10 <0> d           4.975   0.530   1.006  0.00  0.00     0.217 HD
ENDBRANCH  19  22
ENDBRANCH   1  16
TORSDOF 4
