REMARK  2 active torsions:
REMARK  status: ('A' for Active; 'I' for Inactive)
REMARK    1  A    between atoms: C2_2  and  C3_3 
REMARK    2  A    between atoms: C3_3  and  N1_4 
ROOT
ATOM      1  N1  <0> d          -3.627  -0.626   2.949  0.00  0.00    -0.284 N 
ATOM      2  C4  <0> d          -3.865  -0.088   1.747  0.00  0.00     0.233 A 
ATOM      3  O1  <0> d          -4.951   0.262   1.338  0.00  0.00    -0.272 OA
ATOM      4  C5  <0> d          -2.567   0.016   0.978  0.00  0.00     0.125 A 
ATOM      5  C6  <0> d          -2.190   1.500   0.809  0.00  0.00     0.204 C 
ATOM      6  C7  <0> d          -2.227   1.868  -0.685  0.00  0.00     0.036 C 
ATOM      7  C8  <0> d          -0.799   1.617  -1.208  0.00  0.00     0.030 C 
ATOM      8  C9  <0> d          -0.013   1.086   0.008  0.00  0.00     0.237 C 
ATOM      9  C10 <0> d          -0.610   0.626   2.306  0.00  0.00     0.249 A 
ATOM     10  C11 <0> d          -1.517  -0.561   1.967  0.00  0.00     0.144 A 
ATOM     11  C12 <0> d          -2.345  -0.932   3.177  0.00  0.00     0.235 A 
ATOM     12  O2  <0> d          -1.914  -1.429   4.195  0.00  0.00    -0.272 OA
ATOM     13  C13 <0> d           0.819   0.194   2.485  0.00  0.00     0.015 A 
ATOM     14  C14 <0> d           1.729  -0.433   1.664  0.00  0.00     0.012 A 
ATOM     15  C15 <0> d           3.005  -0.705   2.124  0.00  0.00     0.001 A 
ATOM     16  C16 <0> d           3.363  -0.345   3.411  0.00  0.00     0.002 A 
ATOM     17  C17 <0> d           2.455   0.282   4.237  0.00  0.00     0.030 A 
ATOM     18  C18 <0> d           1.168   0.559   3.781  0.00  0.00     0.044 A 
ATOM     19  N2  <0> d           0.087   1.175   4.417  0.00  0.00    -0.324 N 
ATOM     20  C19 <0> d          -0.995   1.252   3.619  0.00  0.00     0.264 A 
ATOM     21  O3  <0> d          -2.071   1.734   3.904  0.00  0.00    -0.270 OA
ATOM     22  H19 <0> d           0.113   1.507   5.328  0.00  0.00     0.169 HD
ATOM     23  N3  <0> d          -0.793   1.543   1.178  0.00  0.00    -0.043 N 
ATOM     24  H20 <0> d          -0.512   2.495   1.442  0.00  0.00     0.282 HD
ENDROOT
BRANCH   1  25
ATOM     25  C3  <0> d          -4.685  -0.862   3.934  0.00  0.00     0.161 C 
BRANCH  25  26
ATOM     26  C2  <0> d          -5.262  -2.240   3.732  0.00  0.00    -0.017 C 
ATOM     27  C1  <0> d          -5.295  -3.088   4.730  0.00  0.00     0.008 C 
ENDBRANCH  25  26
ENDBRANCH   1  25
TORSDOF 2
