REMARK  5 active torsions:
REMARK  status: ('A' for Active; 'I' for Inactive)
REMARK    1  A    between atoms: C2_2  and  C3_3 
REMARK    2  A    between atoms: C3_3  and  C4_4 
REMARK    3  A    between atoms: C7_7  and  C19_20 
REMARK    4  A    between atoms: C8_8  and  N1_10 
REMARK    5  A    between atoms: C19_20  and  N2_21 
ROOT
ATOM      1  C4  <0> d           0.763  -2.041   1.233  0.00  0.00    -0.013 C 
ATOM      2  C5  <0> d          -0.666  -2.571   1.370  0.00  0.00     0.005 C 
ATOM      3  C6  <0> d          -0.645  -4.101   1.361  0.00  0.00     0.009 C 
ATOM      4  C7  <0> d           0.200  -4.606   2.532  0.00  0.00     0.042 C 
ATOM      5  C8  <0> d           1.629  -4.076   2.396  0.00  0.00     0.194 C 
ATOM      6  C9  <0> d           1.608  -2.546   2.404  0.00  0.00     0.038 C 
ENDROOT
BRANCH   5   7
ATOM      7  N1  <0> d           2.441  -4.561   3.520  0.00  0.00    -0.066 N 
ATOM      8  C18 <0> d           3.811  -4.051   3.387  0.00  0.00     0.236 C 
ATOM      9  C17 <0> d           4.637  -4.479   4.603  0.00  0.00     0.037 C 
ATOM     10  C12 <0> d           4.651  -6.004   4.690  0.00  0.00    -0.037 C 
ATOM     11  C11 <0> d           3.221  -6.539   4.737  0.00  0.00     0.037 C 
ATOM     12  C16 <0> d           5.394  -6.594   3.482  0.00  0.00     0.010 C 
ATOM     13  C13 <0> d           5.417  -6.449   5.949  0.00  0.00     0.010 C 
ATOM     14  C10 <0> d           2.451  -6.028   3.517  0.00  0.00     0.236 C 
ATOM     15  C15 <0> d           6.596  -7.380   4.049  0.00  0.00     0.001 C 
ATOM     16  C14 <0> d           6.175  -7.724   5.500  0.00  0.00     0.001 C 
ATOM     17  H37 <0> d           2.043  -4.231   4.387  0.00  0.00     0.280 HD
ENDBRANCH   5   7
BRANCH   4  18
ATOM     18  C19 <0> d          -0.404  -4.111   3.848  0.00  0.00     0.236 C 
BRANCH  18  19
ATOM     19  N2  <0> d          -1.729  -4.716   4.036  0.00  0.00    -0.079 N 
ATOM     20  H35 <0> d          -2.127  -4.390   4.904  0.00  0.00     0.274 HD
ATOM     21  H36 <0> d          -2.331  -4.453   3.270  0.00  0.00     0.274 HD
ATOM     22  H38 <0> d          -1.639  -5.721   4.064  0.00  0.00     0.274 HD
ENDBRANCH  18  19
ENDBRANCH   4  18
BRANCH   1  23
ATOM     23  C3  <0> d           0.742  -0.511   1.242  0.00  0.00     0.004 C 
BRANCH  23  24
ATOM     24  C2  <0> d           0.002  -0.004   0.002  0.00  0.00    -0.004 C 
ATOM     25  C1  <0> d          -0.019   1.526   0.010  0.00  0.00     0.005 C 
ENDBRANCH  23  24
ENDBRANCH   1  23
TORSDOF 5
