REMARK  3 active torsions:
REMARK  status: ('A' for Active; 'I' for Inactive)
REMARK    1  A    between atoms: C3_5  and  C10_13 
REMARK    2  A    between atoms: N3_6  and  C4_7 
REMARK    3  A    between atoms: C13_16  and  N4_19 
ROOT
ATOM      1  C1  <0> d          -0.249   1.489   0.036  0.00  0.00     0.093 C 
ATOM      2  C2  <0> d          -0.097  -0.010   0.013  0.00  0.00     0.126 A 
ATOM      3  N1  <0> d          -0.142  -0.776  -1.043  0.00  0.00    -0.135 NA
ATOM      4  N2  <0> d           0.026  -2.003  -0.695  0.00  0.00    -0.134 NA
ATOM      5  C3  <0> d           0.187  -2.075   0.598  0.00  0.00     0.134 A 
ATOM      6  N3  <0> d           0.118  -0.811   1.084  0.00  0.00    -0.316 N 
ENDROOT
BRANCH   5   7
ATOM      7  C10 <0> d           0.412  -3.329   1.402  0.00  0.00     0.058 C 
ATOM      8  C15 <0> d          -0.776  -4.275   1.215  0.00  0.00     0.014 C 
ATOM      9  C14 <0> d          -0.547  -5.549   2.031  0.00  0.00     0.033 C 
ATOM     10  C13 <0> d           0.733  -6.238   1.553  0.00  0.00     0.183 C 
ATOM     11  C12 <0> d           1.921  -5.292   1.740  0.00  0.00     0.033 C 
ATOM     12  C11 <0> d           1.692  -4.018   0.924  0.00  0.00     0.014 C 
BRANCH  10  13
ATOM     13  N4  <0> d           0.953  -7.461   2.336  0.00  0.00    -0.075 N 
ATOM     14  H25 <0> d           1.043  -7.223   3.312  0.00  0.00     0.274 HD
ATOM     15  H26 <0> d           0.169  -8.084   2.213  0.00  0.00     0.274 HD
ATOM     16  H27 <0> d           1.796  -7.915   2.021  0.00  0.00     0.274 HD
ENDBRANCH  10  13
ENDBRANCH   5   7
BRANCH   6  17
ATOM     17  C4  <0> d           0.248  -0.397   2.483  0.00  0.00     0.092 C 
ATOM     18  C9  <0> d           1.619  -0.819   3.015  0.00  0.00     0.026 C 
ATOM     19  C8  <0> d           1.754  -0.386   4.476  0.00  0.00     0.002 C 
ATOM     20  C7  <0> d           0.657  -1.052   5.309  0.00  0.00     0.000 C 
ATOM     21  C6  <0> d          -0.715  -0.631   4.777  0.00  0.00     0.002 C 
ATOM     22  C5  <0> d          -0.849  -1.063   3.316  0.00  0.00     0.026 C 
ENDBRANCH   6  17
TORSDOF 3
