REMARK  7 active torsions:
REMARK  status: ('A' for Active; 'I' for Inactive)
REMARK    1  A    between atoms: C3_3  and  C12_17 
REMARK    2  A    between atoms: C4_5  and  N2_7 
REMARK    3  A    between atoms: N2_7  and  C5_8 
REMARK       I    between atoms: N2_7  and  C10_14 
REMARK    4  A    between atoms: C5_8  and  C6_9 
REMARK       I    between atoms: C12_17  and  N3_19 
REMARK    5  A    between atoms: N3_19  and  C13_20 
REMARK    6  A    between atoms: C13_20  and  C14_21 
REMARK    7  A    between atoms: C14_21  and  C15_22 
ROOT
ATOM      1  C1  <0> d          -0.170   1.483  -0.023  0.00  0.00     0.044 C 
ATOM      2  C2  <0> d          -0.096  -0.045  -0.011  0.00  0.00     0.243 C 
ATOM      3  C3  <0> d          -1.535  -0.606   0.094  0.00  0.00     0.175 C 
ATOM      4  S1  <0> d          -1.236  -2.053   1.205  0.00  0.00    -0.097 SA
ATOM      5  C4  <0> d           0.197  -1.324   2.116  0.00  0.00     0.389 C 
ATOM      6  N1  <0> d           0.788  -0.456   1.073  0.00  0.00     0.122 N 
ATOM      7  H8  <0> d           1.640  -0.858   0.713  0.00  0.00     0.320 HD
ENDROOT
BRANCH   3   8
ATOM      8  C12 <0> d          -2.050  -1.046  -1.252  0.00  0.00     0.233 C 
ATOM      9  O3  <0> d          -1.292  -1.538  -2.061  0.00  0.00    -0.272 OA
ATOM     10  N3  <0> d          -3.354  -0.893  -1.557  0.00  0.00    -0.360 N 
ATOM     11  H20 <0> d          -3.960  -0.500  -0.910  0.00  0.00     0.162 HD
BRANCH  10  12
ATOM     12  C13 <0> d          -3.855  -1.321  -2.866  0.00  0.00     0.127 C 
BRANCH  12  13
ATOM     13  C14 <0> d          -5.356  -1.037  -2.955  0.00  0.00     0.056 C 
BRANCH  13  14
ATOM     14  C15 <0> d          -5.871  -1.477  -4.301  0.00  0.00    -0.048 A 
ATOM     15  C22 <0> d          -5.852  -0.680  -5.586  0.00  0.00     0.155 A 
ATOM     16  N4  <0> d          -6.462  -1.544  -6.604  0.00  0.00    -0.385 N 
ATOM     17  C21 <0> d          -6.806  -2.676  -6.040  0.00  0.00     0.038 A 
ATOM     18  H31 <0> d          -6.592  -1.314  -7.537  0.00  0.00     0.160 HD
ATOM     19  C16 <0> d          -6.449  -2.662  -4.603  0.00  0.00    -0.006 A 
ATOM     20  C20 <0> d          -7.428  -3.843  -6.561  0.00  0.00     0.030 A 
ATOM     21  C17 <0> d          -6.758  -3.851  -3.800  0.00  0.00     0.014 A 
ATOM     22  C18 <0> d          -7.353  -4.909  -4.396  0.00  0.00     0.001 A 
ATOM     23  C19 <0> d          -7.681  -4.899  -5.759  0.00  0.00     0.002 A 
ENDBRANCH  13  14
ENDBRANCH  12  13
ENDBRANCH  10  12
ENDBRANCH   3   8
BRANCH   5  24
ATOM     24  N2  <0> d          -0.255  -0.534   3.264  0.00  0.00    -0.312 N 
ATOM     25  C10 <0> d           0.630  -0.134   4.197  0.00  0.00     0.218 C 
ATOM     26  O2  <0> d           0.244   0.441   5.193  0.00  0.00    -0.274 OA
ATOM     27  C11 <0> d           2.101  -0.399   4.003  0.00  0.00     0.117 C 
BRANCH  24  28
ATOM     28  C5  <0> d          -1.671  -0.180   3.397  0.00  0.00     0.160 C 
BRANCH  28  29
ATOM     29  C6  <0> d          -2.397  -1.270   4.187  0.00  0.00     0.139 C 
ATOM     30  O1  <0> d          -1.920  -1.292   5.537  0.00  0.00    -0.384 OA
ATOM     31  C9  <0> d          -2.997  -0.986   6.441  0.00  0.00     0.168 C 
ATOM     32  C8  <0> d          -4.288  -1.376   5.679  0.00  0.00     0.029 C 
ATOM     33  C7  <0> d          -3.910  -0.967   4.229  0.00  0.00     0.035 C 
ENDBRANCH  28  29
ENDBRANCH  24  28
ENDBRANCH   5  24
TORSDOF 7
