REMARK  8 active torsions:
REMARK  status: ('A' for Active; 'I' for Inactive)
REMARK    1  A    between atoms: C7_7  and  N1_8 
REMARK       I    between atoms: N1_8  and  C8_9 
REMARK    2  A    between atoms: C8_9  and  C9_11 
REMARK    3  A    between atoms: C10_14  and  C11_16 
REMARK    4  A    between atoms: C11_16  and  S2_17 
REMARK    5  A    between atoms: S2_17  and  C12_18 
REMARK    6  A    between atoms: C12_18  and  C13_19 
REMARK       I    between atoms: C13_19  and  N4_21 
REMARK    7  A    between atoms: N4_21  and  C14_22 
REMARK    8  A    between atoms: C14_22  and  C15_23 
ROOT
ATOM      1  C9  <0> d          -0.165   0.035   4.852  0.00  0.00     0.189 A 
ATOM      2  N2  <0> d          -0.195   1.343   5.087  0.00  0.00    -0.136 NA
ATOM      3  N3  <0> d          -0.298   1.776   6.268  0.00  0.00    -0.145 NA
ATOM      4  C10 <0> d          -0.369   0.963   7.308  0.00  0.00     0.108 A 
ATOM      5  S1  <0> d          -0.287  -0.588   6.525  0.00  0.00    -0.045 SA
ENDROOT
BRANCH   4   6
ATOM      6  C11 <0> d          -0.488   1.291   8.774  0.00  0.00     0.143 C 
BRANCH   6   7
ATOM      7  S2  <0> d          -2.240   1.400   9.229  0.00  0.00    -0.153 SA
BRANCH   7   8
ATOM      8  C12 <0> d          -2.211   1.795  10.999  0.00  0.00     0.177 C 
BRANCH   8   9
ATOM      9  C13 <0> d          -3.623   1.916  11.511  0.00  0.00     0.227 C 
ATOM     10  O2  <0> d          -4.558   1.752  10.755  0.00  0.00    -0.273 OA
ATOM     11  N4  <0> d          -3.848   2.206  12.807  0.00  0.00    -0.358 N 
ATOM     12  H14 <0> d          -3.000   2.355  13.493  0.00  0.00     0.162 HD
BRANCH  11  13
ATOM     13  C14 <0> d          -5.221   2.324  13.305  0.00  0.00     0.154 C 
BRANCH  13  14
ATOM     14  C15 <0> d          -5.196   2.657  14.798  0.00  0.00     0.139 C 
ATOM     15  O3  <0> d          -4.562   1.591  15.526  0.00  0.00    -0.384 OA
ATOM     16  C18 <0> d          -5.224   1.504  16.806  0.00  0.00     0.168 C 
ATOM     17  C17 <0> d          -6.718   1.722  16.456  0.00  0.00     0.029 C 
ATOM     18  C16 <0> d          -6.636   2.783  15.331  0.00  0.00     0.035 C 
ENDBRANCH  13  14
ENDBRANCH  11  13
ENDBRANCH   8   9
ENDBRANCH   7   8
ENDBRANCH   6   7
ENDBRANCH   4   6
BRANCH   1  19
ATOM     19  C8  <0> d          -0.056  -0.695   3.577  0.00  0.00     0.283 C 
ATOM     20  N1  <0> d           0.025  -0.015   2.416  0.00  0.00    -0.321 N 
ATOM     21  H9  <0> d           0.085   1.083   2.425  0.00  0.00     0.169 HD
ATOM     22  O1  <0> d          -0.040  -1.911   3.572  0.00  0.00    -0.265 OA
BRANCH  20  23
ATOM     23  C7  <0> d           0.033  -0.706   1.201  0.00  0.00     0.041 A 
ATOM     24  C2  <0> d          -0.580  -0.156   0.083  0.00  0.00    -0.035 A 
ATOM     25  C1  <0> d          -1.257   1.188   0.179  0.00  0.00     0.050 C 
ATOM     26  C3  <0> d          -0.575  -0.843  -1.115  0.00  0.00     0.009 A 
ATOM     27  C4  <0> d           0.049  -2.074  -1.204  0.00  0.00     0.001 A 
ATOM     28  C5  <0> d           0.661  -2.625  -0.094  0.00  0.00     0.002 A 
ATOM     29  C6  <0> d           0.655  -1.945   1.108  0.00  0.00     0.030 A 
ENDBRANCH  20  23
ENDBRANCH   1  19
TORSDOF 8
