REMARK  3 active torsions:
REMARK  status: ('A' for Active; 'I' for Inactive)
REMARK    1  A    between atoms: C6_6  and  S1_7 
REMARK    2  A    between atoms: S1_7  and  N1_10 
REMARK    3  A    between atoms: N1_10  and  C7_11 
ROOT
ATOM      1  C1  <0> d           0.451   1.127   0.016  0.00  0.00     0.037 A 
ATOM      2  C2  <0> d           1.720   1.658  -0.047  0.00  0.00    -0.021 A 
ATOM      3  C3  <0> d           2.827   0.837  -0.214  0.00  0.00     0.043 A 
ATOM      4  C4  <0> d           2.637  -0.540  -0.318  0.00  0.00     0.055 A 
ATOM      5  C5  <0> d           1.363  -1.070  -0.255  0.00  0.00     0.059 A 
ATOM      6  C6  <0> d           0.268  -0.240  -0.086  0.00  0.00     0.101 A 
ATOM      7 Cl1  <0> d           1.135  -2.786  -0.386  0.00  0.00    -0.083 Cl
ATOM      8  N3  <0> d           3.994   1.601  -0.248  0.00  0.00    -0.326 N 
ATOM      9  C11 <0> d           3.746   2.914  -0.112  0.00  0.00     0.226 A 
ATOM     10  O3  <0> d           4.568   3.806  -0.105  0.00  0.00    -0.273 OA
ATOM     11  C12 <0> d           2.247   3.072   0.031  0.00  0.00     0.144 A 
ATOM     12  H12 <0> d           4.882   1.227  -0.356  0.00  0.00     0.169 HD
ENDROOT
BRANCH   6  13
ATOM     13  S1  <0> d          -1.354  -0.924  -0.005  0.00  0.00     0.260 S 
ATOM     14  O1  <0> d          -1.301  -1.984   0.939  0.00  0.00    -0.200 OA
ATOM     15  O2  <0> d          -2.250   0.171   0.128  0.00  0.00    -0.200 OA
BRANCH  13  16
ATOM     16  N1  <0> d          -1.667  -1.616  -1.477  0.00  0.00    -0.309 N 
ATOM     17  H4  <0> d          -1.817  -2.572  -1.541  0.00  0.00     0.172 HD
BRANCH  16  18
ATOM     18  C7  <0> d          -1.719  -0.784  -2.682  0.00  0.00     0.120 C 
ATOM     19  C10 <0> d          -1.163  -1.559  -3.891  0.00  0.00     0.257 C 
ATOM     20  N2  <0> d          -2.270  -1.690  -4.866  0.00  0.00    -0.073 N 
ATOM     21  C9  <0> d          -3.186  -0.553  -4.594  0.00  0.00     0.234 C 
ATOM     22  H9  <0> d          -2.752  -2.565  -4.731  0.00  0.00     0.277 HD
ATOM     23  H15 <0> d          -1.912  -1.630  -5.808  0.00  0.00     0.277 HD
ATOM     24  C8  <0> d          -3.186  -0.460  -3.047  0.00  0.00     0.055 C 
ENDBRANCH  16  18
ENDBRANCH  13  16
ENDBRANCH   6  13
TORSDOF 3
