REMARK  5 active torsions:
REMARK  status: ('A' for Active; 'I' for Inactive)
REMARK    1  A    between atoms: N1_2  and  C2_3 
REMARK       I    between atoms: N1_2  and  C11_16 
REMARK    2  A    between atoms: C2_3  and  C3_4 
REMARK    3  A    between atoms: C11_16  and  C12_18 
REMARK    4  A    between atoms: C12_18  and  N4_19 
REMARK       I    between atoms: N4_19  and  C13_20 
REMARK    5  A    between atoms: C13_20  and  C14_22 
ROOT
ATOM      1  C1  <0> d           0.154   1.470   0.003  0.00  0.00     0.153 C 
ATOM      2  N1  <0> d           0.284   0.011  -0.010  0.00  0.00    -0.348 N 
ATOM      3  C11 <0> d           0.258  -0.658  -1.180  0.00  0.00     0.237 C 
ATOM      4  O2  <0> d           0.366  -1.866  -1.190  0.00  0.00    -0.272 OA
ENDROOT
BRANCH   3   5
ATOM      5  C12 <0> d           0.094   0.095  -2.475  0.00  0.00     0.225 C 
BRANCH   5   6
ATOM      6  N4  <0> d           0.096  -0.851  -3.593  0.00  0.00    -0.351 N 
ATOM      7  C13 <0> d          -0.039  -0.401  -4.856  0.00  0.00     0.234 C 
ATOM      8  O3  <0> d          -0.161   0.787  -5.067  0.00  0.00    -0.272 OA
ATOM      9  H15 <0> d           0.194  -1.801  -3.425  0.00  0.00     0.163 HD
BRANCH   7  10
ATOM     10  C14 <0> d          -0.036  -1.374  -6.007  0.00  0.00     0.167 C 
ATOM     11  S1  <0> d           0.846  -2.929  -5.570  0.00  0.00    -0.113 SA
ATOM     12  C21 <0> d          -0.241  -4.090  -6.370  0.00  0.00     0.009 A 
ATOM     13  C16 <0> d          -1.401  -3.390  -6.692  0.00  0.00    -0.021 A 
ATOM     14  C20 <0> d          -0.083  -5.427  -6.684  0.00  0.00     0.019 A 
ATOM     15  C15 <0> d          -1.449  -1.943  -6.267  0.00  0.00     0.139 C 
ATOM     16  C17 <0> d          -2.399  -4.092  -7.372  0.00  0.00     0.010 A 
ATOM     17 Cl1  <0> d          -2.423  -1.811  -4.755  0.00  0.00    -0.118 Cl
ATOM     18  C18 <0> d          -2.242  -5.422  -7.693  0.00  0.00     0.001 A 
ATOM     19  C19 <0> d          -1.088  -6.102  -7.350  0.00  0.00     0.001 A 
ENDBRANCH   7  10
ENDBRANCH   5   6
ENDBRANCH   3   5
BRANCH   2  20
ATOM     20  C2  <0> d           0.444  -0.722   1.249  0.00  0.00     0.203 C 
BRANCH  20  21
ATOM     21  C3  <0> d          -0.912  -1.100   1.786  0.00  0.00     0.125 A 
ATOM     22  N3  <0> d          -1.963  -0.750   1.107  0.00  0.00    -0.233 NA
ATOM     23  C10 <0> d          -3.215  -1.061   1.525  0.00  0.00     0.074 A 
ATOM     24  C5  <0> d          -3.377  -1.772   2.734  0.00  0.00     0.061 A 
ATOM     25  C9  <0> d          -4.345  -0.691   0.792  0.00  0.00     0.032 A 
ATOM     26  C4  <0> d          -2.168  -2.148   3.482  0.00  0.00     0.259 A 
ATOM     27  C6  <0> d          -4.654  -2.098   3.187  0.00  0.00     0.019 A 
ATOM     28  N2  <0> d          -0.974  -1.785   2.957  0.00  0.00    -0.309 N 
ATOM     29  O1  <0> d          -2.238  -2.761   4.531  0.00  0.00    -0.267 OA
ATOM     30  H1  <0> d          -0.155  -2.016   3.423  0.00  0.00     0.170 HD
ATOM     31  C7  <0> d          -5.753  -1.721   2.447  0.00  0.00     0.001 A 
ATOM     32  C8  <0> d          -5.598  -1.022   1.257  0.00  0.00     0.002 A 
ENDBRANCH  20  21
ENDBRANCH   2  20
TORSDOF 5
