REMARK  4 active torsions:
REMARK  status: ('A' for Active; 'I' for Inactive)
REMARK    1  A    between atoms: C5_5  and  N1_9 
REMARK       I    between atoms: N1_9  and  C8_10 
REMARK    2  A    between atoms: C8_10  and  C9_12 
REMARK    3  A    between atoms: C9_12  and  C10_13 
REMARK    4  A    between atoms: C10_13  and  N2_14 
ROOT
ATOM      1  C9  <0> d           1.280   1.979   0.018  0.00  0.00     0.123 C 
ENDROOT
BRANCH   1   2
ATOM      2  C8  <0> d          -0.015   1.208   0.015  0.00  0.00     0.223 C 
ATOM      3  N1  <0> d          -1.191   1.867   0.018  0.00  0.00    -0.326 N 
ATOM      4  H7  <0> d          -1.205   2.834   0.092  0.00  0.00     0.169 HD
ATOM      5  O1  <0> d           0.001  -0.004   0.004  0.00  0.00    -0.273 OA
BRANCH   3   6
ATOM      6  C5  <0> d          -2.391   1.155  -0.086  0.00  0.00     0.052 A 
ATOM      7  C4  <0> d          -2.510  -0.099   0.499  0.00  0.00     0.031 A 
ATOM      8  C3  <0> d          -3.696  -0.798   0.395  0.00  0.00     0.009 A 
ATOM      9  C2  <0> d          -4.766  -0.252  -0.291  0.00  0.00    -0.061 A 
ATOM     10  C1  <0> d          -6.058  -1.019  -0.402  0.00  0.00     0.048 C 
ATOM     11  C7  <0> d          -4.652   0.996  -0.874  0.00  0.00     0.028 A 
ATOM     12  C6  <0> d          -3.469   1.704  -0.770  0.00  0.00     0.038 A 
ATOM     13 Br1  <0> d          -3.316   3.414  -1.562  0.00  0.00    -0.049 Br
ENDBRANCH   3   6
ENDBRANCH   1   2
BRANCH   1  14
ATOM     14  C10 <0> d           2.456   1.000   0.007  0.00  0.00     0.142 C 
BRANCH  14  15
ATOM     15  N2  <0> d           3.715   1.749   0.010  0.00  0.00    -0.307 N 
ATOM     16  C14 <0> d           4.298   2.084   1.185  0.00  0.00     0.264 A 
ATOM     17  C13 <0> d           5.553   2.832   1.128  0.00  0.00     0.099 A 
ATOM     18  O2  <0> d           3.794   1.774   2.251  0.00  0.00    -0.267 OA
ATOM     19  C12 <0> d           6.074   3.155  -0.135  0.00  0.00     0.164 A 
ATOM     20  C15 <0> d           6.440   3.350   2.091  0.00  0.00     0.160 A 
ATOM     21  N3  <0> d           5.409   2.769  -1.235  0.00  0.00    -0.224 NA
ATOM     22  N5  <0> d           7.227   3.839   0.085  0.00  0.00    -0.256 N 
ATOM     23  C11 <0> d           4.296   2.100  -1.165  0.00  0.00     0.214 A 
ATOM     24  N4  <0> d           7.422   3.941   1.468  0.00  0.00    -0.182 NA
ATOM     25  C16 <0> d           8.115   4.378  -0.949  0.00  0.00     0.182 C 
ENDBRANCH  14  15
ENDBRANCH   1  14
TORSDOF 4
