REMARK  5 active torsions:
REMARK  status: ('A' for Active; 'I' for Inactive)
REMARK    1  A    between atoms: C2_2  and  S1_7 
REMARK    2  A    between atoms: S1_7  and  N3_10 
REMARK    3  A    between atoms: N3_10  and  C4_11 
REMARK    4  A    between atoms: N3_10  and  C9_17 
REMARK    5  A    between atoms: C4_11  and  C5_12 
ROOT
ATOM      1  N3  <0> d           1.941   3.983   1.606  0.00  0.00    -0.299 N 
ENDROOT
BRANCH   1   2
ATOM      2  S1  <0> d           1.573   3.291   0.147  0.00  0.00     0.264 S 
ATOM      3  O1  <0> d           2.810   2.974  -0.476  0.00  0.00    -0.200 OA
ATOM      4  O2  <0> d           0.603   4.129  -0.467  0.00  0.00    -0.200 OA
BRANCH   2   5
ATOM      5  C2  <0> d           0.772   1.758   0.486  0.00  0.00     0.115 A 
ATOM      6  C1  <0> d          -0.560   1.573   0.643  0.00  0.00     0.136 A 
ATOM      7  N2  <0> d          -0.767   0.263   0.887  0.00  0.00    -0.288 N 
ATOM      8  N1  <0> d           0.478  -0.380   0.880  0.00  0.00    -0.186 NA
ATOM      9  H1  <0> d          -1.626  -0.161   1.040  0.00  0.00     0.188 HD
ATOM     10  C3  <0> d           1.399   0.518   0.639  0.00  0.00     0.165 A 
ENDBRANCH   2   5
ENDBRANCH   1   2
BRANCH   1  11
ATOM     11  C4  <0> d           3.281   3.820   2.176  0.00  0.00     0.167 C 
BRANCH  11  12
ATOM     12  C5  <0> d           4.297   4.573   1.316  0.00  0.00     0.140 C 
ATOM     13  O3  <0> d           3.947   5.960   1.253  0.00  0.00    -0.384 OA
ATOM     14  C8  <0> d           4.995   6.755   1.836  0.00  0.00     0.168 C 
ATOM     15  C7  <0> d           6.276   5.893   1.709  0.00  0.00     0.029 C 
ATOM     16  C6  <0> d           5.700   4.472   1.952  0.00  0.00     0.036 C 
ENDBRANCH  11  12
ENDBRANCH   1  11
BRANCH   1  17
ATOM     17  C9  <0> d           0.928   4.759   2.325  0.00  0.00     0.106 C 
ATOM     18  C12 <0> d           0.561   4.010   3.621  0.00  0.00     0.100 C 
ATOM     19  S2  <0> d           0.826   5.272   4.931  0.00  0.00    -0.167 SA
ATOM     20  C11 <0> d           0.836   6.772   3.854  0.00  0.00     0.076 C 
ATOM     21  C10 <0> d           1.472   6.165   2.571  0.00  0.00     0.037 C 
ENDBRANCH   1  17
TORSDOF 5
