REMARK  7 active torsions:
REMARK  status: ('A' for Active; 'I' for Inactive)
REMARK    1  A    between atoms: C2_2  and  O1_3 
REMARK    2  A    between atoms: O1_3  and  C3_4 
REMARK    3  A    between atoms: C6_7  and  N1_10 
REMARK    4  A    between atoms: N1_10  and  C9_11 
REMARK    5  A    between atoms: N2_13  and  C10_14 
REMARK    6  A    between atoms: C13_17  and  S2_20 
REMARK    7  A    between atoms: S2_20  and  N3_23 
ROOT
ATOM      1  C10 <0> d           2.498  -0.176   5.259  0.00  0.00     0.034 A 
ATOM      2  C11 <0> d           1.217   0.303   5.500  0.00  0.00     0.031 A 
ATOM      3  C12 <0> d           0.217   0.094   4.570  0.00  0.00     0.027 A 
ATOM      4  C13 <0> d           0.491  -0.592   3.401  0.00  0.00     0.079 A 
ATOM      5  C14 <0> d           1.764  -1.075   3.161  0.00  0.00     0.027 A 
ATOM      6  C15 <0> d           2.770  -0.864   4.084  0.00  0.00     0.031 A 
ENDROOT
BRANCH   1   7
ATOM      7  N2  <0> d           3.513   0.034   6.199  0.00  0.00    -0.333 N 
ATOM      8  C9  <0> d           3.251  -0.097   7.514  0.00  0.00     0.176 C 
ATOM      9  S1  <0> d           1.718  -0.659   8.030  0.00  0.00    -0.041 SA
ATOM     10  H11 <0> d           4.525   0.307   5.864  0.00  0.00     0.168 HD
BRANCH   8  11
ATOM     11  N1  <0> d           4.196   0.214   8.424  0.00  0.00    -0.333 N 
ATOM     12  H10 <0> d           5.146   0.664   8.099  0.00  0.00     0.168 HD
BRANCH  11  13
ATOM     13  C6  <0> d           3.969  -0.036   9.783  0.00  0.00     0.034 A 
ATOM     14  C5  <0> d           3.361  -1.220  10.180  0.00  0.00     0.032 A 
ATOM     15  C4  <0> d           3.138  -1.466  11.520  0.00  0.00     0.039 A 
ATOM     16  C3  <0> d           3.520  -0.531  12.470  0.00  0.00     0.068 A 
ATOM     17  C8  <0> d           4.127   0.652  12.075  0.00  0.00     0.039 A 
ATOM     18  C7  <0> d           4.356   0.897  10.736  0.00  0.00     0.032 A 
BRANCH  16  19
ATOM     19  O1  <0> d           3.299  -0.773  13.790  0.00  0.00    -0.352 OA
BRANCH  19  20
ATOM     20  C2  <0> d           3.719   0.233  14.714  0.00  0.00     0.171 C 
ATOM     21  C1  <0> d           3.390  -0.214  16.140  0.00  0.00     0.034 C 
ENDBRANCH  19  20
ENDBRANCH  16  19
ENDBRANCH  11  13
ENDBRANCH   8  11
ENDBRANCH   1   7
BRANCH   4  22
ATOM     22  S2  <0> d          -0.788  -0.858   2.218  0.00  0.00     0.260 S 
ATOM     23  O2  <0> d          -2.018  -0.788   2.927  0.00  0.00    -0.200 OA
ATOM     24  O3  <0> d          -0.409  -1.998   1.460  0.00  0.00    -0.200 OA
BRANCH  22  25
ATOM     25  N3  <0> d          -0.768   0.431   1.178  0.00  0.00    -0.304 N 
ATOM     26  C19 <0> d          -1.578   1.630   1.444  0.00  0.00     0.163 C 
ATOM     27  C18 <0> d          -2.393   1.959   0.189  0.00  0.00     0.255 C 
ATOM     28  N4  <0> d          -1.490   2.062  -0.965  0.00  0.00    -0.072 N 
ATOM     29  C17 <0> d          -0.823   0.782  -1.236  0.00  0.00     0.255 C 
ATOM     30  C20 <0> d          -2.207   2.545  -2.153  0.00  0.00     0.269 C 
ATOM     31  H27 <0> d          -0.712   2.799  -0.716  0.00  0.00     0.279 HD
ATOM     32  C16 <0> d           0.057   0.405  -0.040  0.00  0.00     0.163 C 
ENDBRANCH  22  25
ENDBRANCH   4  22
TORSDOF 7
