REMARK  8 active torsions:
REMARK  status: ('A' for Active; 'I' for Inactive)
REMARK    1  A    between atoms: C2_2  and  C4_4 
REMARK    2  A    between atoms: C4_4  and  N1_5 
REMARK    3  A    between atoms: N1_5  and  C5_6 
REMARK    4  A    between atoms: N1_5  and  C9_10 
REMARK    5  A    between atoms: C5_6  and  C6_7 
REMARK    6  A    between atoms: C9_10  and  C10_11 
REMARK       I    between atoms: C10_11  and  N2_13 
REMARK    7  A    between atoms: N2_13  and  C11_14 
REMARK    8  A    between atoms: C14_17  and  N3_21 
ROOT
ATOM      1  C10 <0> d          -4.527   0.666  -0.714  0.00  0.00     0.248 C 
ATOM      2  O1  <0> d          -3.977   1.441   0.040  0.00  0.00    -0.271 OA
ATOM      3  N2  <0> d          -5.872   0.579  -0.728  0.00  0.00    -0.325 N 
ATOM      4  H21 <0> d          -6.309  -0.085  -1.283  0.00  0.00     0.169 HD
ENDROOT
BRANCH   1   5
ATOM      5  C9  <0> d          -3.706  -0.201  -1.634  0.00  0.00     0.337 C 
BRANCH   5   6
ATOM      6  N1  <0> d          -2.279   0.081  -1.428  0.00  0.00    -0.062 N 
ATOM      7  H27 <0> d          -2.110   1.068  -1.548  0.00  0.00     0.280 HD
BRANCH   6   8
ATOM      8  C4  <0> d          -1.892  -0.321  -0.069  0.00  0.00     0.239 C 
BRANCH   8   9
ATOM      9  C2  <0> d          -0.444   0.099   0.194  0.00  0.00     0.003 C 
ATOM     10  C1  <0> d          -0.332   1.622   0.111  0.00  0.00     0.011 C 
ATOM     11  C3  <0> d          -0.023  -0.369   1.588  0.00  0.00     0.011 C 
ENDBRANCH   8   9
ENDBRANCH   6   8
BRANCH   6  12
ATOM     12  C5  <0> d          -1.485  -0.674  -2.407  0.00  0.00     0.239 C 
BRANCH  12  13
ATOM     13  C6  <0> d          -1.795  -0.166  -3.816  0.00  0.00     0.003 C 
ATOM     14  C7  <0> d          -1.386   1.304  -3.929  0.00  0.00     0.011 C 
ATOM     15  C8  <0> d          -1.014  -0.993  -4.839  0.00  0.00     0.011 C 
ENDBRANCH  12  13
ENDBRANCH   6  12
ENDBRANCH   5   6
ENDBRANCH   1   5
BRANCH   3  16
ATOM     16  C11 <0> d          -6.639   1.448   0.060  0.00  0.00     0.052 A 
ATOM     17  C16 <0> d          -7.842   1.015   0.603  0.00  0.00     0.040 A 
ATOM     18  C15 <0> d          -8.595   1.870   1.384  0.00  0.00     0.050 A 
ATOM     19 Br1  <0> d          -8.446  -0.748   0.278  0.00  0.00    -0.049 Br
ATOM     20  C14 <0> d          -8.154   3.166   1.618  0.00  0.00     0.027 A 
ATOM     21  C13 <0> d          -6.953   3.600   1.070  0.00  0.00     0.031 A 
ATOM     22  C12 <0> d          -6.198   2.744   0.294  0.00  0.00     0.033 A 
BRANCH  20  23
ATOM     23  N3  <0> d          -8.918   4.034   2.405  0.00  0.00    -0.399 N 
ATOM     24  H25 <0> d          -8.610   4.939   2.568  0.00  0.00     0.156 HD
ATOM     25  H26 <0> d          -9.757   3.730   2.787  0.00  0.00     0.156 HD
ENDBRANCH  20  23
ENDBRANCH   3  16
TORSDOF 8
