REMARK  2 active torsions:
REMARK  status: ('A' for Active; 'I' for Inactive)
REMARK    1  A    between atoms: C4_4  and  N2_8 
REMARK    2  A    between atoms: C5_5  and  N1_7 
ROOT
ATOM      1  N2  <0> d           3.637  -0.642  -0.036  0.00  0.00    -0.250 N 
ATOM      2  C7  <0> d           4.189  -0.941  -1.221  0.00  0.00     0.232 C 
ATOM      3  O1  <0> d           3.626  -0.607  -2.241  0.00  0.00    -0.273 OA
ATOM      4  C8  <0> d           5.497  -1.684  -1.309  0.00  0.00     0.113 C 
ATOM      5  C9  <0> d           6.330  -1.384  -0.064  0.00  0.00    -0.024 C 
ATOM      6  C10 <0> d           6.753   0.091  -0.054  0.00  0.00     0.010 C 
ATOM      7  C11 <0> d           8.297   0.104  -0.063  0.00  0.00     0.001 C 
ATOM      8  C12 <0> d           8.684  -1.265  -0.678  0.00  0.00     0.001 C 
ATOM      9  C13 <0> d           7.621  -2.222  -0.082  0.00  0.00     0.010 C 
ATOM     10  C14 <0> d           5.517  -1.707   1.188  0.00  0.00     0.113 C 
ATOM     11  C15 <0> d           4.210  -0.959   1.134  0.00  0.00     0.232 C 
ATOM     12  O2  <0> d           3.664  -0.640   2.169  0.00  0.00    -0.273 OA
ENDROOT
BRANCH   1  13
ATOM     13  C4  <0> d           2.408   0.037  -0.021  0.00  0.00     0.071 A 
ATOM     14  C3  <0> d           2.380   1.423  -0.013  0.00  0.00     0.032 A 
ATOM     15  C2  <0> d           1.169   2.089   0.002  0.00  0.00     0.002 A 
ATOM     16  C1  <0> d          -0.017   1.378   0.010  0.00  0.00     0.002 A 
ATOM     17  C6  <0> d           0.002  -0.004   0.002  0.00  0.00     0.031 A 
ATOM     18  C5  <0> d           1.213  -0.681  -0.013  0.00  0.00     0.053 A 
BRANCH  18  19
ATOM     19  N1  <0> d           1.235  -2.079  -0.021  0.00  0.00    -0.397 N 
ATOM     20  H5  <0> d           2.082  -2.551  -0.032  0.00  0.00     0.156 HD
ATOM     21  H6  <0> d           0.402  -2.577  -0.016  0.00  0.00     0.156 HD
ENDBRANCH  18  19
ENDBRANCH   1  13
TORSDOF 2
