REMARK  4 active torsions:
REMARK  status: ('A' for Active; 'I' for Inactive)
REMARK    1  A    between atoms: C2_2  and  C3_3 
REMARK    2  A    between atoms: C2_2  and  N1_10 
REMARK       I    between atoms: N1_10  and  C10_12 
REMARK    3  A    between atoms: C10_12  and  C11_14 
REMARK    4  A    between atoms: C14_18  and  N3_20 
ROOT
ATOM      1  N1  <0> d          -1.382  -0.502   0.324  0.00  0.00    -0.344 N 
ATOM      2  C9  <0> d          -2.239  -0.036   1.417  0.00  0.00     0.154 C 
ATOM      3  C10 <0> d          -1.828  -1.450  -0.524  0.00  0.00     0.254 C 
ATOM      4  O1  <0> d          -1.150  -1.781  -1.477  0.00  0.00    -0.267 OA
ENDROOT
BRANCH   1   5
ATOM      5  C2  <0> d          -0.041   0.061   0.153  0.00  0.00     0.118 C 
ATOM      6  C1  <0> d          -0.141   1.580  -0.000  0.00  0.00     0.037 C 
BRANCH   5   7
ATOM      7  C3  <0> d           0.800  -0.268   1.359  0.00  0.00    -0.014 A 
ATOM      8  C8  <0> d           1.306  -1.545   1.523  0.00  0.00     0.042 A 
ATOM      9  C7  <0> d           2.082  -1.844   2.628  0.00  0.00     0.024 A 
ATOM     10 Cl1  <0> d           0.973  -2.769   0.338  0.00  0.00    -0.084 Cl
ATOM     11  C6  <0> d           2.343  -0.871   3.574  0.00  0.00     0.002 A 
ATOM     12  C5  <0> d           1.832   0.404   3.413  0.00  0.00     0.001 A 
ATOM     13  C4  <0> d           1.061   0.705   2.306  0.00  0.00     0.011 A 
ENDBRANCH   5   7
ENDBRANCH   1   5
BRANCH   3  14
ATOM     14  C11 <0> d          -3.146  -2.088  -0.296  0.00  0.00     0.037 A 
ATOM     15  C15 <0> d          -3.345  -3.440  -0.575  0.00  0.00     0.067 A 
ATOM     16  C14 <0> d          -4.596  -3.999  -0.340  0.00  0.00     0.123 A 
ATOM     17  N2  <0> d          -5.588  -3.261   0.131  0.00  0.00    -0.244 NA
ATOM     18  C13 <0> d          -5.437  -1.979   0.402  0.00  0.00     0.120 A 
ATOM     19  C12 <0> d          -4.226  -1.349   0.202  0.00  0.00     0.036 A 
BRANCH  16  20
ATOM     20  N3  <0> d          -4.809  -5.347  -0.608  0.00  0.00    -0.379 N 
ATOM     21  C16 <0> d          -3.717  -6.171  -1.129  0.00  0.00     0.147 C 
ATOM     22  H15 <0> d          -5.681  -5.741  -0.449  0.00  0.00     0.160 HD
ENDBRANCH  16  20
ENDBRANCH   3  14
TORSDOF 4
