REMARK  4 active torsions:
REMARK  status: ('A' for Active; 'I' for Inactive)
REMARK    1  A    between atoms: C2_2  and  C3_3 
REMARK    2  A    between atoms: C8_8  and  N1_9 
REMARK       I    between atoms: N1_9  and  C9_10 
REMARK    3  A    between atoms: C9_10  and  C10_12 
REMARK    4  A    between atoms: C12_14  and  C13_18 
ROOT
ATOM      1  C10 <0> d          -1.465  -0.278  -4.838  0.00  0.00     0.147 A 
ATOM      2  C11 <0> d          -2.010  -0.461  -6.127  0.00  0.00     0.071 A 
ATOM      3  C12 <0> d          -1.021  -0.091  -6.996  0.00  0.00     0.062 A 
ATOM      4  N2  <0> d           0.047   0.289  -6.238  0.00  0.00    -0.277 N 
ATOM      5  H1  <0> d           0.895   0.602  -6.589  0.00  0.00     0.189 HD
ATOM      6  N3  <0> d          -0.237   0.177  -4.990  0.00  0.00    -0.169 NA
ENDROOT
BRANCH   1   7
ATOM      7  C9  <0> d          -2.148  -0.541  -3.554  0.00  0.00     0.276 C 
ATOM      8  N1  <0> d          -1.506  -0.315  -2.391  0.00  0.00    -0.321 N 
ATOM      9  H11 <0> d          -0.621   0.082  -2.394  0.00  0.00     0.169 HD
ATOM     10  O1  <0> d          -3.288  -0.962  -3.547  0.00  0.00    -0.266 OA
BRANCH   8  11
ATOM     11  C8  <0> d          -2.116  -0.652  -1.179  0.00  0.00     0.041 A 
ATOM     12  C3  <0> d          -1.349  -1.120  -0.120  0.00  0.00    -0.032 A 
ATOM     13  C4  <0> d          -1.954  -1.447   1.078  0.00  0.00     0.009 A 
ATOM     14  C5  <0> d          -3.322  -1.314   1.222  0.00  0.00     0.001 A 
ATOM     15  C6  <0> d          -4.090  -0.853   0.168  0.00  0.00     0.002 A 
ATOM     16  C7  <0> d          -3.491  -0.525  -1.032  0.00  0.00     0.030 A 
BRANCH  12  17
ATOM     17  C2  <0> d           0.143  -1.266  -0.276  0.00  0.00     0.036 C 
ATOM     18  C1  <0> d           0.820   0.074   0.018  0.00  0.00     0.010 C 
ENDBRANCH  12  17
ENDBRANCH   8  11
ENDBRANCH   1   7
BRANCH   3  19
ATOM     19  C13 <0> d          -1.095  -0.101  -8.474  0.00  0.00    -0.008 A 
ATOM     20  C18 <0> d           0.001   0.307  -9.233  0.00  0.00     0.015 A 
ATOM     21  C17 <0> d          -0.071   0.289 -10.610  0.00  0.00     0.020 A 
ATOM     22  C16 <0> d          -1.234  -0.121 -11.239  0.00  0.00     0.011 A 
ATOM     23  C15 <0> d          -2.328  -0.521 -10.491  0.00  0.00     0.020 A 
ATOM     24 Br1  <0> d          -1.329  -0.136 -13.128  0.00  0.00    -0.051 Br
ATOM     25  C14 <0> d          -2.265  -0.514  -9.113  0.00  0.00     0.015 A 
ENDBRANCH   3  19
TORSDOF 4
