REMARK  6 active torsions:
REMARK  status: ('A' for Active; 'I' for Inactive)
REMARK    1  A    between atoms: S1_2  and  N1_5 
REMARK    2  A    between atoms: N1_5  and  C2_6 
REMARK    3  A    between atoms: C2_6  and  C3_7 
REMARK    4  A    between atoms: C5_9  and  C9_14 
REMARK    5  A    between atoms: C10_15  and  C11_16 
REMARK    6  A    between atoms: C11_16  and  O3_17 
ROOT
ATOM      1  C3  <0> d           2.784  -0.842  -2.716  0.00  0.00     0.000 A 
ATOM      2  C4  <0> d           3.030  -0.213  -3.919  0.00  0.00     0.032 A 
ATOM      3  C5  <0> d           3.564  -0.936  -4.985  0.00  0.00     0.018 A 
ATOM      4  C6  <0> d           3.846  -2.294  -4.829  0.00  0.00     0.024 A 
ATOM      5  C7  <0> d           3.597  -2.913  -3.622  0.00  0.00     0.044 A 
ATOM      6  C8  <0> d           3.071  -2.189  -2.564  0.00  0.00     0.124 A 
ATOM      7  F1  <0> d           2.833  -2.799  -1.383  0.00  0.00    -0.205 F 
ENDROOT
BRANCH   1   8
ATOM      8  C2  <0> d           2.207  -0.061  -1.563  0.00  0.00     0.173 C 
BRANCH   8   9
ATOM      9  N1  <0> d           0.795  -0.411  -1.394  0.00  0.00    -0.316 N 
ATOM     10  H4  <0> d           0.324  -0.881  -2.099  0.00  0.00     0.172 HD
BRANCH   9  11
ATOM     11  S1  <0> d           0.002  -0.004   0.002  0.00  0.00     0.223 S 
ATOM     12  C1  <0> d          -0.022   1.810   0.012  0.00  0.00     0.185 C 
ATOM     13  O1  <0> d           0.835  -0.488   1.046  0.00  0.00    -0.206 OA
ATOM     14  O2  <0> d          -1.315  -0.510  -0.168  0.00  0.00    -0.206 OA
ENDBRANCH   9  11
ENDBRANCH   8   9
ENDBRANCH   1   8
BRANCH   3  15
ATOM     15  C9  <0> d           3.821  -0.289  -6.236  0.00  0.00    -0.065 C 
ATOM     16  C10 <0> d           4.032   0.243  -7.262  0.00  0.00    -0.075 C 
BRANCH  16  17
ATOM     17  C11 <0> d           4.296   0.909  -8.547  0.00  0.00     0.258 C 
BRANCH  17  18
ATOM     18  O3  <0> d           4.837  -0.037  -9.472  0.00  0.00    -0.389 OA
ATOM     19  H12 <0> d           5.036   0.333 -10.342  0.00  0.00     0.210 HD
ENDBRANCH  17  18
ENDBRANCH  16  17
ENDBRANCH   3  15
TORSDOF 6
