REMARK  7 active torsions:
REMARK  status: ('A' for Active; 'I' for Inactive)
REMARK    1  A    between atoms: C2_2  and  O1_3 
REMARK    2  A    between atoms: O1_3  and  C3_4 
REMARK    3  A    between atoms: C3_4  and  C4_5 
REMARK    4  A    between atoms: C4_5  and  C5_6 
REMARK    5  A    between atoms: C5_6  and  N1_7 
REMARK       I    between atoms: N1_7  and  C6_8 
REMARK    6  A    between atoms: C6_8  and  C7_10 
REMARK       I    between atoms: N2_13  and  C12_16 
REMARK       I    between atoms: C12_16  and  N3_18 
REMARK    7  A    between atoms: N3_18  and  C13_19 
ROOT
ATOM      1  C7  <0> d           3.170  -5.816  -5.501  0.00  0.00     0.081 C 
ATOM      2  C8  <0> d           2.413  -5.252  -6.705  0.00  0.00     0.034 C 
ATOM      3  C9  <0> d           3.168  -5.606  -7.990  0.00  0.00     0.128 C 
ATOM      4  N2  <0> d           3.372  -7.060  -8.033  0.00  0.00    -0.334 N 
ATOM      5  C10 <0> d           4.010  -7.718  -6.885  0.00  0.00     0.128 C 
ATOM      6  C11 <0> d           3.245  -7.340  -5.613  0.00  0.00     0.034 C 
ATOM      7  C12 <0> d           2.981  -7.777  -9.105  0.00  0.00     0.318 C 
ATOM      8  O3  <0> d           2.369  -7.238 -10.007  0.00  0.00    -0.247 OA
ATOM      9  N3  <0> d           3.268  -9.092  -9.178  0.00  0.00    -0.334 N 
ATOM     10  H23 <0> d           3.691  -9.538  -8.428  0.00  0.00     0.165 HD
ENDROOT
BRANCH   9  11
ATOM     11  C13 <0> d           2.941  -9.847 -10.390  0.00  0.00     0.123 C 
ATOM     12  C18 <0> d           4.060  -9.709 -11.392  0.00  0.00     0.008 A 
ATOM     13  C17 <0> d           4.561 -10.741 -12.119  0.00  0.00     0.040 A 
ATOM     14  C19 <0> d           4.757  -8.556 -11.743  0.00  0.00     0.150 A 
ATOM     15  C16 <0> d           4.064 -12.162 -12.027  0.00  0.00     0.059 C 
ATOM     16  N5  <0> d           5.541 -10.256 -12.899  0.00  0.00    -0.278 N 
ATOM     17  C15 <0> d           2.695 -12.152 -11.336  0.00  0.00     0.008 C 
ATOM     18  C14 <0> d           2.780 -11.333 -10.045  0.00  0.00     0.030 C 
ATOM     19  N4  <0> d           5.647  -8.878 -12.649  0.00  0.00    -0.184 NA
ATOM     20  C20 <0> d           6.354 -11.027 -13.844  0.00  0.00     0.179 C 
ENDBRANCH   9  11
BRANCH   1  21
ATOM     21  C6  <0> d           2.448  -5.440  -4.233  0.00  0.00     0.221 C 
ATOM     22  N1  <0> d           2.261  -4.142  -3.923  0.00  0.00    -0.361 N 
ATOM     23  H13 <0> d           2.592  -3.449  -4.516  0.00  0.00     0.162 HD
ATOM     24  O2  <0> d           2.034  -6.306  -3.491  0.00  0.00    -0.273 OA
BRANCH  22  25
ATOM     25  C5  <0> d           1.560  -3.777  -2.690  0.00  0.00     0.124 C 
BRANCH  25  26
ATOM     26  C4  <0> d           1.484  -2.253  -2.579  0.00  0.00     0.046 C 
BRANCH  26  27
ATOM     27  C3  <0> d           0.751  -1.871  -1.291  0.00  0.00     0.169 C 
BRANCH  27  28
ATOM     28  O1  <0> d           0.680  -0.448  -1.187  0.00  0.00    -0.391 OA
BRANCH  28  29
ATOM     29  C2  <0> d           0.011   0.017  -0.013  0.00  0.00     0.163 C 
ATOM     30  C1  <0> d          -0.005   1.546  -0.006  0.00  0.00     0.033 C 
ENDBRANCH  28  29
ENDBRANCH  27  28
ENDBRANCH  26  27
ENDBRANCH  25  26
ENDBRANCH  22  25
ENDBRANCH   1  21
TORSDOF 7
