REMARK  4 active torsions:
REMARK  status: ('A' for Active; 'I' for Inactive)
REMARK    1  A    between atoms: C3_5  and  C5_8 
REMARK    2  A    between atoms: C5_8  and  N4_9 
REMARK    3  A    between atoms: N4_9  and  C6_10 
REMARK    4  A    between atoms: C6_10  and  C7_11 
ROOT
ATOM      1  C5  <0> d           0.056  -3.344   1.433  0.00  0.00     0.312 C 
ENDROOT
BRANCH   1   2
ATOM      2  C3  <0> d           0.034  -2.081   0.612  0.00  0.00     0.155 A 
ATOM      3  N2  <0> d           0.027  -2.006  -0.691  0.00  0.00    -0.133 NA
ATOM      4  N1  <0> d           0.008  -0.772  -1.054  0.00  0.00    -0.135 NA
ATOM      5  C2  <0> d           0.002  -0.004   0.002  0.00  0.00     0.125 A 
ATOM      6  C1  <0> d          -0.018   1.503   0.010  0.00  0.00     0.093 C 
ATOM      7  N3  <0> d           0.023  -0.813   1.089  0.00  0.00    -0.324 N 
ATOM      8  C4  <0> d           0.030  -0.400   2.494  0.00  0.00     0.159 C 
ENDBRANCH   1   2
BRANCH   1   9
ATOM      9  N4  <0> d           1.447  -3.735   1.694  0.00  0.00    -0.068 N 
ATOM     10  H9  <0> d           1.922  -3.895   0.819  0.00  0.00     0.277 HD
ATOM     11  H19 <0> d           1.915  -2.997   2.200  0.00  0.00     0.277 HD
BRANCH   9  12
ATOM     12  C6  <0> d           1.468  -4.966   2.495  0.00  0.00     0.237 C 
BRANCH  12  13
ATOM     13  C7  <0> d           2.918  -5.373   2.767  0.00  0.00     0.011 C 
ATOM     14  C10 <0> d           3.052  -6.586   3.703  0.00  0.00     0.006 C 
ATOM     15  C9  <0> d           4.193  -7.065   2.791  0.00  0.00     0.001 C 
ATOM     16  C8  <0> d           3.527  -6.255   1.665  0.00  0.00     0.006 C 
ENDBRANCH  12  13
ENDBRANCH   9  12
ENDBRANCH   1   9
TORSDOF 4
