REMARK  5 active torsions:
REMARK  status: ('A' for Active; 'I' for Inactive)
REMARK    1  A    between atoms: O1_2  and  C2_3 
REMARK    2  A    between atoms: C2_3  and  C3_4 
REMARK    3  A    between atoms: C7_8  and  N1_10 
REMARK       I    between atoms: N1_10  and  C9_11 
REMARK    4  A    between atoms: C9_11  and  C10_13 
REMARK    5  A    between atoms: C13_16  and  C15_21 
ROOT
ATOM      1  C10 <0> d          -0.903  -6.976   3.647  0.00  0.00     0.100 A 
ATOM      2  C11 <0> d          -0.775  -8.369   3.653  0.00  0.00     0.025 A 
ATOM      3  C12 <0> d          -0.813  -9.046   4.861  0.00  0.00     0.034 A 
ATOM      4  C13 <0> d          -0.977  -8.338   6.045  0.00  0.00     0.069 A 
ATOM      5  N2  <0> d          -1.101  -6.975   6.032  0.00  0.00    -0.320 N 
ATOM      6  H1  <0> d          -1.214  -6.497   6.869  0.00  0.00     0.169 HD
ATOM      7  C14 <0> d          -1.063  -6.288   4.875  0.00  0.00     0.261 A 
ATOM      8  O3  <0> d          -1.171  -5.074   4.884  0.00  0.00    -0.267 OA
ENDROOT
BRANCH   1   9
ATOM      9  C9  <0> d          -0.866  -6.234   2.381  0.00  0.00     0.261 C 
ATOM     10  N1  <0> d          -0.604  -4.912   2.383  0.00  0.00    -0.323 N 
ATOM     11  H11 <0> d          -0.352  -4.468   3.208  0.00  0.00     0.169 HD
ATOM     12  O2  <0> d          -1.072  -6.812   1.330  0.00  0.00    -0.267 OA
BRANCH  10  13
ATOM     13  C7  <0> d          -0.695  -4.179   1.195  0.00  0.00     0.035 A 
ATOM     14  C6  <0> d          -0.390  -4.781  -0.019  0.00  0.00     0.029 A 
ATOM     15  C5  <0> d          -0.481  -4.054  -1.190  0.00  0.00     0.003 A 
ATOM     16  C4  <0> d          -0.876  -2.730  -1.155  0.00  0.00     0.009 A 
ATOM     17  C3  <0> d          -1.181  -2.128   0.052  0.00  0.00    -0.032 A 
ATOM     18  C8  <0> d          -1.086  -2.846   1.227  0.00  0.00     0.038 A 
BRANCH  17  19
ATOM     19  C2  <0> d          -1.611  -0.684   0.086  0.00  0.00     0.205 C 
BRANCH  19  20
ATOM     20  O1  <0> d          -0.461   0.153   0.225  0.00  0.00    -0.391 OA
ATOM     21  C1  <0> d          -0.760   1.550   0.267  0.00  0.00     0.201 C 
ENDBRANCH  19  20
ENDBRANCH  17  19
ENDBRANCH  10  13
ENDBRANCH   1   9
BRANCH   4  22
ATOM     22  C15 <0> d          -1.016  -9.058   7.319  0.00  0.00     0.101 A 
ATOM     23  O4  <0> d          -0.908 -10.393   7.480  0.00  0.00    -0.321 OA
ATOM     24  C18 <0> d          -0.986 -10.692   8.784  0.00  0.00     0.142 A 
ATOM     25  C17 <0> d          -1.155  -9.548   9.483  0.00  0.00     0.027 A 
ATOM     26  C16 <0> d          -1.177  -8.495   8.555  0.00  0.00     0.041 A 
ENDBRANCH   4  22
TORSDOF 5
