REMARK  8 active torsions:
REMARK  status: ('A' for Active; 'I' for Inactive)
REMARK    1  A    between atoms: C2_2  and  C12_18 
REMARK    2  A    between atoms: C4_5  and  N2_8 
REMARK    3  A    between atoms: N2_8  and  C6_9 
REMARK    4  A    between atoms: N2_8  and  C9_15 
REMARK    5  A    between atoms: C6_9  and  C7_10 
REMARK    6  A    between atoms: C7_10  and  C8_11 
REMARK    7  A    between atoms: C8_11  and  N4_14 
REMARK    8  A    between atoms: N3_12  and  O1_13 
ROOT
ATOM      1  N2  <0> d           1.262  -2.054  -0.021  0.00  0.00    -0.359 N 
ENDROOT
BRANCH   1   2
ATOM      2  C4  <0> d           1.237  -0.681   0.195  0.00  0.00     0.147 A 
ATOM      3  N1  <0> d           1.232   0.146  -0.839  0.00  0.00    -0.241 NA
ATOM      4  C3  <0> d           1.208   1.456  -0.677  0.00  0.00     0.135 A 
ATOM      5  C2  <0> d           1.188   2.014   0.585  0.00  0.00     0.067 A 
ATOM      6  C1  <0> d           1.192   1.182   1.697  0.00  0.00     0.045 A 
ATOM      7  C5  <0> d           1.217  -0.187   1.497  0.00  0.00     0.080 A 
ATOM      8 Cl1  <0> d           1.225  -1.275   2.850  0.00  0.00    -0.080 Cl
BRANCH   5   9
ATOM      9  C12 <0> d           1.160   3.511   0.755  0.00  0.00     0.418 C 
ATOM     10  F1  <0> d           2.470   3.997   0.819  0.00  0.00    -0.166 F 
ATOM     11  F2  <0> d           0.500   4.092  -0.334  0.00  0.00    -0.166 F 
ATOM     12  F3  <0> d           0.484   3.834   1.936  0.00  0.00    -0.166 F 
ENDBRANCH   5   9
ENDBRANCH   1   2
BRANCH   1  13
ATOM     13  C6  <0> d           0.007  -2.802  -0.130  0.00  0.00     0.132 C 
BRANCH  13  14
ATOM     14  C7  <0> d          -0.380  -2.938  -1.604  0.00  0.00     0.100 C 
BRANCH  14  15
ATOM     15  C8  <0> d          -1.671  -3.707  -1.715  0.00  0.00     0.126 C 
ATOM     16  N3  <0> d          -2.264  -4.133  -0.649  0.00  0.00    -0.123 NA
BRANCH  16  17
ATOM     17  O1  <0> d          -3.477  -4.855  -0.753  0.00  0.00    -0.265 OA
ATOM     18  H7  <0> d          -3.845  -5.131   0.097  0.00  0.00     0.247 HD
ENDBRANCH  16  17
BRANCH  15  19
ATOM     19  N4  <0> d          -2.220  -3.955  -2.954  0.00  0.00    -0.386 N 
ATOM     20  H8  <0> d          -1.775  -3.636  -3.754  0.00  0.00     0.157 HD
ATOM     21  H9  <0> d          -3.051  -4.450  -3.025  0.00  0.00     0.157 HD
ENDBRANCH  15  19
ENDBRANCH  14  15
ENDBRANCH  13  14
ENDBRANCH   1  13
BRANCH   1  22
ATOM     22  C9  <0> d           2.544  -2.754  -0.141  0.00  0.00     0.086 A 
ATOM     23  C11 <0> d           3.428  -2.409  -1.341  0.00  0.00     0.027 A 
ATOM     24  C10 <0> d           3.819  -1.932   0.059  0.00  0.00     0.027 A 
ENDBRANCH   1  22
TORSDOF 8
