REMARK  4 active torsions:
REMARK  status: ('A' for Active; 'I' for Inactive)
REMARK    1  A    between atoms: N3_9  and  C7_12 
REMARK    2  A    between atoms: C7_12  and  C8_13 
REMARK       I    between atoms: C8_13  and  N5_15 
REMARK    3  A    between atoms: N5_15  and  C9_16 
REMARK    4  A    between atoms: C9_16  and  C10_17 
ROOT
ATOM      1  C7  <0> d           0.037  -3.861  -3.991  0.00  0.00     0.235 C 
ENDROOT
BRANCH   1   2
ATOM      2  N3  <0> d           0.028  -2.831  -2.949  0.00  0.00    -0.299 N 
ATOM      3  C5  <0> d           0.039  -3.192  -1.645  0.00  0.00     0.264 A 
ATOM      4  C3  <0> d           0.029  -2.121  -0.648  0.00  0.00     0.099 A 
ATOM      5  O1  <0> d           0.057  -4.364  -1.313  0.00  0.00    -0.267 OA
ATOM      6  C2  <0> d           0.008  -0.793  -1.103  0.00  0.00     0.164 A 
ATOM      7  C4  <0> d           0.035  -2.080   0.759  0.00  0.00     0.160 A 
ATOM      8  N1  <0> d           0.002  -0.004   0.002  0.00  0.00    -0.256 N 
ATOM      9  N4  <0> d          -0.002  -0.555  -2.424  0.00  0.00    -0.224 NA
ATOM     10  C1  <0> d          -0.018   1.461   0.010  0.00  0.00     0.182 C 
ATOM     11  N2  <0> d           0.025  -0.830   1.133  0.00  0.00    -0.182 NA
ATOM     12  C6  <0> d           0.008  -1.520  -3.297  0.00  0.00     0.215 A 
ENDBRANCH   1   2
BRANCH   1  13
ATOM     13  C8  <0> d          -1.380  -4.235  -4.341  0.00  0.00     0.235 C 
ATOM     14  O2  <0> d          -2.307  -3.694  -3.776  0.00  0.00    -0.272 OA
ATOM     15  N5  <0> d          -1.618  -5.170  -5.282  0.00  0.00    -0.359 N 
ATOM     16  H9  <0> d          -0.877  -5.603  -5.733  0.00  0.00     0.162 HD
BRANCH  15  17
ATOM     17  C9  <0> d          -2.996  -5.533  -5.622  0.00  0.00     0.129 C 
BRANCH  17  18
ATOM     18  C10 <0> d          -2.986  -6.609  -6.710  0.00  0.00     0.031 C 
ATOM     19  C13 <0> d          -4.431  -6.969  -7.138  0.00  0.00     0.240 C 
ATOM     20  N6  <0> d          -4.290  -8.349  -7.676  0.00  0.00    -0.074 N 
ATOM     21  C12 <0> d          -3.326  -9.035  -6.788  0.00  0.00     0.234 C 
ATOM     22  C14 <0> d          -5.586  -9.040  -7.647  0.00  0.00     0.269 C 
ATOM     23  H21 <0> d          -3.933  -8.317  -8.619  0.00  0.00     0.279 HD
ATOM     24  C11 <0> d          -2.443  -7.945  -6.153  0.00  0.00     0.035 C 
ENDBRANCH  17  18
ENDBRANCH  15  17
ENDBRANCH   1  13
TORSDOF 4
