REMARK  4 active torsions:
REMARK  status: ('A' for Active; 'I' for Inactive)
REMARK    1  A    between atoms: C4_6  and  O1_11 
REMARK    2  A    between atoms: C5_7  and  C6_8 
REMARK    3  A    between atoms: C6_8  and  N3_9 
REMARK    4  A    between atoms: O1_11  and  C7_12 
ROOT
ATOM      1  C1  <0> d          -0.098   1.507   0.023  0.00  0.00     0.051 C 
ATOM      2  C2  <0> d          -0.076   0.000   0.011  0.00  0.00    -0.018 A 
ATOM      3  C3  <0> d          -0.110  -0.706  -1.181  0.00  0.00     0.060 A 
ATOM      4  N1  <0> d          -0.090  -2.024  -1.170  0.00  0.00    -0.152 NA
ATOM      5  N2  <0> d          -0.038  -2.706  -0.085  0.00  0.00    -0.123 NA
ATOM      6  C4  <0> d          -0.001  -2.132   1.109  0.00  0.00     0.205 A 
ATOM      7  C5  <0> d          -0.014  -0.731   1.203  0.00  0.00     0.070 A 
ATOM      8  C13 <0> d          -0.172   0.035  -2.492  0.00  0.00     0.073 C 
ENDROOT
BRANCH   6   9
ATOM      9  O1  <0> d           0.053  -2.891   2.229  0.00  0.00    -0.290 OA
BRANCH   9  10
ATOM     10  C7  <0> d          -0.034  -4.240   2.091  0.00  0.00     0.079 A 
ATOM     11  C12 <0> d          -1.219  -4.895   2.391  0.00  0.00     0.056 A 
ATOM     12  C11 <0> d          -1.306  -6.266   2.243  0.00  0.00     0.013 A 
ATOM     13  C10 <0> d          -0.208  -6.987   1.809  0.00  0.00     0.019 A 
ATOM     14 Br1  <0> d          -2.925  -7.159   2.643  0.00  0.00    -0.051 Br
ATOM     15  C9  <0> d           0.976  -6.337   1.515  0.00  0.00     0.004 A 
ATOM     16  C8  <0> d           1.066  -4.966   1.655  0.00  0.00     0.037 A 
ENDBRANCH   9  10
ENDBRANCH   6   9
BRANCH   7  17
ATOM     17  C6  <0> d           0.033  -0.051   2.516  0.00  0.00     0.107 C 
ATOM     18  N4  <0> d          -1.007   0.672   2.929  0.00  0.00    -0.385 N 
ATOM     19  H5  <0> d          -1.794   0.753   2.368  0.00  0.00     0.157 HD
ATOM     20  H6  <0> d          -0.976   1.118   3.790  0.00  0.00     0.157 HD
BRANCH  17  21
ATOM     21  N3  <0> d           1.113  -0.162   3.286  0.00  0.00    -0.385 N 
ATOM     22  H4  <0> d           1.144   0.283   4.147  0.00  0.00     0.157 HD
ATOM     23  H14 <0> d           1.870  -0.689   2.986  0.00  0.00     0.157 HD
ENDBRANCH  17  21
ENDBRANCH   7  17
TORSDOF 4
