REMARK  4 active torsions:
REMARK  status: ('A' for Active; 'I' for Inactive)
REMARK    1  A    between atoms: C3_3  and  C14_19 
REMARK    2  A    between atoms: C7_7  and  N1_8 
REMARK    3  A    between atoms: N1_8  and  S1_9 
REMARK    4  A    between atoms: S1_9  and  C8_12 
REMARK       I    between atoms: C14_19  and  N2_21 
ROOT
ATOM      1  C1  <0> d          -1.758   1.547   4.081  0.00  0.00     0.052 C 
ATOM      2  C2  <0> d          -1.000   2.783   3.669  0.00  0.00    -0.019 A 
ATOM      3  C3  <0> d           0.022   3.279   4.478  0.00  0.00     0.040 A 
ATOM      4  C4  <0> d           0.715   4.428   4.093  0.00  0.00     0.018 A 
ATOM      5  C5  <0> d           0.393   5.065   2.912  0.00  0.00     0.003 A 
ATOM      6  C6  <0> d          -0.616   4.570   2.107  0.00  0.00     0.031 A 
ATOM      7  C7  <0> d          -1.312   3.427   2.482  0.00  0.00     0.049 A 
ENDROOT
BRANCH   7   8
ATOM      8  N1  <0> d          -2.331   2.930   1.664  0.00  0.00    -0.280 N 
ATOM      9  H7  <0> d          -3.223   2.470   2.115  0.00  0.00     0.179 HD
BRANCH   8  10
ATOM     10  S1  <0> d          -2.196   3.035   0.017  0.00  0.00     0.263 S 
ATOM     11  O1  <0> d          -1.933   4.399  -0.283  0.00  0.00    -0.200 OA
ATOM     12  O2  <0> d          -3.308   2.336  -0.526  0.00  0.00    -0.200 OA
BRANCH  10  13
ATOM     13  C8  <0> d          -0.757   2.130  -0.446  0.00  0.00     0.080 A 
ATOM     14  C13 <0> d          -0.854   0.784  -0.745  0.00  0.00     0.026 A 
ATOM     15  C12 <0> d           0.274   0.075  -1.114  0.00  0.00     0.020 A 
ATOM     16  C11 <0> d           1.500   0.713  -1.184  0.00  0.00     0.011 A 
ATOM     17  C10 <0> d           1.596   2.060  -0.885  0.00  0.00     0.020 A 
ATOM     18 Br1  <0> d           3.043  -0.256  -1.688  0.00  0.00    -0.051 Br
ATOM     19  C9  <0> d           0.467   2.768  -0.516  0.00  0.00     0.026 A 
ENDBRANCH  10  13
ENDBRANCH   8  10
ENDBRANCH   7   8
BRANCH   3  20
ATOM     20  C14 <0> d           0.366   2.594   5.742  0.00  0.00     0.251 C 
ATOM     21  O3  <0> d          -0.154   1.531   6.018  0.00  0.00    -0.268 OA
ATOM     22  N2  <0> d           1.257   3.149   6.588  0.00  0.00    -0.361 N 
ATOM     23  C15 <0> d           1.598   2.470   7.841  0.00  0.00     0.149 C 
ATOM     24  H12 <0> d           1.728   4.111   6.338  0.00  0.00     0.162 HD
ENDBRANCH   3  20
TORSDOF 4
