REMARK  7 active torsions:
REMARK  status: ('A' for Active; 'I' for Inactive)
REMARK    1  A    between atoms: C5_5  and  C8_8 
REMARK    2  A    between atoms: C9_10  and  C11_13 
REMARK    3  A    between atoms: C11_13  and  C12_14 
REMARK       I    between atoms: C12_14  and  N2_16 
REMARK    4  A    between atoms: N2_16  and  C13_17 
REMARK    5  A    between atoms: C14_19  and  C16_22 
REMARK    6  A    between atoms: C19_25  and  C20_27 
REMARK    7  A    between atoms: C20_27  and  N4_28 
REMARK       I    between atoms: N4_28  and  C21_29 
ROOT
ATOM      1  C12 <0> d           2.609  -2.533  -0.037  0.00  0.00     0.229 C 
ATOM      2  O1  <0> d           3.554  -1.773  -0.041  0.00  0.00    -0.273 OA
ATOM      3  N2  <0> d           1.352  -2.045  -0.022  0.00  0.00    -0.305 N 
ATOM      4  H11 <0> d           0.596  -2.653  -0.019  0.00  0.00     0.171 HD
ENDROOT
BRANCH   3   5
ATOM      5  C13 <0> d           1.140  -0.672  -0.012  0.00  0.00     0.173 A 
ATOM      6  S2  <0> d           2.336   0.656  -0.017  0.00  0.00    -0.061 SA
ATOM      7  C15 <0> d           1.170   2.011   0.002  0.00  0.00     0.087 A 
ATOM      8  C14 <0> d          -0.016   1.327   0.009  0.00  0.00     0.100 A 
ATOM      9  N3  <0> d           0.002  -0.004   0.002  0.00  0.00    -0.221 NA
BRANCH   8  10
ATOM     10  C16 <0> d          -1.301   2.057   0.019  0.00  0.00     0.105 A 
ATOM     11  O2  <0> d          -1.449   3.396   0.026  0.00  0.00    -0.311 OA
ATOM     12  C19 <0> d          -2.758   3.701   0.035  0.00  0.00     0.071 A 
ATOM     13  C18 <0> d          -3.467   2.556   0.033  0.00  0.00     0.037 A 
ATOM     14  C17 <0> d          -2.538   1.495   0.017  0.00  0.00     0.042 A 
BRANCH  12  15
ATOM     15  C20 <0> d          -3.336   5.093   0.045  0.00  0.00     0.187 C 
BRANCH  15  16
ATOM     16  N4  <0> d          -3.515   5.537   1.429  0.00  0.00    -0.355 N 
ATOM     17  C21 <0> d          -4.022   6.759   1.684  0.00  0.00     0.213 C 
ATOM     18  O3  <0> d          -4.330   7.492   0.767  0.00  0.00    -0.274 OA
ATOM     19  C22 <0> d          -4.207   7.216   3.108  0.00  0.00     0.117 C 
ATOM     20  H17 <0> d          -3.270   4.951   2.162  0.00  0.00     0.162 HD
ENDBRANCH  15  16
ENDBRANCH  12  15
ENDBRANCH   8  10
ENDBRANCH   3   5
BRANCH   1  21
ATOM     21  C11 <0> d           2.839  -4.022  -0.048  0.00  0.00     0.163 C 
BRANCH  21  22
ATOM     22  C9  <0> d           4.320  -4.301  -0.063  0.00  0.00     0.051 A 
ATOM     23  N1  <0> d           5.077  -3.782  -1.001  0.00  0.00    -0.244 NA
ATOM     24  C8  <0> d           6.383  -4.007  -1.034  0.00  0.00     0.108 A 
ATOM     25  S1  <0> d           6.589  -5.071   0.388  0.00  0.00    -0.079 SA
ATOM     26  C10 <0> d           4.872  -5.096   0.891  0.00  0.00     0.079 A 
BRANCH  24  27
ATOM     27  C5  <0> d           7.396  -3.515  -1.993  0.00  0.00    -0.000 A 
ATOM     28  C4  <0> d           8.734  -3.882  -1.848  0.00  0.00     0.015 A 
ATOM     29  C3  <0> d           9.674  -3.419  -2.745  0.00  0.00     0.007 A 
ATOM     30  C2  <0> d           9.292  -2.593  -3.787  0.00  0.00    -0.062 A 
ATOM     31  C1  <0> d          10.325  -2.092  -4.764  0.00  0.00     0.048 C 
ATOM     32  C7  <0> d           7.967  -2.226  -3.937  0.00  0.00     0.007 A 
ATOM     33  C6  <0> d           7.016  -2.686  -3.050  0.00  0.00     0.015 A 
ENDBRANCH  24  27
ENDBRANCH  21  22
ENDBRANCH   1  21
TORSDOF 7
