REMARK  6 active torsions:
REMARK  status: ('A' for Active; 'I' for Inactive)
REMARK    1  A    between atoms: C6_6  and  C7_7 
REMARK    2  A    between atoms: C8_10  and  S1_13 
REMARK    3  A    between atoms: N3_11  and  N4_12 
REMARK    4  A    between atoms: S1_13  and  C9_14 
REMARK    5  A    between atoms: C9_14  and  C10_15 
REMARK    6  A    between atoms: C11_18  and  C12_20 
ROOT
ATOM      1  C7  <0> d           0.002  -0.004   0.002  0.00  0.00     0.183 A 
ATOM      2  N1  <0> d           1.035  -0.772   0.262  0.00  0.00    -0.127 NA
ATOM      3  N2  <0> d           0.698  -2.008   0.164  0.00  0.00    -0.120 NA
ATOM      4  C8  <0> d          -0.571  -2.106  -0.164  0.00  0.00     0.210 A 
ATOM      5  N3  <0> d          -1.060  -0.835  -0.273  0.00  0.00    -0.216 N 
ENDROOT
BRANCH   4   6
ATOM      6  S1  <0> d          -1.476  -3.598  -0.409  0.00  0.00    -0.080 SA
BRANCH   6   7
ATOM      7  C9  <0> d          -0.173  -4.812  -0.085  0.00  0.00     0.170 C 
BRANCH   7   8
ATOM      8  C10 <0> d          -0.733  -6.202  -0.241  0.00  0.00     0.179 A 
ATOM      9  O1  <0> d          -1.293  -6.947   0.727  0.00  0.00    -0.269 OA
ATOM     10  C11 <0> d          -1.652  -8.107   0.152  0.00  0.00     0.277 A 
ATOM     11  N6  <0> d          -1.306  -8.044  -1.103  0.00  0.00    -0.117 NA
ATOM     12  N5  <0> d          -0.756  -6.905  -1.338  0.00  0.00    -0.126 NA
BRANCH  10  13
ATOM     13  C12 <0> d          -2.325  -9.270   0.834  0.00  0.00     0.460 C 
ATOM     14  F1  <0> d          -2.429 -10.340  -0.062  0.00  0.00    -0.163 F 
ATOM     15  F2  <0> d          -1.568  -9.662   1.943  0.00  0.00    -0.163 F 
ATOM     16  F3  <0> d          -3.604  -8.887   1.254  0.00  0.00    -0.163 F 
ENDBRANCH  10  13
ENDBRANCH   7   8
ENDBRANCH   6   7
ENDBRANCH   4   6
BRANCH   5  17
ATOM     17  N4  <0> d          -2.335  -0.466  -0.593  0.00  0.00    -0.335 N 
ATOM     18  H5  <0> d          -3.097  -1.234  -0.792  0.00  0.00     0.177 HD
ATOM     19  H6  <0> d          -2.601   0.600  -0.651  0.00  0.00     0.177 HD
ENDBRANCH   5  17
BRANCH   1  20
ATOM     20  C6  <0> d          -0.018   1.474   0.010  0.00  0.00     0.014 A 
ATOM     21  C1  <0> d          -1.234   2.158   0.020  0.00  0.00     0.017 A 
ATOM     22  C2  <0> d          -1.247   3.538   0.033  0.00  0.00     0.020 A 
ATOM     23  C3  <0> d          -0.056   4.243   0.025  0.00  0.00     0.011 A 
ATOM     24  C4  <0> d           1.154   3.570   0.010  0.00  0.00     0.020 A 
ATOM     25 Br1  <0> d          -0.081   6.134   0.034  0.00  0.00    -0.051 Br
ATOM     26  C5  <0> d           1.179   2.191   0.003  0.00  0.00     0.017 A 
ENDBRANCH   1  20
TORSDOF 6
