REMARK  6 active torsions:
REMARK  status: ('A' for Active; 'I' for Inactive)
REMARK    1  A    between atoms: C5_6  and  C9_11 
REMARK    2  A    between atoms: C9_11  and  N2_12 
REMARK       I    between atoms: N2_12  and  C10_13 
REMARK    3  A    between atoms: C10_13  and  C11_15 
REMARK       I    between atoms: N3_17  and  C19_25 
REMARK    4  A    between atoms: C19_25  and  C20_27 
REMARK    5  A    between atoms: C20_27  and  C21_28 
REMARK    6  A    between atoms: C21_28  and  C22_29 
ROOT
ATOM      1  C11 <0> d          -8.318   0.159   3.116  0.00  0.00     0.106 C 
ATOM      2  C12 <0> d          -7.817   1.334   3.985  0.00  0.00     0.140 C 
ATOM      3  N3  <0> d          -8.933   2.309   3.975  0.00  0.00    -0.351 N 
ATOM      4  C13 <0> d         -10.154   1.474   4.062  0.00  0.00     0.136 C 
ATOM      5  C14 <0> d          -9.852   0.252   3.172  0.00  0.00    -0.007 C 
ATOM      6  C15 <0> d         -10.436  -1.012   3.794  0.00  0.00     0.039 C 
ATOM      7  C16 <0> d         -11.965  -0.921   3.786  0.00  0.00     0.233 C 
ATOM      8  N4  <0> d         -12.440  -0.767   2.405  0.00  0.00    -0.075 N 
ATOM      9  C17 <0> d         -11.949   0.498   1.846  0.00  0.00     0.233 C 
ATOM     10  C18 <0> d         -10.420   0.467   1.772  0.00  0.00     0.039 C 
ATOM     11  C19 <0> d          -8.854   3.653   3.903  0.00  0.00     0.219 C 
ATOM     12  O2  <0> d          -9.867   4.321   3.905  0.00  0.00    -0.273 OA
ATOM     13  H19 <0> d         -12.100  -1.535   1.846  0.00  0.00     0.277 HD
ATOM     14  H37 <0> d         -13.449  -0.769   2.396  0.00  0.00     0.277 HD
ENDROOT
BRANCH   1  15
ATOM     15  C10 <0> d          -7.835   0.313   1.697  0.00  0.00     0.224 C 
ATOM     16  N2  <0> d          -7.641  -0.777   0.928  0.00  0.00    -0.355 N 
ATOM     17  H10 <0> d          -7.814  -1.661   1.289  0.00  0.00     0.162 HD
ATOM     18  O1  <0> d          -7.619   1.418   1.246  0.00  0.00    -0.273 OA
BRANCH  16  19
ATOM     19  C9  <0> d          -7.171  -0.627  -0.451  0.00  0.00     0.179 C 
BRANCH  19  20
ATOM     20  C5  <0> d          -7.038  -1.987  -1.087  0.00  0.00     0.028 A 
ATOM     21  N1  <0> d          -8.056  -2.676  -1.689  0.00  0.00    -0.357 N 
ATOM     22  C4  <0> d          -7.589  -3.881  -2.163  0.00  0.00     0.042 A 
ATOM     23  H1  <0> d          -8.970  -2.361  -1.770  0.00  0.00     0.166 HD
ATOM     24  C3  <0> d          -8.186  -4.940  -2.839  0.00  0.00     0.030 A 
ATOM     25  C7  <0> d          -6.221  -3.951  -1.844  0.00  0.00    -0.008 A 
ATOM     26  C2  <0> d          -7.433  -6.041  -3.187  0.00  0.00     0.002 A 
ATOM     27  C1  <0> d          -6.083  -6.104  -2.871  0.00  0.00     0.001 A 
ATOM     28  C8  <0> d          -5.478  -5.077  -2.202  0.00  0.00     0.014 A 
ATOM     29  C6  <0> d          -5.904  -2.702  -1.147  0.00  0.00     0.040 A 
ENDBRANCH  19  20
ENDBRANCH  16  19
ENDBRANCH   1  15
BRANCH  11  30
ATOM     30  C20 <0> d          -7.508   4.326   3.820  0.00  0.00     0.103 C 
BRANCH  30  31
ATOM     31  C21 <0> d          -7.700   5.842   3.749  0.00  0.00     0.014 C 
BRANCH  31  32
ATOM     32  C22 <0> d          -6.333   6.525   3.664  0.00  0.00    -0.014 C 
ATOM     33  C26 <0> d          -6.513   8.041   3.466  0.00  0.00     0.004 C 
ATOM     34  C25 <0> d          -5.850   8.725   4.680  0.00  0.00     0.000 C 
ATOM     35  C24 <0> d          -4.821   7.685   5.188  0.00  0.00     0.000 C 
ATOM     36  C23 <0> d          -5.568   6.342   4.991  0.00  0.00     0.004 C 
ENDBRANCH  31  32
ENDBRANCH  30  31
ENDBRANCH  11  30
TORSDOF 6
