REMARK  7 active torsions:
REMARK  status: ('A' for Active; 'I' for Inactive)
REMARK    1  A    between atoms: C2_2  and  N1_3 
REMARK    2  A    between atoms: N1_3  and  C3_4 
REMARK    3  A    between atoms: N1_3  and  C5_7 
REMARK    4  A    between atoms: C3_4  and  C4_5 
REMARK    5  A    between atoms: C4_5  and  O1_6 
REMARK    6  A    between atoms: C5_7  and  C6_8 
REMARK       I    between atoms: C6_8  and  N2_10 
REMARK    7  A    between atoms: N2_10  and  C7_11 
ROOT
ATOM      1  C6  <0> d          -0.011   0.775   0.208  0.00  0.00     0.248 C 
ATOM      2  O2  <0> d           0.150  -0.427   0.223  0.00  0.00    -0.271 OA
ATOM      3  N2  <0> d          -1.250   1.290   0.328  0.00  0.00    -0.325 N 
ATOM      4  H13 <0> d          -1.389   2.379   0.405  0.00  0.00     0.169 HD
ENDROOT
BRANCH   1   5
ATOM      5  C5  <0> d           1.174   1.692   0.050  0.00  0.00     0.337 C 
BRANCH   5   6
ATOM      6  N1  <0> d           2.401   0.892  -0.066  0.00  0.00    -0.061 N 
ATOM      7  H20 <0> d           2.428   0.190   0.780  0.00  0.00     0.280 HD
BRANCH   6   8
ATOM      8  C2  <0> d           2.400   0.105  -1.306  0.00  0.00     0.231 C 
ATOM      9  C1  <0> d           3.452  -1.002  -1.208  0.00  0.00     0.034 C 
ENDBRANCH   6   8
BRANCH   6  10
ATOM     10  C3  <0> d           3.595   1.744   0.016  0.00  0.00     0.261 C 
BRANCH  10  11
ATOM     11  C4  <0> d           3.831   2.152   1.472  0.00  0.00     0.192 C 
BRANCH  11  12
ATOM     12  O1  <0> d           4.152   0.994   2.245  0.00  0.00    -0.399 OA
ATOM     13  H10 <0> d           4.356   1.091   3.322  0.00  0.00     0.209 HD
ENDBRANCH  11  12
ENDBRANCH  10  11
ENDBRANCH   6  10
ENDBRANCH   5   6
ENDBRANCH   1   5
BRANCH   3  14
ATOM     14  C7  <0> d          -2.362   0.440   0.355  0.00  0.00     0.040 A 
ATOM     15  C12 <0> d          -3.547   0.864   0.941  0.00  0.00    -0.034 A 
ATOM     16  C11 <0> d          -4.644   0.024   0.962  0.00  0.00     0.027 A 
ATOM     17  C13 <0> d          -3.639   2.240   1.548  0.00  0.00     0.050 C 
ATOM     18  C10 <0> d          -4.559  -1.241   0.410  0.00  0.00     0.007 A 
ATOM     19  C9  <0> d          -3.377  -1.668  -0.170  0.00  0.00     0.020 A 
ATOM     20  I1  <0> d          -6.222  -2.514   0.451  0.00  0.00    -0.045 I 
ATOM     21  C8  <0> d          -2.279  -0.831  -0.199  0.00  0.00     0.031 A 
ENDBRANCH   3  14
TORSDOF 7
