REMARK  6 active torsions:
REMARK  status: ('A' for Active; 'I' for Inactive)
REMARK    1  A    between atoms: O1_2  and  C2_3 
REMARK    2  A    between atoms: C2_3  and  C3_4 
REMARK    3  A    between atoms: C3_4  and  C4_5 
REMARK    4  A    between atoms: C5_7  and  C6_10 
REMARK    5  A    between atoms: N4_14  and  C11_16 
REMARK    6  A    between atoms: C11_16  and  C12_17 
ROOT
ATOM      1  C6  <0> d           1.799  -2.670  -5.524  0.00  0.00     0.052 C 
ATOM      2  C7  <0> d           2.837  -3.271  -6.474  0.00  0.00     0.011 C 
ATOM      3  C8  <0> d           2.899  -2.428  -7.751  0.00  0.00     0.031 C 
ATOM      4  C9  <0> d           1.510  -2.378  -8.391  0.00  0.00     0.273 C 
ATOM      5  N4  <0> d           0.553  -1.794  -7.443  0.00  0.00     0.093 N 
ATOM      6  C10 <0> d           0.441  -2.612  -6.228  0.00  0.00     0.280 C 
ENDROOT
BRANCH   1   7
ATOM      7  C5  <0> d           1.688  -3.541  -4.271  0.00  0.00     0.180 A 
ATOM      8  N1  <0> d           0.693  -2.983  -3.343  0.00  0.00    -0.360 N 
ATOM      9  C4  <0> d           1.298  -2.694  -2.243  0.00  0.00     0.090 A 
ATOM     10  H28 <0> d          -0.251  -2.855  -3.526  0.00  0.00     0.162 HD
ATOM     11  N3  <0> d           2.629  -2.983  -2.291  0.00  0.00    -0.309 N 
ATOM     12  N2  <0> d           2.952  -3.517  -3.508  0.00  0.00    -0.216 NA
ATOM     13  H12 <0> d           3.255  -2.835  -1.565  0.00  0.00     0.182 HD
ATOM     14  H11 <0> d           3.645  -2.951  -3.974  0.00  0.00     0.149 HD
BRANCH   9  15
ATOM     15  C3  <0> d           0.613  -2.097  -1.041  0.00  0.00     0.103 C 
BRANCH  15  16
ATOM     16  C2  <0> d           0.652  -0.570  -1.138  0.00  0.00     0.174 C 
BRANCH  16  17
ATOM     17  O1  <0> d           0.002  -0.004   0.002  0.00  0.00    -0.396 OA
ATOM     18  C1  <0> d          -0.017   1.425   0.010  0.00  0.00     0.201 C 
ENDBRANCH  16  17
ENDBRANCH  15  16
ENDBRANCH   9  15
ENDBRANCH   1   7
BRANCH   5  19
ATOM     19  C11 <0> d          -0.761  -1.603  -8.071  0.00  0.00     0.310 C 
BRANCH  19  20
ATOM     20  C12 <0> d          -0.652  -0.564  -9.157  0.00  0.00    -0.032 C 
ATOM     21  C19 <0> d          -0.766   0.844  -8.787  0.00  0.00     0.009 C 
ATOM     22  C18 <0> d          -0.988   1.791  -9.746  0.00  0.00     0.010 C 
ATOM     23  C15 <0> d          -1.041   1.301 -11.066  0.00  0.00    -0.029 C 
ATOM     24  C14 <0> d          -0.296   0.052 -11.498  0.00  0.00     0.164 C 
ATOM     25  C16 <0> d          -1.793   1.655 -12.122  0.00  0.00     0.028 C 
ATOM     26  C13 <0> d          -0.461  -0.973 -10.416  0.00  0.00     0.014 C 
ATOM     27  N5  <0> d          -0.889  -0.305 -12.779  0.00  0.00    -0.288 NA
ATOM     28  C17 <0> d          -1.710   0.651 -13.113  0.00  0.00     0.112 C 
ENDBRANCH  19  20
ENDBRANCH   5  19
TORSDOF 6
