REMARK  5 active torsions:
REMARK  status: ('A' for Active; 'I' for Inactive)
REMARK    1  A    between atoms: C3_3  and  C12_16 
REMARK       I    between atoms: N1_7  and  C9_10 
REMARK       I    between atoms: C12_16  and  N2_18 
REMARK    2  A    between atoms: N2_18  and  C13_19 
REMARK    3  A    between atoms: C13_19  and  C14_20 
REMARK    4  A    between atoms: C14_20  and  C15_21 
REMARK    5  A    between atoms: C15_21  and  N3_22 
ROOT
ATOM      1  C1  <0> d          -1.256   2.196   0.020  0.00  0.00     0.055 C 
ATOM      2  C2  <0> d          -0.016   1.339   0.009  0.00  0.00     0.028 A 
ATOM      3  C3  <0> d           0.002  -0.004   0.002  0.00  0.00     0.056 A 
ATOM      4  C4  <0> d           1.453  -0.418  -0.014  0.00  0.00     0.107 A 
ATOM      5  C5  <0> d           1.750  -1.230  -1.275  0.00  0.00     0.064 C 
ATOM      6  C6  <0> d           3.237  -1.600  -1.302  0.00  0.00     0.129 C 
ATOM      7  N1  <0> d           3.577  -2.280  -0.044  0.00  0.00    -0.352 N 
ATOM      8  C7  <0> d           3.261  -1.614   1.227  0.00  0.00     0.129 C 
ATOM      9  C8  <0> d           1.774  -1.243   1.232  0.00  0.00     0.064 C 
ATOM     10  C9  <0> d           4.169  -3.490  -0.057  0.00  0.00     0.215 C 
ATOM     11  O1  <0> d           4.446  -4.041   0.988  0.00  0.00    -0.274 OA
ATOM     12  C10 <0> d           4.488  -4.160  -1.369  0.00  0.00     0.117 C 
ATOM     13  O2  <0> d           2.230   0.809  -0.015  0.00  0.00    -0.301 OA
ATOM     14  C11 <0> d           1.367   1.842  -0.001  0.00  0.00     0.290 A 
ATOM     15  O3  <0> d           1.683   3.014   0.002  0.00  0.00    -0.260 OA
ENDROOT
BRANCH   3  16
ATOM     16  C12 <0> d          -1.171  -0.901   0.009  0.00  0.00     0.251 C 
ATOM     17  O4  <0> d          -2.293  -0.435   0.023  0.00  0.00    -0.268 OA
ATOM     18  N2  <0> d          -0.997  -2.238   0.001  0.00  0.00    -0.357 N 
ATOM     19  H15 <0> d           0.019  -2.660  -0.011  0.00  0.00     0.162 HD
BRANCH  18  20
ATOM     20  C13 <0> d          -2.160  -3.128   0.008  0.00  0.00     0.124 C 
BRANCH  20  21
ATOM     21  C14 <0> d          -1.689  -4.584  -0.004  0.00  0.00     0.050 C 
BRANCH  21  22
ATOM     22  C15 <0> d          -2.904  -5.513   0.003  0.00  0.00     0.274 C 
BRANCH  22  23
ATOM     23  N3  <0> d          -2.451  -6.911  -0.008  0.00  0.00     0.091 N 
ATOM     24  C19 <0> d          -3.572  -7.829   0.236  0.00  0.00     0.300 C 
ATOM     25  C18 <0> d          -3.047  -9.266   0.296  0.00  0.00     0.264 C 
ATOM     26  N4  <0> d          -2.371  -9.590  -0.968  0.00  0.00    -0.072 N 
ATOM     27  C17 <0> d          -1.250  -8.671  -1.213  0.00  0.00     0.264 C 
ATOM     28  C20 <0> d          -1.918 -10.988  -0.980  0.00  0.00     0.269 C 
ATOM     29  H33 <0> d          -3.097  -9.465  -1.784  0.00  0.00     0.279 HD
ATOM     30  C16 <0> d          -1.775  -7.235  -1.272  0.00  0.00     0.300 C 
ENDBRANCH  22  23
ENDBRANCH  21  22
ENDBRANCH  20  21
ENDBRANCH  18  20
ENDBRANCH   3  16
TORSDOF 5
