REMARK  4 active torsions:
REMARK  status: ('A' for Active; 'I' for Inactive)
REMARK    1  A    between atoms: C5_5  and  C7_8 
REMARK    2  A    between atoms: C7_8  and  C8_9 
REMARK    3  A    between atoms: C7_8  and  O2_17 
REMARK    4  A    between atoms: C11_12  and  O1_15 
ROOT
ATOM      1  C1  <0> d          -0.018   1.503   0.010  0.00  0.00     0.073 C 
ATOM      2  C2  <0> d           0.002  -0.004   0.002  0.00  0.00     0.064 A 
ATOM      3  C3  <0> d           0.006  -0.686  -1.206  0.00  0.00     0.105 A 
ATOM      4  C4  <0> d           0.026  -2.074  -1.197  0.00  0.00     0.012 A 
ATOM      5  C5  <0> d           0.039  -2.731   0.021  0.00  0.00     0.004 A 
ATOM      6  C6  <0> d           0.034  -1.983   1.185  0.00  0.00     0.127 A 
ATOM      7  N1  <0> d           0.022  -0.665   1.143  0.00  0.00    -0.262 NA
ATOM      8  C15 <0> d           0.038  -2.850  -2.486  0.00  0.00     0.213 C 
ATOM      9  O3  <0> d          -0.346  -1.984  -3.560  0.00  0.00    -0.351 OA
ATOM     10  C16 <0> d           0.357  -0.736  -3.554  0.00  0.00     0.163 C 
ATOM     11  O4  <0> d          -0.013  -0.005  -2.381  0.00  0.00    -0.312 OA
ATOM     12  C17 <0> d           1.865  -0.996  -3.543  0.00  0.00     0.079 C 
ATOM     13  C18 <0> d          -0.018   0.070  -4.800  0.00  0.00     0.079 C 
ENDROOT
BRANCH   5  14
ATOM     14  C7  <0> d           0.058  -4.237   0.079  0.00  0.00     0.186 C 
BRANCH  14  15
ATOM     15  C8  <0> d           1.479  -4.726  -0.031  0.00  0.00    -0.025 A 
ATOM     16  C13 <0> d           1.989  -5.095  -1.262  0.00  0.00     0.013 A 
ATOM     17  C12 <0> d           3.293  -5.538  -1.367  0.00  0.00     0.037 A 
ATOM     18  C11 <0> d           4.088  -5.623  -0.233  0.00  0.00     0.068 A 
ATOM     19  C10 <0> d           3.573  -5.257   1.002  0.00  0.00     0.037 A 
ATOM     20  C9  <0> d           2.270  -4.809   1.100  0.00  0.00     0.013 A 
BRANCH  18  21
ATOM     21  O1  <0> d           5.370  -6.063  -0.333  0.00  0.00    -0.356 OA
ATOM     22  C14 <0> d           5.834  -6.422  -1.636  0.00  0.00     0.210 C 
ENDBRANCH  18  21
ENDBRANCH  14  15
BRANCH  14  23
ATOM     23  O2  <0> d          -0.501  -4.673   1.319  0.00  0.00    -0.386 OA
ATOM     24  H13 <0> d          -0.028  -4.352   2.099  0.00  0.00     0.210 HD
ENDBRANCH  14  23
ENDBRANCH   5  14
TORSDOF 4
