REMARK  8 active torsions:
REMARK  status: ('A' for Active; 'I' for Inactive)
REMARK    1  A    between atoms: C6_6  and  O1_9 
REMARK    2  A    between atoms: O1_9  and  C9_10 
REMARK    3  A    between atoms: C9_10  and  C11_12 
REMARK       I    between atoms: C11_12  and  N1_14 
REMARK    4  A    between atoms: N1_14  and  N2_15 
REMARK       I    between atoms: N2_15  and  C12_16 
REMARK       I    between atoms: C12_16  and  N3_18 
REMARK    5  A    between atoms: N3_18  and  C13_19 
REMARK    6  A    between atoms: C13_19  and  C14_20 
REMARK    7  A    between atoms: C14_20  and  N4_21 
REMARK       I    between atoms: N4_21  and  C15_22 
REMARK    8  A    between atoms: C15_22  and  C16_24 
ROOT
ATOM      1  N2  <0> d          -1.790  -6.526   4.670  0.00  0.00    -0.249 N 
ATOM      2  C12 <0> d          -2.007  -7.850   4.802  0.00  0.00     0.334 C 
ATOM      3  O3  <0> d          -2.646  -8.269   5.747  0.00  0.00    -0.246 OA
ATOM      4  N3  <0> d          -1.516  -8.708   3.886  0.00  0.00    -0.340 N 
ATOM      5  H15 <0> d          -2.143  -5.908   5.328  0.00  0.00     0.192 HD
ATOM      6  H16 <0> d          -1.005  -8.373   3.132  0.00  0.00     0.164 HD
ENDROOT
BRANCH   1   7
ATOM      7  N1  <0> d          -1.053  -6.043   3.580  0.00  0.00    -0.264 N 
ATOM      8  C11 <0> d          -0.835  -4.719   3.448  0.00  0.00     0.265 C 
ATOM      9  O2  <0> d          -1.277  -3.947   4.272  0.00  0.00    -0.269 OA
ATOM     10  H14 <0> d          -0.699  -6.660   2.922  0.00  0.00     0.190 HD
BRANCH   8  11
ATOM     11  C9  <0> d          -0.043  -4.199   2.277  0.00  0.00     0.218 C 
ATOM     12  C10 <0> d           1.363  -4.804   2.303  0.00  0.00     0.050 C 
BRANCH  11  13
ATOM     13  O1  <0> d           0.050  -2.776   2.358  0.00  0.00    -0.336 OA
BRANCH  13  14
ATOM     14  C6  <0> d           0.249  -2.102   1.195  0.00  0.00     0.076 A 
ATOM     15  C5  <0> d           0.465  -2.801   0.016  0.00  0.00     0.037 A 
ATOM     16  C4  <0> d           0.667  -2.114  -1.165  0.00  0.00     0.003 A 
ATOM     17  C3  <0> d           0.653  -0.732  -1.174  0.00  0.00     0.007 A 
ATOM     18  C2  <0> d           0.438  -0.033  -0.000  0.00  0.00    -0.053 A 
ATOM     19  C1  <0> d           0.424   1.474  -0.013  0.00  0.00     0.049 C 
ATOM     20  C7  <0> d           0.242  -0.715   1.185  0.00  0.00    -0.023 A 
ATOM     21  C8  <0> d           0.014   0.048   2.465  0.00  0.00     0.052 C 
ENDBRANCH  13  14
ENDBRANCH  11  13
ENDBRANCH   8  11
ENDBRANCH   1   7
BRANCH   4  22
ATOM     22  C13 <0> d          -1.752 -10.147   4.030  0.00  0.00     0.144 C 
BRANCH  22  23
ATOM     23  C14 <0> d          -1.093 -10.891   2.867  0.00  0.00     0.142 C 
BRANCH  23  24
ATOM     24  N4  <0> d          -1.329 -12.329   3.011  0.00  0.00    -0.354 N 
ATOM     25  C15 <0> d          -0.837 -13.188   2.095  0.00  0.00     0.275 C 
ATOM     26  O4  <0> d          -0.197 -12.768   1.149  0.00  0.00    -0.265 OA
ATOM     27  H21 <0> d          -1.839 -12.664   3.765  0.00  0.00     0.162 HD
BRANCH  25  28
ATOM     28  C16 <0> d          -1.074 -14.628   2.239  0.00  0.00     0.142 A 
ATOM     29  O5  <0> d          -1.763 -15.223   3.235  0.00  0.00    -0.317 OA
ATOM     30  C19 <0> d          -1.775 -16.547   3.038  0.00  0.00     0.143 A 
ATOM     31  C18 <0> d          -1.084 -16.825   1.911  0.00  0.00     0.027 A 
ATOM     32  C17 <0> d          -0.631 -15.602   1.391  0.00  0.00     0.045 A 
ENDBRANCH  25  28
ENDBRANCH  23  24
ENDBRANCH  22  23
ENDBRANCH   4  22
TORSDOF 8
