REMARK  9 active torsions:
REMARK  status: ('A' for Active; 'I' for Inactive)
REMARK    1  A    between atoms: C4_4  and  C7_7 
REMARK    2  A    between atoms: C7_7  and  N1_8 
REMARK    3  A    between atoms: N1_8  and  C8_9 
REMARK    4  A    between atoms: N1_8  and  C15_16 
REMARK    5  A    between atoms: C8_9  and  C9_10 
REMARK    6  A    between atoms: C15_16  and  C16_17 
REMARK       I    between atoms: C16_17  and  N2_19 
REMARK    7  A    between atoms: N2_19  and  N3_20 
REMARK    8  A    between atoms: C17_21  and  C18_22 
REMARK    9  A    between atoms: C22_26  and  O2_28 
ROOT
ATOM      1  N1  <0> d           4.199  -0.834   1.339  0.00  0.00    -0.055 N 
ATOM      2  H24 <0> d           4.109   0.078   1.761  0.00  0.00     0.281 HD
ENDROOT
BRANCH   1   3
ATOM      3  C7  <0> d           3.760  -0.772  -0.061  0.00  0.00     0.274 C 
BRANCH   3   4
ATOM      4  C4  <0> d           2.369  -0.196  -0.127  0.00  0.00    -0.033 A 
ATOM      5  C3  <0> d           2.188   1.174  -0.131  0.00  0.00     0.009 A 
ATOM      6  C2  <0> d           0.912   1.703  -0.192  0.00  0.00     0.001 A 
ATOM      7  C1  <0> d          -0.183   0.861  -0.248  0.00  0.00     0.000 A 
ATOM      8  C6  <0> d          -0.002  -0.510  -0.244  0.00  0.00     0.001 A 
ATOM      9  C5  <0> d           1.274  -1.038  -0.182  0.00  0.00     0.009 A 
ENDBRANCH   3   4
ENDBRANCH   1   3
BRANCH   1  10
ATOM     10  C8  <0> d           3.366  -1.797   2.071  0.00  0.00     0.274 C 
BRANCH  10  11
ATOM     11  C9  <0> d           3.721  -1.759   3.535  0.00  0.00    -0.033 A 
ATOM     12  C14 <0> d           3.147  -0.811   4.361  0.00  0.00     0.009 A 
ATOM     13  C13 <0> d           3.470  -0.779   5.705  0.00  0.00     0.001 A 
ATOM     14  C12 <0> d           4.375  -1.688   6.221  0.00  0.00     0.000 A 
ATOM     15  C11 <0> d           4.953  -2.632   5.393  0.00  0.00     0.001 A 
ATOM     16  C10 <0> d           4.627  -2.667   4.050  0.00  0.00     0.009 A 
ENDBRANCH  10  11
ENDBRANCH   1  10
BRANCH   1  17
ATOM     17  C15 <0> d           5.604  -1.262   1.393  0.00  0.00     0.339 C 
BRANCH  17  18
ATOM     18  C16 <0> d           6.473  -0.213   0.749  0.00  0.00     0.263 C 
ATOM     19  O1  <0> d           5.972   0.792   0.290  0.00  0.00    -0.270 OA
ATOM     20  N2  <0> d           7.807  -0.391   0.683  0.00  0.00    -0.246 N 
ATOM     21  H17 <0> d           8.208  -1.195   1.050  0.00  0.00     0.192 HD
BRANCH  20  22
ATOM     22  N3  <0> d           8.616   0.584   0.085  0.00  0.00    -0.184 NA
ATOM     23  C17 <0> d           9.900   0.412   0.021  0.00  0.00     0.150 C 
BRANCH  23  24
ATOM     24  C18 <0> d          10.751   1.439  -0.609  0.00  0.00    -0.014 A 
ATOM     25  C23 <0> d          12.133   1.257  -0.679  0.00  0.00     0.049 A 
ATOM     26  C22 <0> d          12.925   2.222  -1.278  0.00  0.00     0.066 A 
ATOM     27  C21 <0> d          12.346   3.373  -1.796  0.00  0.00     0.036 A 
ATOM     28  C20 <0> d          10.977   3.557  -1.723  0.00  0.00     0.004 A 
ATOM     29  C19 <0> d          10.178   2.600  -1.134  0.00  0.00     0.013 A 
BRANCH  26  30
ATOM     30  O2  <0> d          14.271   2.046  -1.353  0.00  0.00    -0.361 OA
ATOM     31  H23 <0> d          14.756   2.396  -0.593  0.00  0.00     0.217 HD
ENDBRANCH  26  30
ENDBRANCH  23  24
ENDBRANCH  20  22
ENDBRANCH  17  18
ENDBRANCH   1  17
TORSDOF 9
