REMARK  7 active torsions:
REMARK  status: ('A' for Active; 'I' for Inactive)
REMARK    1  A    between atoms: C2_2  and  N1_3 
REMARK    2  A    between atoms: N1_3  and  C3_4 
REMARK       I    between atoms: N1_3  and  C5_6 
REMARK    3  A    between atoms: C5_6  and  C6_8 
REMARK    4  A    between atoms: C11_13  and  N2_14 
REMARK       I    between atoms: N2_14  and  C12_15 
REMARK    5  A    between atoms: C12_15  and  C13_17 
REMARK       I    between atoms: C13_17  and  N3_19 
REMARK    6  A    between atoms: N3_19  and  C14_20 
REMARK    7  A    between atoms: C14_20  and  C16_22 
ROOT
ATOM      1  N2  <0> d           4.885  -1.488   0.659  0.00  0.00    -0.318 N 
ATOM      2  C12 <0> d           6.137  -1.925   0.416  0.00  0.00     0.314 C 
ATOM      3  O2  <0> d           6.665  -1.690  -0.651  0.00  0.00    -0.262 OA
ATOM      4  H16 <0> d           4.487  -1.617   1.534  0.00  0.00     0.169 HD
ENDROOT
BRANCH   1   5
ATOM      5  C11 <0> d           4.163  -0.851  -0.346  0.00  0.00     0.051 A 
ATOM      6  C6  <0> d           2.773  -1.022  -0.432  0.00  0.00     0.059 A 
ATOM      7  C7  <0> d           2.060  -0.372  -1.442  0.00  0.00     0.019 A 
ATOM      8  C8  <0> d           2.723   0.426  -2.348  0.00  0.00     0.001 A 
ATOM      9  C9  <0> d           4.097   0.589  -2.263  0.00  0.00     0.002 A 
ATOM     10  C10 <0> d           4.816  -0.047  -1.272  0.00  0.00     0.030 A 
BRANCH   6  11
ATOM     11  C5  <0> d           2.069  -1.879   0.541  0.00  0.00     0.256 C 
ATOM     12  N1  <0> d           1.098  -1.359   1.317  0.00  0.00    -0.349 N 
ATOM     13  O1  <0> d           2.365  -3.054   0.643  0.00  0.00    -0.267 OA
BRANCH  12  14
ATOM     14  C2  <0> d           0.671   0.029   1.125  0.00  0.00     0.121 C 
ATOM     15  C1  <0> d           1.445   0.938   2.082  0.00  0.00     0.026 C 
ENDBRANCH  12  14
BRANCH  12  16
ATOM     16  C3  <0> d           0.469  -2.182   2.353  0.00  0.00     0.121 C 
ATOM     17  C4  <0> d          -0.743  -2.905   1.764  0.00  0.00     0.026 C 
ENDBRANCH  12  16
ENDBRANCH   6  11
ENDBRANCH   1   5
BRANCH   2  18
ATOM     18  C13 <0> d           6.874  -2.697   1.460  0.00  0.00     0.310 C 
ATOM     19  O3  <0> d           6.346  -2.932   2.527  0.00  0.00    -0.262 OA
ATOM     20  N3  <0> d           8.125  -3.134   1.217  0.00  0.00    -0.344 N 
ATOM     21  H17 <0> d           8.547  -2.947   0.364  0.00  0.00     0.163 HD
BRANCH  20  22
ATOM     22  C14 <0> d           8.848  -3.892   2.241  0.00  0.00     0.117 C 
ATOM     23  C15 <0> d           9.532  -2.922   3.206  0.00  0.00     0.037 C 
BRANCH  22  24
ATOM     24  C16 <0> d           9.888  -4.762   1.582  0.00  0.00     0.007 A 
ATOM     25  C18 <0> d          10.406  -5.905   2.087  0.00  0.00     0.036 A 
ATOM     26  N5  <0> d          11.300  -6.381   1.196  0.00  0.00    -0.278 N 
ATOM     27  C19 <0> d          10.046  -6.537   3.407  0.00  0.00     0.070 C 
ATOM     28  N4  <0> d          11.340  -5.495   0.111  0.00  0.00    -0.184 NA
ATOM     29  C20 <0> d          12.094  -7.604   1.339  0.00  0.00     0.179 C 
ATOM     30  C17 <0> d          10.493  -4.526   0.343  0.00  0.00     0.150 A 
ENDBRANCH  22  24
ENDBRANCH  20  22
ENDBRANCH   2  18
TORSDOF 7
