REMARK  5 active torsions:
REMARK  status: ('A' for Active; 'I' for Inactive)
REMARK    1  A    between atoms: C2_2  and  C3_3 
REMARK    2  A    between atoms: C2_2  and  O4_21 
REMARK       I    between atoms: C3_3  and  N1_5 
REMARK    3  A    between atoms: N1_5  and  N2_6 
REMARK       I    between atoms: N2_6  and  C4_7 
REMARK    4  A    between atoms: C4_7  and  C5_9 
REMARK    5  A    between atoms: O4_21  and  C14_22 
ROOT
ATOM      1  N2  <0> d          -1.197   1.682  -0.510  0.00  0.00    -0.263 N 
ATOM      2  C4  <0> d          -2.365   1.010  -0.548  0.00  0.00     0.270 C 
ATOM      3  O2  <0> d          -2.378  -0.195  -0.384  0.00  0.00    -0.266 OA
ATOM      4  H6  <0> d          -1.185   2.772  -0.658  0.00  0.00     0.190 HD
ENDROOT
BRANCH   1   5
ATOM      5  N1  <0> d           0.001   0.993  -0.282  0.00  0.00    -0.265 N 
ATOM      6  C3  <0> d           1.169   1.665  -0.249  0.00  0.00     0.265 C 
ATOM      7  O1  <0> d           1.182   2.867  -0.413  0.00  0.00    -0.269 OA
ATOM      8  H5  <0> d          -0.011  -0.096  -0.129  0.00  0.00     0.190 HD
BRANCH   6   9
ATOM      9  C2  <0> d           2.459   0.923  -0.010  0.00  0.00     0.218 C 
ATOM     10  C1  <0> d           2.724  -0.029  -1.178  0.00  0.00     0.050 C 
BRANCH   9  11
ATOM     11  O4  <0> d           3.534   1.858   0.096  0.00  0.00    -0.337 OA
BRANCH  11  12
ATOM     12  C14 <0> d           4.629   1.463   0.797  0.00  0.00     0.071 A 
ATOM     13  C19 <0> d           5.662   2.357   1.034  0.00  0.00     0.055 A 
ATOM     14  C18 <0> d           6.775   1.953   1.748  0.00  0.00     0.013 A 
ATOM     15  C17 <0> d           6.857   0.657   2.226  0.00  0.00     0.019 A 
ATOM     16 Br1  <0> d           8.184   3.171   2.073  0.00  0.00    -0.051 Br
ATOM     17  C16 <0> d           5.828  -0.236   1.991  0.00  0.00     0.004 A 
ATOM     18  C15 <0> d           4.713   0.165   1.282  0.00  0.00     0.037 A 
ENDBRANCH  11  12
ENDBRANCH   9  11
ENDBRANCH   6   9
ENDBRANCH   1   5
BRANCH   2  19
ATOM     19  C5  <0> d          -3.626   1.735  -0.788  0.00  0.00     0.035 A 
ATOM     20  C10 <0> d          -4.837   1.036  -0.833  0.00  0.00     0.048 A 
ATOM     21  C9  <0> d          -6.013   1.724  -1.054  0.00  0.00     0.052 A 
ATOM     22  C8  <0> d          -5.991   3.107  -1.240  0.00  0.00     0.027 A 
ATOM     23  N3  <0> d          -7.240   1.042  -1.101  0.00  0.00    -0.326 N 
ATOM     24  C7  <0> d          -4.787   3.801  -1.201  0.00  0.00     0.022 A 
ATOM     25  S1  <0> d          -7.508   3.962  -1.523  0.00  0.00    -0.127 SA
ATOM     26  C6  <0> d          -3.611   3.120  -0.977  0.00  0.00     0.018 A 
ATOM     27  C13 <0> d          -7.953   3.469  -3.221  0.00  0.00     0.089 C 
ATOM     28  C12 <0> d          -7.644   1.968  -3.361  0.00  0.00     0.113 C 
ATOM     29  C11 <0> d          -8.076   1.228  -2.130  0.00  0.00     0.222 C 
ATOM     30  O3  <0> d          -9.205   0.788  -2.066  0.00  0.00    -0.273 OA
ATOM     31  H10 <0> d          -7.517   0.351  -0.291  0.00  0.00     0.169 HD
ENDBRANCH   2  19
TORSDOF 5
