REMARK  7 active torsions:
REMARK  status: ('A' for Active; 'I' for Inactive)
REMARK    1  A    between atoms: C3_3  and  N1_9 
REMARK    2  A    between atoms: N1_9  and  C8_10 
REMARK    3  A    between atoms: C9_11  and  N6_30 
REMARK    4  A    between atoms: C10_12  and  N4_16 
REMARK    5  A    between atoms: N4_16  and  C12_17 
REMARK    6  A    between atoms: N4_16  and  C19_24 
REMARK    7  A    between atoms: C12_17  and  C13_18 
ROOT
ATOM      1  C8  <0> d           0.103  -0.604  -3.604  0.00  0.00     0.137 A 
ATOM      2  C9  <0> d           0.207   0.071  -4.822  0.00  0.00     0.117 A 
ATOM      3  C10 <0> d           0.297  -0.688  -5.990  0.00  0.00     0.163 A 
ATOM      4  N2  <0> d           0.281  -2.016  -5.899  0.00  0.00    -0.224 NA
ATOM      5  C11 <0> d           0.182  -2.614  -4.729  0.00  0.00     0.211 A 
ATOM      6  N3  <0> d           0.100  -1.935  -3.602  0.00  0.00    -0.335 N 
ATOM      7  H22 <0> d           0.032  -2.412  -2.760  0.00  0.00     0.168 HD
ENDROOT
BRANCH   3   8
ATOM      8  N4  <0> d           0.403  -0.067  -7.231  0.00  0.00    -0.310 N 
BRANCH   8   9
ATOM      9  C12 <0> d           1.714   0.354  -7.730  0.00  0.00     0.171 C 
BRANCH   9  10
ATOM     10  C13 <0> d           2.333  -0.769  -8.522  0.00  0.00    -0.040 A 
ATOM     11  C18 <0> d           2.103  -0.864  -9.882  0.00  0.00     0.009 A 
ATOM     12  C17 <0> d           2.675  -1.892 -10.609  0.00  0.00     0.001 A 
ATOM     13  C16 <0> d           3.470  -2.828  -9.975  0.00  0.00     0.000 A 
ATOM     14  C15 <0> d           3.696  -2.736  -8.614  0.00  0.00     0.001 A 
ATOM     15  C14 <0> d           3.127  -1.706  -7.888  0.00  0.00     0.009 A 
ENDBRANCH   9  10
ENDBRANCH   8   9
BRANCH   8  16
ATOM     16  C19 <0> d          -0.738   0.155  -7.996  0.00  0.00     0.131 A 
ATOM     17  N5  <0> d          -0.618   0.588  -9.242  0.00  0.00    -0.243 NA
ATOM     18  C23 <0> d          -1.673   0.805 -10.003  0.00  0.00     0.119 A 
ATOM     19  C22 <0> d          -2.950   0.599  -9.520  0.00  0.00     0.019 A 
ATOM     20  C21 <0> d          -3.119   0.151  -8.216  0.00  0.00     0.005 A 
ATOM     21  C20 <0> d          -1.994  -0.074  -7.444  0.00  0.00     0.051 A 
ENDBRANCH   8  16
ENDBRANCH   3   8
BRANCH   2  22
ATOM     22  N6  <0> d           0.220   1.473  -4.871  0.00  0.00    -0.393 N 
ATOM     23  H20 <0> d           0.231   1.987  -4.049  0.00  0.00     0.156 HD
ATOM     24  H21 <0> d           0.218   1.929  -5.728  0.00  0.00     0.156 HD
ENDBRANCH   2  22
BRANCH   1  25
ATOM     25  N1  <0> d           0.010   0.104  -2.411  0.00  0.00    -0.340 N 
ATOM     26  H7  <0> d          -0.079   1.070  -2.425  0.00  0.00     0.167 HD
BRANCH  25  27
ATOM     27  C3  <0> d           0.045  -0.576  -1.191  0.00  0.00     0.041 A 
ATOM     28  C2  <0> d           1.212  -1.208  -0.779  0.00  0.00    -0.013 A 
ATOM     29  C1  <0> d           2.442  -1.163  -1.649  0.00  0.00     0.052 C 
ATOM     30  C7  <0> d           1.241  -1.884   0.426  0.00  0.00     0.042 A 
ATOM     31  C6  <0> d           0.112  -1.922   1.227  0.00  0.00     0.024 A 
ATOM     32 Cl1  <0> d           2.696  -2.680   0.939  0.00  0.00    -0.084 Cl
ATOM     33  C5  <0> d          -1.050  -1.294   0.820  0.00  0.00     0.004 A 
ATOM     34  C4  <0> d          -1.087  -0.621  -0.386  0.00  0.00     0.030 A 
ENDBRANCH  25  27
ENDBRANCH   1  25
TORSDOF 7
