REMARK  3 active torsions:
REMARK  status: ('A' for Active; 'I' for Inactive)
REMARK    1  A    between atoms: C6_6  and  O1_7 
REMARK    2  A    between atoms: O1_7  and  C7_8 
REMARK    3  A    between atoms: C11_12  and  O2_13 
ROOT
ATOM      1  C1  <0> d          -0.004   1.365   0.223  0.00  0.00     0.039 A 
ATOM      2  C2  <0> d           1.182   2.072   0.208  0.00  0.00     0.033 A 
ATOM      3  C3  <0> d           2.380   1.414  -0.035  0.00  0.00     0.041 A 
ATOM      4  C4  <0> d           2.384   0.044  -0.264  0.00  0.00    -0.028 A 
ATOM      5  C5  <0> d           1.198  -0.662  -0.249  0.00  0.00     0.046 A 
ATOM      6  C6  <0> d           0.002  -0.004  -0.005  0.00  0.00     0.070 A 
ATOM      7  C12 <0> d           3.686  -0.667  -0.527  0.00  0.00     0.050 C 
ATOM      8  C13 <0> d           4.627   0.257  -1.299  0.00  0.00     0.108 C 
ATOM      9  C14 <0> d           4.678   1.607  -0.635  0.00  0.00     0.222 C 
ATOM     10  O3  <0> d           5.718   2.232  -0.627  0.00  0.00    -0.273 OA
ATOM     11  N1  <0> d           3.584   2.128  -0.051  0.00  0.00    -0.327 N 
ATOM     12  H17 <0> d           3.630   3.005   0.362  0.00  0.00     0.169 HD
ENDROOT
BRANCH   6  13
ATOM     13  O1  <0> d          -1.166  -0.700   0.010  0.00  0.00    -0.343 OA
BRANCH  13  14
ATOM     14  C7  <0> d          -1.076  -2.121  -0.110  0.00  0.00     0.157 C 
ATOM     15  C11 <0> d          -2.323  -2.781   0.503  0.00  0.00     0.147 C 
ATOM     16  C10 <0> d          -3.011  -3.564  -0.636  0.00  0.00     0.034 C 
ATOM     17  C9  <0> d          -1.873  -3.835  -1.651  0.00  0.00     0.005 C 
ATOM     18  C8  <0> d          -1.048  -2.525  -1.598  0.00  0.00     0.035 C 
BRANCH  15  19
ATOM     19  O2  <0> d          -1.940  -3.675   1.550  0.00  0.00    -0.393 OA
ATOM     20  H12 <0> d          -2.683  -4.123   1.977  0.00  0.00     0.210 HD
ENDBRANCH  15  19
ENDBRANCH  13  14
ENDBRANCH   6  13
TORSDOF 3
