REMARK  4 active torsions:
REMARK  status: ('A' for Active; 'I' for Inactive)
REMARK    1  A    between atoms: C5_5  and  N1_9 
REMARK       I    between atoms: N1_9  and  C9_10 
REMARK    2  A    between atoms: C9_10  and  C10_12 
REMARK    3  A    between atoms: N2_18  and  C18_24 
REMARK    4  A    between atoms: C18_24  and  C19_25 
ROOT
ATOM      1  C10 <0> d          -3.688   2.139  -0.109  0.00  0.00     0.034 A 
ATOM      2  C11 <0> d          -3.712   3.535  -0.095  0.00  0.00     0.018 A 
ATOM      3  C12 <0> d          -4.915   4.200  -0.222  0.00  0.00     0.024 A 
ATOM      4  C13 <0> d          -6.091   3.489  -0.351  0.00  0.00     0.059 A 
ATOM      5  C14 <0> d          -6.087   2.099  -0.358  0.00  0.00     0.057 A 
ATOM      6  C15 <0> d          -4.877   1.424  -0.237  0.00  0.00     0.048 A 
ATOM      7  N2  <0> d          -7.263   1.367  -0.480  0.00  0.00    -0.312 N 
ATOM      8  C16 <0> d          -8.412   1.798  -0.994  0.00  0.00     0.236 C 
ATOM      9  O2  <0> d          -9.345   1.026  -1.042  0.00  0.00    -0.272 OA
ATOM     10  C17 <0> d          -8.614   3.194  -1.518  0.00  0.00     0.217 C 
ATOM     11  S1  <0> d          -7.628   4.344  -0.513  0.00  0.00     0.061 S 
ATOM     12  O3  <0> d          -8.144   4.378   0.811  0.00  0.00    -0.252 OA
ENDROOT
BRANCH   1  13
ATOM     13  C9  <0> d          -2.403   1.420   0.018  0.00  0.00     0.256 C 
ATOM     14  N1  <0> d          -1.253   2.112   0.142  0.00  0.00    -0.322 N 
ATOM     15  H10 <0> d          -1.276   3.209   0.215  0.00  0.00     0.169 HD
ATOM     16  O1  <0> d          -2.383   0.204   0.011  0.00  0.00    -0.267 OA
BRANCH  14  17
ATOM     17  C5  <0> d          -0.030   1.435   0.179  0.00  0.00     0.041 A 
ATOM     18  C4  <0> d           0.057   0.187   0.783  0.00  0.00     0.030 A 
ATOM     19  C3  <0> d           1.265  -0.482   0.812  0.00  0.00     0.009 A 
ATOM     20  C2  <0> d           2.387   0.090   0.241  0.00  0.00    -0.061 A 
ATOM     21  C1  <0> d           3.704  -0.642   0.276  0.00  0.00     0.048 C 
ATOM     22  C7  <0> d           2.304   1.332  -0.360  0.00  0.00     0.015 A 
ATOM     23  C6  <0> d           1.099   2.006  -0.393  0.00  0.00    -0.035 A 
ATOM     24  C8  <0> d           1.010   3.360  -1.050  0.00  0.00     0.050 C 
ENDBRANCH  14  17
ENDBRANCH   1  13
BRANCH   7  25
ATOM     25  C18 <0> d          -7.234  -0.016   0.004  0.00  0.00     0.170 C 
BRANCH  25  26
ATOM     26  C19 <0> d          -7.721  -0.059   1.429  0.00  0.00    -0.040 A 
ATOM     27  C24 <0> d          -9.065  -0.239   1.695  0.00  0.00     0.012 A 
ATOM     28  C23 <0> d          -9.513  -0.280   3.001  0.00  0.00     0.043 A 
ATOM     29  C22 <0> d          -8.614  -0.140   4.045  0.00  0.00     0.116 A 
ATOM     30  C21 <0> d          -7.267   0.040   3.778  0.00  0.00     0.043 A 
ATOM     31  F1  <0> d          -9.050  -0.179   5.323  0.00  0.00    -0.206 F 
ATOM     32  C20 <0> d          -6.821   0.074   2.470  0.00  0.00     0.012 A 
ENDBRANCH  25  26
ENDBRANCH   7  25
TORSDOF 4
