REMARK  4 active torsions:
REMARK  status: ('A' for Active; 'I' for Inactive)
REMARK    1  A    between atoms: C7_7  and  N1_8 
REMARK       I    between atoms: N1_8  and  C8_9 
REMARK    2  A    between atoms: C8_9  and  C9_11 
REMARK    3  A    between atoms: C12_17  and  C13_18 
REMARK    4  A    between atoms: C16_21  and  O3_25 
ROOT
ATOM      1  C9  <0> d          -1.501  -4.441  -0.361  0.00  0.00     0.059 A 
ATOM      2  C10 <0> d          -1.557  -5.701  -0.839  0.00  0.00     0.024 A 
ATOM      3  N2  <0> d          -0.662  -6.142  -1.773  0.00  0.00    -0.312 N 
ATOM      4  C11 <0> d           0.319  -5.383  -2.277  0.00  0.00     0.321 A 
ATOM      5  O2  <0> d           1.068  -5.864  -3.106  0.00  0.00    -0.247 OA
ATOM      6  N3  <0> d           0.502  -4.103  -1.897  0.00  0.00    -0.330 N 
ATOM      7  C12 <0> d          -0.412  -3.532  -0.894  0.00  0.00     0.160 A 
ATOM      8  C19 <0> d          -2.625  -6.638  -0.336  0.00  0.00     0.069 C 
ATOM      9  H10 <0> d          -0.742  -7.056  -2.088  0.00  0.00     0.170 HD
ATOM     10  H11 <0> d           1.219  -3.571  -2.276  0.00  0.00     0.165 HD
ENDROOT
BRANCH   1  11
ATOM     11  C8  <0> d          -2.429  -3.982   0.606  0.00  0.00     0.256 C 
ATOM     12  N1  <0> d          -3.661  -3.590   0.224  0.00  0.00    -0.323 N 
ATOM     13  H9  <0> d          -3.939  -3.694  -0.699  0.00  0.00     0.169 HD
ATOM     14  O1  <0> d          -2.114  -3.942   1.781  0.00  0.00    -0.267 OA
BRANCH  12  15
ATOM     15  C7  <0> d          -4.538  -3.032   1.160  0.00  0.00     0.041 A 
ATOM     16  C2  <0> d          -5.463  -2.075   0.763  0.00  0.00    -0.035 A 
ATOM     17  C1  <0> d          -5.523  -1.636  -0.677  0.00  0.00     0.050 C 
ATOM     18  C3  <0> d          -6.328  -1.527   1.690  0.00  0.00     0.009 A 
ATOM     19  C4  <0> d          -6.274  -1.929   3.011  0.00  0.00     0.001 A 
ATOM     20  C5  <0> d          -5.353  -2.881   3.410  0.00  0.00     0.002 A 
ATOM     21  C6  <0> d          -4.490  -3.438   2.488  0.00  0.00     0.030 A 
ENDBRANCH  12  15
ENDBRANCH   1  11
BRANCH   7  22
ATOM     22  C13 <0> d          -1.073  -2.322  -1.504  0.00  0.00    -0.029 A 
ATOM     23  C18 <0> d          -1.024  -1.106  -0.849  0.00  0.00     0.031 A 
ATOM     24  C17 <0> d          -1.630   0.005  -1.406  0.00  0.00     0.044 A 
ATOM     25  C16 <0> d          -2.287  -0.102  -2.624  0.00  0.00     0.083 A 
ATOM     26 Br1  <0> d          -1.564   1.668  -0.509  0.00  0.00    -0.048 Br
ATOM     27  C15 <0> d          -2.339  -1.326  -3.276  0.00  0.00     0.038 A 
ATOM     28  C14 <0> d          -1.727  -2.431  -2.717  0.00  0.00     0.012 A 
BRANCH  25  29
ATOM     29  O3  <0> d          -2.883   0.988  -3.174  0.00  0.00    -0.359 OA
ATOM     30  H15 <0> d          -2.305   1.501  -3.755  0.00  0.00     0.217 HD
ENDBRANCH  25  29
ENDBRANCH   7  22
TORSDOF 4
