REMARK  5 active torsions:
REMARK  status: ('A' for Active; 'I' for Inactive)
REMARK    1  A    between atoms: C2_2  and  N1_3 
REMARK    2  A    between atoms: C6_7  and  C7_8 
REMARK       I    between atoms: C7_8  and  N2_10 
REMARK    3  A    between atoms: N2_10  and  C8_11 
REMARK    4  A    between atoms: C8_11  and  C9_12 
REMARK    5  A    between atoms: C9_12  and  O2_14 
ROOT
ATOM      1  C7  <0> d          -1.284  -0.643   2.753  0.00  0.00     0.268 C 
ATOM      2  O1  <0> d          -1.647  -0.786   3.905  0.00  0.00    -0.266 OA
ATOM      3  N2  <0> d          -2.187  -0.370   1.790  0.00  0.00    -0.353 N 
ATOM      4  H9  <0> d          -1.909  -0.331   0.862  0.00  0.00     0.162 HD
ENDROOT
BRANCH   1   5
ATOM      5  C6  <0> d           0.137  -0.769   2.411  0.00  0.00     0.104 A 
ATOM      6  N1  <0> d           1.150  -1.141   3.265  0.00  0.00    -0.351 N 
ATOM      7  C3  <0> d           2.318  -1.145   2.578  0.00  0.00     0.110 A 
ATOM      8  C4  <0> d           2.074  -0.776   1.297  0.00  0.00     0.028 A 
ATOM      9  C5  <0> d           0.702  -0.532   1.175  0.00  0.00     0.056 A 
ATOM     10 Br1  <0> d           3.359  -0.620  -0.081  0.00  0.00    -0.050 Br
BRANCH   6  11
ATOM     11  C2  <0> d           0.990  -1.483   4.681  0.00  0.00     0.124 C 
ATOM     12  C1  <0> d           0.503  -2.928   4.805  0.00  0.00     0.027 C 
ENDBRANCH   6  11
ENDBRANCH   1   5
BRANCH   3  13
ATOM     13  C8  <0> d          -3.588  -0.133   2.147  0.00  0.00     0.154 C 
BRANCH  13  14
ATOM     14  C9  <0> d          -4.395   0.152   0.879  0.00  0.00     0.132 C 
ATOM     15  C10 <0> d          -5.830   0.522   1.260  0.00  0.00     0.041 C 
BRANCH  14  16
ATOM     16  O2  <0> d          -4.408  -1.012   0.050  0.00  0.00    -0.394 OA
ATOM     17  H15 <0> d          -4.903  -0.904  -0.773  0.00  0.00     0.210 HD
ENDBRANCH  14  16
ENDBRANCH  13  14
ENDBRANCH   3  13
TORSDOF 5
