REMARK  5 active torsions:
REMARK  status: ('A' for Active; 'I' for Inactive)
REMARK    1  A    between atoms: C3_4  and  C5_7 
REMARK    2  A    between atoms: C6_8  and  C7_9 
REMARK       I    between atoms: C7_9  and  N3_11 
REMARK    3  A    between atoms: N3_11  and  C8_12 
REMARK    4  A    between atoms: C13_17  and  C14_18 
REMARK    5  A    between atoms: C14_18  and  C15_19 
REMARK       I    between atoms: C15_19  and  N4_21 
ROOT
ATOM      1  C8  <0> d           0.508  -5.987   2.393  0.00  0.00     0.041 A 
ATOM      2  C9  <0> d           0.284  -4.885   3.208  0.00  0.00     0.030 A 
ATOM      3  C10 <0> d           0.397  -5.008   4.579  0.00  0.00     0.002 A 
ATOM      4  C11 <0> d           0.733  -6.226   5.141  0.00  0.00     0.001 A 
ATOM      5  C12 <0> d           0.958  -7.325   4.332  0.00  0.00     0.010 A 
ATOM      6  C13 <0> d           0.840  -7.211   2.961  0.00  0.00    -0.023 A 
ENDROOT
BRANCH   1   7
ATOM      7  N3  <0> d           0.395  -5.867   1.005  0.00  0.00    -0.323 N 
ATOM      8  C7  <0> d           0.477  -4.653   0.425  0.00  0.00     0.245 C 
ATOM      9  O1  <0> d           0.619  -3.658   1.112  0.00  0.00    -0.268 OA
ATOM     10  H8  <0> d           0.257  -6.657   0.459  0.00  0.00     0.169 HD
BRANCH   8  11
ATOM     11  C6  <0> d           0.398  -4.535  -0.986  0.00  0.00     0.075 C 
ATOM     12  C5  <0> d           0.316  -3.314  -1.557  0.00  0.00     0.020 C 
BRANCH  12  13
ATOM     13  C3  <0> d          -0.010  -2.139  -0.737  0.00  0.00     0.000 A 
ATOM     14  C2  <0> d           0.604  -0.901  -0.795  0.00  0.00     0.124 A 
ATOM     15  N1  <0> d           0.008  -0.114   0.118  0.00  0.00    -0.285 N 
ATOM     16  C1  <0> d           0.347   1.284   0.395  0.00  0.00     0.179 C 
ATOM     17  N2  <0> d          -0.987  -0.858   0.763  0.00  0.00    -0.185 NA
ATOM     18  C4  <0> d          -1.011  -2.061   0.259  0.00  0.00     0.151 A 
ENDBRANCH  12  13
ENDBRANCH   8  11
ENDBRANCH   1   7
BRANCH   6  19
ATOM     19  C14 <0> d           1.079  -8.411   2.081  0.00  0.00     0.144 C 
BRANCH  19  20
ATOM     20  C15 <0> d           2.508  -8.408   1.604  0.00  0.00     0.223 C 
ATOM     21  O2  <0> d           3.259  -7.519   1.945  0.00  0.00    -0.273 OA
ATOM     22  N4  <0> d           2.952  -9.393   0.798  0.00  0.00    -0.361 N 
ATOM     23  C16 <0> d           4.341  -9.390   0.335  0.00  0.00     0.152 C 
ATOM     24  C17 <0> d           2.044 -10.467   0.386  0.00  0.00     0.152 C 
ENDBRANCH  19  20
ENDBRANCH   6  19
TORSDOF 5
