REMARK  7 active torsions:
REMARK  status: ('A' for Active; 'I' for Inactive)
REMARK    1  A    between atoms: C4_4  and  N1_7 
REMARK       I    between atoms: N1_7  and  C7_8 
REMARK    2  A    between atoms: C7_8  and  C8_10 
REMARK    3  A    between atoms: C8_10  and  C9_11 
REMARK    4  A    between atoms: C11_15  and  N3_17 
REMARK    5  A    between atoms: N3_17  and  N4_18 
REMARK    6  A    between atoms: N4_18  and  C12_19 
REMARK    7  A    between atoms: C12_19  and  C13_20 
ROOT
ATOM      1  C9  <0> d           4.708  -4.227   0.249  0.00  0.00     0.158 A 
ATOM      2  C10 <0> d           6.015  -5.007   0.331  0.00  0.00     0.260 A 
ATOM      3  O2  <0> d           6.837  -4.994  -0.565  0.00  0.00    -0.270 OA
ATOM      4  N2  <0> d           6.190  -5.689   1.429  0.00  0.00    -0.185 NA
ATOM      5  C11 <0> d           5.322  -5.733   2.432  0.00  0.00     0.213 A 
ATOM      6  S1  <0> d           3.982  -4.684   1.879  0.00  0.00    -0.073 SA
ENDROOT
BRANCH   1   7
ATOM      7  C8  <0> d           4.962  -2.721   0.153  0.00  0.00     0.128 C 
BRANCH   7   8
ATOM      8  C7  <0> d           3.645  -1.995   0.057  0.00  0.00     0.223 C 
ATOM      9  N1  <0> d           3.622  -0.651  -0.037  0.00  0.00    -0.327 N 
ATOM     10  H7  <0> d           4.452  -0.156  -0.121  0.00  0.00     0.169 HD
ATOM     11  O1  <0> d           2.606  -2.620   0.064  0.00  0.00    -0.273 OA
BRANCH   9  12
ATOM     12  C4  <0> d           2.400   0.031  -0.015  0.00  0.00     0.034 A 
ATOM     13  C3  <0> d           1.344  -0.457   0.743  0.00  0.00     0.029 A 
ATOM     14  C2  <0> d           0.140   0.218   0.763  0.00  0.00     0.002 A 
ATOM     15  C1  <0> d          -0.015   1.381   0.029  0.00  0.00     0.000 A 
ATOM     16  C6  <0> d           1.034   1.870  -0.727  0.00  0.00     0.002 A 
ATOM     17  C5  <0> d           2.241   1.198  -0.751  0.00  0.00     0.029 A 
ENDBRANCH   9  12
ENDBRANCH   7   8
ENDBRANCH   1   7
BRANCH   5  18
ATOM     18  N3  <0> d           5.427  -6.418   3.608  0.00  0.00    -0.123 NA
BRANCH  18  19
ATOM     19  N4  <0> d           6.563  -7.196   3.868  0.00  0.00    -0.159 NA
BRANCH  19  20
ATOM     20  C12 <0> d           6.663  -7.846   4.986  0.00  0.00     0.153 C 
BRANCH  20  21
ATOM     21  C13 <0> d           7.859  -8.665   5.258  0.00  0.00     0.001 A 
ATOM     22  C17 <0> d           8.891  -8.749   4.322  0.00  0.00     0.129 A 
ATOM     23  N5  <0> d           9.961  -9.475   4.568  0.00  0.00    -0.272 NA
ATOM     24  C16 <0> d          10.098 -10.156   5.690  0.00  0.00     0.116 A 
ATOM     25  C15 <0> d           9.118 -10.130   6.666  0.00  0.00     0.020 A 
ATOM     26  C14 <0> d           7.976  -9.377   6.460  0.00  0.00     0.016 A 
ENDBRANCH  20  21
ENDBRANCH  19  20
ENDBRANCH  18  19
ENDBRANCH   5  18
TORSDOF 7
