REMARK  4 active torsions:
REMARK  status: ('A' for Active; 'I' for Inactive)
REMARK    1  A    between atoms: C2_3  and  N3_10 
REMARK       I    between atoms: N3_10  and  C8_11 
REMARK    2  A    between atoms: C8_11  and  C9_13 
REMARK    3  A    between atoms: N4_16  and  S1_19 
REMARK    4  A    between atoms: S1_19  and  C14_22 
ROOT
ATOM      1  C9  <0> d          -3.080  -2.664   3.719  0.00  0.00     0.081 C 
ATOM      2  C10 <0> d          -3.761  -1.646   2.802  0.00  0.00     0.034 C 
ATOM      3  C11 <0> d          -2.699  -0.731   2.183  0.00  0.00     0.136 C 
ATOM      4  N4  <0> d          -1.689  -1.563   1.516  0.00  0.00    -0.306 N 
ATOM      5  C12 <0> d          -1.040  -2.637   2.281  0.00  0.00     0.136 C 
ATOM      6  C13 <0> d          -2.117  -3.527   2.900  0.00  0.00     0.034 C 
ENDROOT
BRANCH   1   7
ATOM      7  C8  <0> d          -4.125  -3.544   4.356  0.00  0.00     0.227 C 
ATOM      8  N3  <0> d          -3.755  -4.521   5.208  0.00  0.00    -0.311 N 
ATOM      9  H10 <0> d          -2.688  -4.724   5.381  0.00  0.00     0.170 HD
ATOM     10  O1  <0> d          -5.298  -3.373   4.101  0.00  0.00    -0.273 OA
BRANCH   8  11
ATOM     11  C2  <0> d          -4.725  -5.273   5.870  0.00  0.00     0.134 A 
ATOM     12  N1  <0> d          -4.579  -5.894   7.061  0.00  0.00    -0.257 N 
ATOM     13  C1  <0> d          -3.370  -5.897   7.889  0.00  0.00     0.182 C 
ATOM     14  N2  <0> d          -5.786  -6.534   7.365  0.00  0.00    -0.175 NA
ATOM     15  C4  <0> d          -6.632  -6.307   6.389  0.00  0.00     0.065 A 
ATOM     16  C3  <0> d          -5.995  -5.510   5.435  0.00  0.00     0.014 A 
ATOM     17  C5  <0> d          -8.047  -6.599   5.940  0.00  0.00     0.062 C 
ATOM     18  C7  <0> d          -6.944  -5.232   4.290  0.00  0.00     0.045 C 
ATOM     19  C6  <0> d          -8.067  -6.282   4.430  0.00  0.00     0.011 C 
ENDBRANCH   8  11
ENDBRANCH   1   7
BRANCH   4  20
ATOM     20  S1  <0> d          -1.293  -1.300  -0.070  0.00  0.00     0.267 S 
ATOM     21  O2  <0> d          -2.409  -0.651  -0.665  0.00  0.00    -0.200 OA
ATOM     22  O3  <0> d          -0.771  -2.525  -0.567  0.00  0.00    -0.200 OA
BRANCH  20  23
ATOM     23  C14 <0> d           0.034  -0.141  -0.091  0.00  0.00     0.120 A 
ATOM     24  S2  <0> d          -0.031   1.641  -0.160  0.00  0.00    -0.088 SA
ATOM     25  C17 <0> d           1.725   1.958  -0.142  0.00  0.00     0.051 A 
ATOM     26  C16 <0> d           2.236   0.704  -0.086  0.00  0.00     0.009 A 
ATOM     27  C15 <0> d           1.369  -0.372  -0.060  0.00  0.00     0.033 A 
ENDBRANCH  20  23
ENDBRANCH   4  20
TORSDOF 4
