REMARK  5 active torsions:
REMARK  status: ('A' for Active; 'I' for Inactive)
REMARK    1  A    between atoms: C2_2  and  C3_3 
REMARK    2  A    between atoms: C3_3  and  N1_4 
REMARK       I    between atoms: N1_4  and  C4_5 
REMARK    3  A    between atoms: C4_5  and  C5_7 
REMARK    4  A    between atoms: C5_7  and  N2_9 
REMARK       I    between atoms: N2_9  and  C7_10 
REMARK    5  A    between atoms: C7_10  and  C8_12 
ROOT
ATOM      1  N2  <0> d           2.027  -4.602  -3.498  0.00  0.00    -0.343 N 
ATOM      2  C7  <0> d           1.753  -5.825  -3.994  0.00  0.00     0.270 C 
ATOM      3  O2  <0> d           0.938  -6.536  -3.441  0.00  0.00    -0.266 OA
ATOM      4  H13 <0> d           2.678  -4.035  -3.940  0.00  0.00     0.163 HD
ENDROOT
BRANCH   1   5
ATOM      5  C5  <0> d           1.341  -4.130  -2.293  0.00  0.00     0.172 C 
ATOM      6  C6  <0> d           2.082  -4.636  -1.054  0.00  0.00     0.042 C 
BRANCH   5   7
ATOM      7  C4  <0> d           1.321  -2.623  -2.285  0.00  0.00     0.240 C 
ATOM      8  N1  <0> d           0.738  -1.962  -1.265  0.00  0.00    -0.359 N 
ATOM      9  H9  <0> d           0.332  -2.457  -0.536  0.00  0.00     0.162 HD
ATOM     10  O1  <0> d           1.829  -2.004  -3.196  0.00  0.00    -0.271 OA
BRANCH   8  11
ATOM     11  C3  <0> d           0.718  -0.497  -1.257  0.00  0.00     0.122 C 
BRANCH  11  12
ATOM     12  C2  <0> d           0.002  -0.004   0.002  0.00  0.00     0.015 C 
ATOM     13  C1  <0> d          -0.019   1.526   0.010  0.00  0.00     0.006 C 
ENDBRANCH  11  12
ENDBRANCH   8  11
ENDBRANCH   5   7
ENDBRANCH   1   5
BRANCH   2  14
ATOM     14  C8  <0> d           2.447  -6.303  -5.213  0.00  0.00     0.124 A 
ATOM     15  N3  <0> d           3.337  -5.522  -5.812  0.00  0.00    -0.254 NA
ATOM     16  C12 <0> d           3.978  -5.909  -6.892  0.00  0.00     0.136 A 
ATOM     17  C11 <0> d           3.738  -7.154  -7.455  0.00  0.00     0.028 A 
ATOM     18  C10 <0> d           2.811  -8.000  -6.863  0.00  0.00     0.023 A 
ATOM     19 Br1  <0> d           4.664  -7.693  -9.013  0.00  0.00    -0.050 Br
ATOM     20  C9  <0> d           2.155  -7.566  -5.723  0.00  0.00     0.039 A 
ENDBRANCH   2  14
TORSDOF 5
