REMARK  4 active torsions:
REMARK  status: ('A' for Active; 'I' for Inactive)
REMARK    1  A    between atoms: C3_4  and  C5_7 
REMARK    2  A    between atoms: C5_7  and  S1_8 
REMARK    3  A    between atoms: S1_8  and  C6_11 
REMARK    4  A    between atoms: C10_16  and  N4_20 
ROOT
ATOM      1  C6  <0> d           5.663  -1.900   1.506  0.00  0.00     0.194 A 
ATOM      2  N3  <0> d           6.877  -1.427   1.437  0.00  0.00    -0.229 NA
ATOM      3  C7  <0> d           7.964  -2.221   1.314  0.00  0.00     0.076 A 
ATOM      4  C8  <0> d           9.322  -1.835   1.229  0.00  0.00     0.035 A 
ATOM      5  C9  <0> d          10.306  -2.765   1.106  0.00  0.00     0.031 A 
ATOM      6  C10 <0> d          10.020  -4.129   1.059  0.00  0.00     0.027 A 
ATOM      7  C11 <0> d           8.699  -4.546   1.140  0.00  0.00     0.050 A 
ATOM      8  C12 <0> d           7.703  -3.609   1.264  0.00  0.00     0.038 A 
ATOM      9  S2  <0> d           5.933  -3.663   1.405  0.00  0.00    -0.056 SA
ENDROOT
BRANCH   1  10
ATOM     10  S1  <0> d           4.144  -1.022   1.667  0.00  0.00     0.206 S 
ATOM     11  O1  <0> d           4.496   0.201   2.300  0.00  0.00    -0.220 OA
ATOM     12  O2  <0> d           3.261  -1.937   2.300  0.00  0.00    -0.220 OA
BRANCH  10  13
ATOM     13  C5  <0> d           3.603  -0.710  -0.037  0.00  0.00     0.228 C 
BRANCH  13  14
ATOM     14  C3  <0> d           2.298   0.044  -0.020  0.00  0.00     0.139 A 
ATOM     15  N1  <0> d           2.319   1.362  -0.013  0.00  0.00    -0.245 NA
ATOM     16  C2  <0> d           1.193   2.058   0.002  0.00  0.00     0.120 A 
ATOM     17  C1  <0> d          -0.017   1.382   0.010  0.00  0.00     0.038 A 
ATOM     18  C4  <0> d           0.002  -0.004   0.002  0.00  0.00     0.120 A 
ATOM     19  N2  <0> d           1.167  -0.632  -0.013  0.00  0.00    -0.245 NA
ENDBRANCH  13  14
ENDBRANCH  10  13
ENDBRANCH   1  10
BRANCH   6  20
ATOM     20  N4  <0> d          11.052  -5.064   0.931  0.00  0.00    -0.399 N 
ATOM     21  H9  <0> d          11.973  -4.766   0.875  0.00  0.00     0.156 HD
ATOM     22  H10 <0> d          10.846  -6.012   0.899  0.00  0.00     0.156 HD
ENDBRANCH   6  20
TORSDOF 4
