REMARK  3 active torsions:
REMARK  status: ('A' for Active; 'I' for Inactive)
REMARK    1  A    between atoms: N1_2  and  C2_3 
REMARK    2  A    between atoms: C2_3  and  C3_4 
REMARK    3  A    between atoms: C2_3  and  C9_11 
ROOT
ATOM      1  C9  <0> d           0.093  -0.106   2.511  0.00  0.00    -0.004 A 
ATOM      2  C10 <0> d          -1.280   0.002   2.620  0.00  0.00     0.043 A 
ATOM      3  C11 <0> d          -1.851   0.356   3.833  0.00  0.00     0.064 A 
ATOM      4  C12 <0> d          -1.035   0.603   4.939  0.00  0.00     0.064 A 
ATOM      5  C13 <0> d           0.342   0.493   4.821  0.00  0.00     0.051 A 
ATOM      6  C14 <0> d           0.901   0.134   3.609  0.00  0.00     0.021 A 
ATOM      7 Br1  <0> d           2.779  -0.024   3.449  0.00  0.00    -0.050 Br
ATOM      8  N2  <0> d          -1.880   0.931   5.997  0.00  0.00    -0.306 N 
ATOM      9  H2  <0> d          -1.601   1.155   6.898  0.00  0.00     0.170 HD
ATOM     10  C15 <0> d          -3.151   0.886   5.554  0.00  0.00     0.325 A 
ATOM     11  O1  <0> d          -4.136   1.122   6.228  0.00  0.00    -0.247 OA
ATOM     12  N3  <0> d          -3.166   0.542   4.253  0.00  0.00    -0.306 N 
ATOM     13  H3  <0> d          -3.958   0.441   3.701  0.00  0.00     0.170 HD
ENDROOT
BRANCH   1  14
ATOM     14  C2  <0> d           0.713  -0.491   1.192  0.00  0.00     0.255 C 
BRANCH  14  15
ATOM     15  N1  <0> d          -0.178  -0.087   0.096  0.00  0.00    -0.067 N 
ATOM     16  C1  <0> d          -0.281   1.378   0.064  0.00  0.00     0.268 C 
ATOM     17  H7  <0> d          -1.093  -0.485   0.242  0.00  0.00     0.277 HD
ATOM     18  H14 <0> d           0.197  -0.417  -0.781  0.00  0.00     0.277 HD
ENDBRANCH  14  15
BRANCH  14  19
ATOM     19  C3  <0> d           0.916  -1.983   1.150  0.00  0.00     0.015 A 
ATOM     20  C8  <0> d           1.765  -2.540   0.208  0.00  0.00     0.125 A 
ATOM     21  C7  <0> d           1.956  -3.911   0.174  0.00  0.00     0.043 A 
ATOM     22  F1  <0> d           2.412  -1.745  -0.672  0.00  0.00    -0.205 F 
ATOM     23  C6  <0> d           1.290  -4.723   1.072  0.00  0.00     0.003 A 
ATOM     24  C5  <0> d           0.438  -4.167   2.008  0.00  0.00     0.001 A 
ATOM     25  C4  <0> d           0.251  -2.798   2.047  0.00  0.00     0.013 A 
ENDBRANCH  14  19
ENDBRANCH   1  14
TORSDOF 3
