REMARK  4 active torsions:
REMARK  status: ('A' for Active; 'I' for Inactive)
REMARK    1  A    between atoms: C2_2  and  C3_3 
REMARK    2  A    between atoms: C6_6  and  C9_9 
REMARK    3  A    between atoms: N3_18  and  C15_19 
REMARK    4  A    between atoms: C18_22  and  N6_25 
ROOT
ATOM      1  C9  <0> d          -5.700  -2.218   0.092  0.00  0.00     0.066 C 
ATOM      2  C10 <0> d          -6.005  -3.567  -0.568  0.00  0.00     0.117 C 
ATOM      3  C11 <0> d          -5.955  -3.463  -2.066  0.00  0.00     0.224 C 
ATOM      4  O1  <0> d          -5.481  -4.381  -2.702  0.00  0.00    -0.273 OA
ATOM      5  N1  <0> d          -6.420  -2.381  -2.725  0.00  0.00    -0.311 N 
ATOM      6  C12 <0> d          -6.776  -1.260  -1.978  0.00  0.00     0.143 A 
ATOM      7  C13 <0> d          -6.458  -1.146  -0.649  0.00  0.00     0.023 A 
ATOM      8  C14 <0> d          -6.949   0.068  -0.192  0.00  0.00     0.062 A 
ATOM      9  N2  <0> d          -7.532   0.681  -1.196  0.00  0.00    -0.169 NA
ATOM     10  N3  <0> d          -7.426  -0.134  -2.338  0.00  0.00    -0.197 N 
ATOM     11  C23 <0> d          -6.835   0.594   1.216  0.00  0.00     0.073 C 
ATOM     12  H13 <0> d          -6.505  -2.384  -3.692  0.00  0.00     0.170 HD
ENDROOT
BRANCH  10  13
ATOM     13  C15 <0> d          -7.907   0.168  -3.617  0.00  0.00     0.175 A 
ATOM     14  N5  <0> d          -7.355  -0.389  -4.681  0.00  0.00    -0.128 NA
ATOM     15  N4  <0> d          -7.767  -0.145  -5.872  0.00  0.00    -0.130 NA
ATOM     16  C18 <0> d          -8.766   0.689  -6.115  0.00  0.00     0.148 A 
ATOM     17  C17 <0> d          -9.409   1.330  -5.055  0.00  0.00     0.056 A 
ATOM     18  C16 <0> d          -8.967   1.062  -3.771  0.00  0.00     0.058 A 
BRANCH  16  19
ATOM     19  N6  <0> d          -9.175   0.926  -7.425  0.00  0.00    -0.360 N 
ATOM     20  C22 <0> d         -10.413   1.668  -7.709  0.00  0.00     0.151 C 
ATOM     21  C21 <0> d         -11.249   0.860  -8.701  0.00  0.00     0.187 C 
ATOM     22  O2  <0> d         -10.441   0.515  -9.830  0.00  0.00    -0.388 OA
ATOM     23  C20 <0> d          -9.322  -0.317  -9.516  0.00  0.00     0.187 C 
ATOM     24  C19 <0> d          -8.384   0.436  -8.565  0.00  0.00     0.151 C 
ENDBRANCH  16  19
ENDBRANCH  10  13
BRANCH   1  25
ATOM     25  C6  <0> d          -4.221  -1.939   0.017  0.00  0.00    -0.049 A 
ATOM     26  C5  <0> d          -3.492  -1.756   1.177  0.00  0.00     0.008 A 
ATOM     27  C4  <0> d          -2.135  -1.501   1.108  0.00  0.00     0.007 A 
ATOM     28  C3  <0> d          -1.507  -1.429  -0.121  0.00  0.00    -0.059 A 
ATOM     29  C8  <0> d          -2.237  -1.607  -1.282  0.00  0.00     0.007 A 
ATOM     30  C7  <0> d          -3.593  -1.867  -1.212  0.00  0.00     0.008 A 
BRANCH  28  31
ATOM     31  C2  <0> d          -0.028  -1.151  -0.196  0.00  0.00     0.034 C 
ATOM     32  C1  <0> d           0.204   0.359  -0.270  0.00  0.00     0.010 C 
ENDBRANCH  28  31
ENDBRANCH   1  25
TORSDOF 4
