REMARK  2 active torsions:
REMARK  status: ('A' for Active; 'I' for Inactive)
REMARK    1  A    between atoms: O1_2  and  C2_3 
REMARK    2  A    between atoms: P1_16  and  O4_19 
ROOT
ATOM      1  C2  <0> d           0.626  -0.618   1.042  0.00  0.00     0.103 C 
ATOM      2  C3  <0> d           1.183   0.109   2.017  0.00  0.00     0.020 C 
ATOM      3  C4  <0> d           1.854  -0.603   3.159  0.00  0.00     0.034 C 
ATOM      4  C5  <0> d           1.925   0.277   4.402  0.00  0.00     0.123 C 
ATOM      5  N1  <0> d           2.610  -0.449   5.488  0.00  0.00    -0.219 NA
ATOM      6  C6  <0> d           1.943  -1.704   5.837  0.00  0.00     0.104 C 
ATOM      7  C7  <0> d           1.790  -2.609   4.606  0.00  0.00     0.033 C 
ATOM      8  C8  <0> d           1.041  -1.856   3.511  0.00  0.00     0.022 C 
ATOM      9  C9  <0> d           0.885  -2.699   2.275  0.00  0.00     0.024 C 
ATOM     10  C10 <0> d           0.688  -2.094   1.104  0.00  0.00     0.145 C 
ATOM     11  F1  <0> d           0.550  -2.827  -0.022  0.00  0.00    -0.203 F 
ATOM     12  C11 <0> d           2.752  -2.502   6.867  0.00  0.00     0.201 C 
ATOM     13  O2  <0> d           2.887  -1.729   8.073  0.00  0.00    -0.296 OA
ATOM     14  P1  <0> d           3.422  -0.199   7.940  0.00  0.00     0.444 P 
ATOM     15  O3  <0> d           4.895  -0.181   7.794  0.00  0.00    -0.233 OA
ATOM     16  N2  <0> d           2.688   0.403   6.571  0.00  0.00    -0.255 N 
ATOM     17  H15 <0> d           2.344   1.310   6.524  0.00  0.00     0.186 HD
ENDROOT
BRANCH  14  18
ATOM     18  O4  <0> d           2.979   0.661   9.226  0.00  0.00    -0.302 OA
ATOM     19  C12 <0> d           3.476   1.975   9.493  0.00  0.00     0.214 C 
ENDBRANCH  14  18
BRANCH   1  20
ATOM     20  O1  <0> d           0.002  -0.004   0.002  0.00  0.00    -0.353 OA
ATOM     21  C1  <0> d          -0.017   1.425   0.010  0.00  0.00     0.210 C 
ENDBRANCH   1  20
TORSDOF 2
