REMARK  3 active torsions:
REMARK  status: ('A' for Active; 'I' for Inactive)
REMARK    1  A    between atoms: C8_10  and  C10_13 
REMARK       I    between atoms: C10_13  and  N3_15 
REMARK    2  A    between atoms: N3_15  and  C11_16 
REMARK    3  A    between atoms: C14_19  and  C17_22 
ROOT
ATOM      1  C10 <0> d          -1.255   3.412   0.128  0.00  0.00     0.263 C 
ATOM      2  O2  <0> d          -0.209   4.035   0.153  0.00  0.00    -0.267 OA
ATOM      3  N3  <0> d          -1.238   2.072  -0.010  0.00  0.00    -0.323 N 
ATOM      4  H8  <0> d          -2.070   1.583  -0.104  0.00  0.00     0.169 HD
ENDROOT
BRANCH   1   5
ATOM      5  C8  <0> d          -2.534   4.121   0.249  0.00  0.00     0.118 A 
ATOM      6  C7  <0> d          -2.578   5.522   0.264  0.00  0.00     0.141 A 
ATOM      7  N2  <0> d          -3.737   6.139   0.366  0.00  0.00    -0.242 NA
ATOM      8  C5  <0> d          -4.885   5.464   0.470  0.00  0.00     0.136 A 
ATOM      9  N1  <0> d          -4.905   4.099   0.467  0.00  0.00    -0.273 N 
ATOM     10  C6  <0> d          -6.091   6.175   0.583  0.00  0.00     0.058 A 
ATOM     11  C4  <0> d          -6.082   3.424   0.572  0.00  0.00     0.102 A 
ATOM     12  C9  <0> d          -3.751   3.405   0.358  0.00  0.00     0.270 A 
ATOM     13  C3  <0> d          -7.255   4.091   0.684  0.00  0.00     0.024 A 
ATOM     14  C2  <0> d          -7.267   5.492   0.690  0.00  0.00    -0.057 A 
ATOM     15  C1  <0> d          -8.570   6.238   0.812  0.00  0.00     0.048 C 
ATOM     16  O1  <0> d          -3.757   2.187   0.354  0.00  0.00    -0.266 OA
ENDBRANCH   1   5
BRANCH   3  17
ATOM     17  C11 <0> d          -0.019   1.385  -0.018  0.00  0.00     0.035 A 
ATOM     18  C16 <0> d           0.072   0.123   0.555  0.00  0.00     0.030 A 
ATOM     19  C15 <0> d           1.275  -0.555   0.540  0.00  0.00     0.018 A 
ATOM     20  C14 <0> d           2.388   0.021  -0.045  0.00  0.00     0.048 A 
ATOM     21  C13 <0> d           2.300   1.277  -0.616  0.00  0.00     0.018 A 
ATOM     22  C12 <0> d           1.100   1.961  -0.604  0.00  0.00     0.030 A 
BRANCH  20  23
ATOM     23  C17 <0> d           3.699  -0.721  -0.059  0.00  0.00     0.417 C 
ATOM     24  F1  <0> d           3.782  -1.500  -1.219  0.00  0.00    -0.166 F 
ATOM     25  F2  <0> d           4.755   0.196  -0.037  0.00  0.00    -0.166 F 
ATOM     26  F3  <0> d           3.778  -1.550   1.065  0.00  0.00    -0.166 F 
ENDBRANCH  20  23
ENDBRANCH   3  17
TORSDOF 3
