REMARK  3 active torsions:
REMARK  status: ('A' for Active; 'I' for Inactive)
REMARK    1  A    between atoms: C2_2  and  C3_3 
REMARK    2  A    between atoms: C2_2  and  N2_10 
REMARK    3  A    between atoms: N2_10  and  C9_11 
ROOT
ATOM      1  N2  <0> d           0.713  -0.491   1.192  0.00  0.00    -0.067 N 
ATOM      2  H17 <0> d           0.367  -0.124   2.066  0.00  0.00     0.278 HD
ATOM      3  H28 <0> d           0.577  -1.490   1.169  0.00  0.00     0.278 HD
ENDROOT
BRANCH   1   4
ATOM      4  C2  <0> d          -0.019   0.128   0.079  0.00  0.00     0.188 C 
ATOM      5  C1  <0> d           0.065   1.651   0.196  0.00  0.00     0.040 C 
BRANCH   4   6
ATOM      6  C3  <0> d          -1.485  -0.307   0.127  0.00  0.00     0.042 C 
ATOM      7  C7  <0> d          -2.221   0.236  -1.100  0.00  0.00     0.241 C 
ATOM      8  N1  <0> d          -3.628  -0.177  -1.054  0.00  0.00    -0.074 N 
ATOM      9  C6  <0> d          -4.282   0.408   0.123  0.00  0.00     0.234 C 
ATOM     10  C8  <0> d          -4.312   0.281  -2.270  0.00  0.00     0.269 C 
ATOM     11  H27 <0> d          -3.680  -1.183  -1.000  0.00  0.00     0.279 HD
ATOM     12  C5  <0> d          -3.626  -0.130   1.396  0.00  0.00     0.028 C 
ATOM     13  C4  <0> d          -2.141   0.245   1.396  0.00  0.00     0.010 C 
ENDBRANCH   4   6
ENDBRANCH   1   4
BRANCH   1  14
ATOM     14  C9  <0> d           2.144  -0.187   1.066  0.00  0.00     0.188 C 
ATOM     15  C13 <0> d           2.877  -0.695   2.304  0.00  0.00     0.048 C 
ATOM     16  C12 <0> d           4.310  -0.157   2.321  0.00  0.00     0.142 C 
ATOM     17  S1  <0> d           5.199  -0.808   0.877  0.00  0.00     0.144 S 
ATOM     18  C11 <0> d           4.100  -0.334  -0.490  0.00  0.00     0.142 C 
ATOM     19  O1  <0> d           6.422  -0.097   0.740  0.00  0.00    -0.228 OA
ATOM     20  O2  <0> d           5.229  -2.226   0.963  0.00  0.00    -0.228 OA
ATOM     21  C10 <0> d           2.690  -0.853  -0.194  0.00  0.00     0.048 C 
ENDBRANCH   1  14
TORSDOF 3
