REMARK  5 active torsions:
REMARK  status: ('A' for Active; 'I' for Inactive)
REMARK       I    between atoms: N1_2  and  C3_4 
REMARK    1  A    between atoms: C3_4  and  C4_6 
REMARK    2  A    between atoms: C7_9  and  N2_12 
REMARK    3  A    between atoms: C11_14  and  C16_21 
REMARK    4  A    between atoms: C16_21  and  C17_23 
REMARK    5  A    between atoms: C22_28  and  O4_29 
ROOT
ATOM      1  N2  <0> d           2.300   2.006   0.342  0.00  0.00    -0.287 N 
ATOM      2  C10 <0> d           1.135   2.502   0.798  0.00  0.00     0.116 A 
ATOM      3  C11 <0> d          -0.035   1.769   0.738  0.00  0.00     0.033 A 
ATOM      4  C12 <0> d          -0.031   0.470   0.189  0.00  0.00     0.045 A 
ATOM      5  C13 <0> d           1.166  -0.051  -0.285  0.00  0.00     0.114 A 
ATOM      6  C14 <0> d           2.373   0.773  -0.194  0.00  0.00     0.273 A 
ATOM      7  O2  <0> d           3.439   0.346  -0.601  0.00  0.00    -0.266 OA
ATOM      8  C15 <0> d           1.219  -1.366  -0.851  0.00  0.00     0.105 C 
ATOM      9  N3  <0> d           1.261  -2.409  -1.299  0.00  0.00    -0.191 NA
ENDROOT
BRANCH   3  10
ATOM     10  C16 <0> d          -1.293   2.349   1.243  0.00  0.00     0.196 C 
ATOM     11  O3  <0> d          -1.789   3.308   0.682  0.00  0.00    -0.286 OA
BRANCH  10  12
ATOM     12  C17 <0> d          -1.950   1.767   2.429  0.00  0.00     0.048 A 
ATOM     13  C22 <0> d          -3.204   2.238   2.842  0.00  0.00     0.079 A 
ATOM     14  C21 <0> d          -3.812   1.683   3.958  0.00  0.00     0.037 A 
ATOM     15  C20 <0> d          -3.185   0.672   4.658  0.00  0.00     0.003 A 
ATOM     16  C19 <0> d          -1.945   0.203   4.252  0.00  0.00     0.001 A 
ATOM     17  C18 <0> d          -1.328   0.739   3.143  0.00  0.00     0.018 A 
BRANCH  13  18
ATOM     18  O4  <0> d          -3.820   3.232   2.154  0.00  0.00    -0.360 OA
ATOM     19  H17 <0> d          -4.393   2.920   1.441  0.00  0.00     0.217 HD
ENDBRANCH  13  18
ENDBRANCH  10  12
ENDBRANCH   3  10
BRANCH   1  20
ATOM     20  C7  <0> d           3.455   2.787   0.426  0.00  0.00     0.042 A 
ATOM     21  C6  <0> d           3.576   3.934  -0.352  0.00  0.00     0.031 A 
ATOM     22  C5  <0> d           4.714   4.706  -0.271  0.00  0.00     0.019 A 
ATOM     23  C4  <0> d           5.748   4.335   0.592  0.00  0.00     0.032 A 
ATOM     24  C9  <0> d           5.623   3.182   1.371  0.00  0.00     0.019 A 
ATOM     25  C8  <0> d           4.480   2.418   1.291  0.00  0.00     0.031 A 
BRANCH  23  26
ATOM     26  C3  <0> d           6.969   5.160   0.681  0.00  0.00     0.253 C 
ATOM     27  N1  <0> d           7.394   5.852  -0.395  0.00  0.00    -0.357 N 
ATOM     28  C1  <0> d           8.536   6.763  -0.276  0.00  0.00     0.152 C 
ATOM     29  C2  <0> d           6.715   5.694  -1.683  0.00  0.00     0.152 C 
ATOM     30  O1  <0> d           7.591   5.215   1.724  0.00  0.00    -0.267 OA
ENDBRANCH  23  26
ENDBRANCH   1  20
TORSDOF 5
