REMARK  5 active torsions:
REMARK  status: ('A' for Active; 'I' for Inactive)
REMARK    1  A    between atoms: C2_2  and  C7_8 
REMARK       I    between atoms: C7_8  and  N2_10 
REMARK    2  A    between atoms: C10_13  and  C13_16 
REMARK    3  A    between atoms: C13_16  and  N3_17 
REMARK    4  A    between atoms: C15_19  and  C16_22 
REMARK    5  A    between atoms: C16_22  and  O2_23 
ROOT
ATOM      1  C7  <0> d           0.146   1.259  -0.242  0.00  0.00     0.229 C 
ATOM      2  O1  <0> d          -0.842   1.952  -0.114  0.00  0.00    -0.272 OA
ATOM      3  N2  <0> d           1.323   1.820  -0.583  0.00  0.00    -0.351 N 
ATOM      4  C8  <0> d           1.401   3.247  -0.925  0.00  0.00     0.126 C 
ATOM      5  C9  <0> d           2.480   3.901  -0.048  0.00  0.00     0.026 C 
ATOM      6  C10 <0> d           3.797   3.141  -0.218  0.00  0.00     0.009 C 
ATOM      7  C11 <0> d           3.616   1.693   0.242  0.00  0.00     0.026 C 
ATOM      8  C12 <0> d           2.551   1.015  -0.626  0.00  0.00     0.126 C 
ENDROOT
BRANCH   1   9
ATOM      9  C2  <0> d           0.058  -0.228  -0.013  0.00  0.00     0.061 C 
ATOM     10  C1  <0> d           0.882  -0.604   1.220  0.00  0.00     0.027 C 
ATOM     11  C6  <0> d           0.603  -0.966  -1.237  0.00  0.00     0.251 C 
ATOM     12  N1  <0> d          -0.200  -0.620  -2.417  0.00  0.00    -0.074 N 
ATOM     13  C5  <0> d          -1.598  -1.035  -2.248  0.00  0.00     0.232 C 
ATOM     14  H10 <0> d           0.229  -1.127  -3.294  0.00  0.00     0.277 HD
ATOM     15  H30 <0> d          -0.156   0.469  -2.564  0.00  0.00     0.277 HD
ATOM     16  C4  <0> d          -2.209  -0.299  -1.054  0.00  0.00     0.029 C 
ATOM     17  C3  <0> d          -1.404  -0.625   0.208  0.00  0.00     0.022 C 
ENDBRANCH   1   9
BRANCH   6  18
ATOM     18  C13 <0> d           4.885   3.811   0.624  0.00  0.00     0.156 C 
BRANCH  18  19
ATOM     19  N3  <0> d           5.142   5.157   0.107  0.00  0.00    -0.260 N 
ATOM     20  N5  <0> d           5.465   5.451  -1.103  0.00  0.00    -0.066 NA
ATOM     21  N4  <0> d           5.616   6.723  -1.226  0.00  0.00    -0.133 NA
ATOM     22  C15 <0> d           5.393   7.302  -0.041  0.00  0.00     0.099 A 
ATOM     23  C14 <0> d           5.088   6.305   0.822  0.00  0.00     0.145 A 
BRANCH  22  24
ATOM     24  C16 <0> d           5.466   8.774   0.271  0.00  0.00     0.229 C 
BRANCH  24  25
ATOM     25  O2  <0> d           5.159   8.985   1.651  0.00  0.00    -0.390 OA
ATOM     26  C17 <0> d           5.200  10.355   2.053  0.00  0.00     0.201 C 
ENDBRANCH  24  25
ENDBRANCH  22  24
ENDBRANCH  18  19
ENDBRANCH   6  18
TORSDOF 5
