REMARK  5 active torsions:
REMARK  status: ('A' for Active; 'I' for Inactive)
REMARK    1  A    between atoms: C5_5  and  C8_8 
REMARK    2  A    between atoms: C9_9  and  C13_20 
REMARK    3  A    between atoms: C10_10  and  C12_15 
REMARK    4  A    between atoms: C10_10  and  O2_19 
REMARK    5  A    between atoms: C13_20  and  C14_22 
ROOT
ATOM      1  C8  <0> d           0.148  -4.358   0.213  0.00  0.00     0.136 C 
ATOM      2  C9  <0> d          -1.319  -4.788   0.106  0.00  0.00     0.153 C 
ATOM      3  C10 <0> d          -1.366  -6.256  -0.331  0.00  0.00     0.248 C 
ATOM      4  N1  <0> d          -0.613  -6.411  -1.577  0.00  0.00    -0.303 N 
ATOM      5  C11 <0> d           0.420  -5.608  -1.872  0.00  0.00     0.319 C 
ATOM      6  O1  <0> d           1.018  -5.786  -2.915  0.00  0.00    -0.247 OA
ATOM      7  N2  <0> d           0.820  -4.616  -1.061  0.00  0.00    -0.333 N 
ATOM      8  H10 <0> d          -0.866  -7.109  -2.201  0.00  0.00     0.167 HD
ATOM      9  H11 <0> d           1.569  -4.058  -1.325  0.00  0.00     0.165 HD
ENDROOT
BRANCH   2  10
ATOM     10  C13 <0> d          -2.024  -3.933  -0.916  0.00  0.00     0.171 C 
ATOM     11  O3  <0> d          -1.697  -3.989  -2.082  0.00  0.00    -0.292 OA
BRANCH  10  12
ATOM     12  C14 <0> d          -3.108  -3.031  -0.498  0.00  0.00     0.010 A 
ATOM     13  C19 <0> d          -3.855  -2.339  -1.458  0.00  0.00     0.016 A 
ATOM     14  C18 <0> d          -4.870  -1.496  -1.059  0.00  0.00     0.020 A 
ATOM     15  C17 <0> d          -5.150  -1.332   0.288  0.00  0.00     0.011 A 
ATOM     16  C16 <0> d          -4.413  -2.013   1.244  0.00  0.00     0.020 A 
ATOM     17 Br1  <0> d          -6.543  -0.171   0.825  0.00  0.00    -0.051 Br
ATOM     18  C15 <0> d          -3.400  -2.864   0.860  0.00  0.00     0.016 A 
ENDBRANCH  10  12
ENDBRANCH   2  10
BRANCH   1  19
ATOM     19  C5  <0> d           0.219  -2.886   0.531  0.00  0.00    -0.034 A 
ATOM     20  C4  <0> d           0.159  -1.955  -0.489  0.00  0.00     0.010 A 
ATOM     21  C3  <0> d           0.219  -0.605  -0.196  0.00  0.00     0.007 A 
ATOM     22  C2  <0> d           0.349  -0.187   1.115  0.00  0.00    -0.062 A 
ATOM     23  C1  <0> d           0.420   1.284   1.433  0.00  0.00     0.048 C 
ATOM     24  C7  <0> d           0.409  -1.119   2.135  0.00  0.00     0.007 A 
ATOM     25  C6  <0> d           0.344  -2.468   1.843  0.00  0.00     0.010 A 
ENDBRANCH   1  19
BRANCH   3  26
ATOM     26  C12 <0> d          -2.820  -6.676  -0.557  0.00  0.00     0.438 C 
ATOM     27  F1  <0> d          -3.345  -5.971  -1.645  0.00  0.00    -0.166 F 
ATOM     28  F2  <0> d          -2.873  -8.049  -0.821  0.00  0.00    -0.166 F 
ATOM     29  F3  <0> d          -3.571  -6.392   0.589  0.00  0.00    -0.166 F 
ENDBRANCH   3  26
BRANCH   3  30
ATOM     30  O2  <0> d          -0.783  -7.075   0.684  0.00  0.00    -0.363 OA
ATOM     31  H12 <0> d          -0.779  -8.019   0.474  0.00  0.00     0.213 HD
ENDBRANCH   3  30
TORSDOF 5
