REMARK  3 active torsions:
REMARK  status: ('A' for Active; 'I' for Inactive)
REMARK    1  A    between atoms: C4_5  and  N3_8 
REMARK    2  A    between atoms: C5_6  and  N2_7 
REMARK    3  A    between atoms: N4_11  and  C10_14 
ROOT
ATOM      1  C1  <0> d           1.268   1.414   1.189  0.00  0.00     0.053 A 
ATOM      2  C2  <0> d           1.179   2.062  -0.037  0.00  0.00     0.030 A 
ATOM      3  C3  <0> d           1.110   1.313  -1.195  0.00  0.00     0.138 A 
ATOM      4  N1  <0> d           1.129  -0.007  -1.153  0.00  0.00    -0.240 NA
ATOM      5  C4  <0> d           1.212  -0.665  -0.009  0.00  0.00     0.151 A 
ATOM      6  C5  <0> d           1.285   0.026   1.203  0.00  0.00     0.073 A 
ATOM      7 Br1  <0> d           1.151   3.951  -0.118  0.00  0.00    -0.050 Br
ENDROOT
BRANCH   5   8
ATOM      8  N3  <0> d           1.228  -2.058  -0.013  0.00  0.00    -0.361 N 
ATOM      9  C9  <0> d           2.495  -2.791  -0.149  0.00  0.00     0.144 C 
ATOM     10  C8  <0> d           2.386  -3.752  -1.334  0.00  0.00     0.145 C 
ATOM     11  N4  <0> d           1.136  -4.514  -1.209  0.00  0.00    -0.356 N 
ATOM     12  C7  <0> d          -0.131  -3.781  -1.079  0.00  0.00     0.145 C 
ATOM     13  C6  <0> d          -0.022  -2.821   0.112  0.00  0.00     0.144 C 
BRANCH  11  14
ATOM     14  C10 <0> d           1.152  -5.862  -1.213  0.00  0.00     0.350 C 
ATOM     15  O1  <0> d           2.204  -6.456  -1.321  0.00  0.00    -0.284 OA
ENDBRANCH  11  14
ENDBRANCH   5   8
BRANCH   6  16
ATOM     16  N2  <0> d           1.374  -0.672   2.414  0.00  0.00    -0.396 N 
ATOM     17  H3  <0> d           1.337  -0.190   3.255  0.00  0.00     0.156 HD
ATOM     18  H4  <0> d           1.474  -1.637   2.412  0.00  0.00     0.156 HD
ENDBRANCH   6  16
TORSDOF 3
