REMARK  7 active torsions:
REMARK  status: ('A' for Active; 'I' for Inactive)
REMARK    1  A    between atoms: C4_4  and  N1_7 
REMARK    2  A    between atoms: N1_7  and  C7_8 
REMARK       I    between atoms: N1_7  and  C13_15 
REMARK    3  A    between atoms: C7_8  and  C8_9 
REMARK    4  A    between atoms: C8_9  and  N3_23 
REMARK    5  A    between atoms: C13_15  and  C14_17 
REMARK    6  A    between atoms: C14_17  and  C15_18 
REMARK    7  A    between atoms: C15_18  and  C16_19 
ROOT
ATOM      1  N1  <0> d          -1.191   1.867   0.018  0.00  0.00    -0.346 N 
ATOM      2  C13 <0> d          -0.014   1.209   0.009  0.00  0.00     0.220 C 
ATOM      3  O2  <0> d           0.002  -0.004   0.002  0.00  0.00    -0.273 OA
ENDROOT
BRANCH   1   4
ATOM      4  C4  <0> d          -2.449   1.117   0.020  0.00  0.00     0.090 C 
ATOM      5  C3  <0> d          -2.526   0.242  -1.234  0.00  0.00     0.053 C 
ATOM      6  C2  <0> d          -3.813  -0.584  -1.197  0.00  0.00     0.236 C 
ATOM      7  N2  <0> d          -3.799  -1.440   0.008  0.00  0.00    -0.075 N 
ATOM      8  C1  <0> d          -4.978  -2.331   0.008  0.00  0.00     0.269 C 
ATOM      9  C6  <0> d          -3.799  -0.603   1.226  0.00  0.00     0.236 C 
ATOM     10  H29 <0> d          -2.948  -2.015  -0.002  0.00  0.00     0.279 HD
ATOM     11  C5  <0> d          -2.510   0.222   1.261  0.00  0.00     0.053 C 
ENDBRANCH   1   4
BRANCH   1  12
ATOM     12  C7  <0> d          -1.210   3.331   0.026  0.00  0.00     0.154 C 
BRANCH  12  13
ATOM     13  C8  <0> d          -1.224   3.849  -1.414  0.00  0.00     0.254 C 
BRANCH  13  14
ATOM     14  N3  <0> d          -1.224   5.328  -1.390  0.00  0.00    -0.066 N 
ATOM     15  C9  <0> d          -2.506   5.825  -0.847  0.00  0.00     0.261 C 
ATOM     16  C10 <0> d          -2.460   7.354  -0.802  0.00  0.00     0.195 C 
ATOM     17  O1  <0> d          -2.210   7.858  -2.117  0.00  0.00    -0.388 OA
ATOM     18  C11 <0> d          -0.989   7.385  -2.692  0.00  0.00     0.195 C 
ATOM     19  C12 <0> d          -1.019   5.855  -2.756  0.00  0.00     0.261 C 
ATOM     20  H30 <0> d          -0.458   5.652  -0.788  0.00  0.00     0.280 HD
ENDBRANCH  13  14
ENDBRANCH  12  13
ENDBRANCH   1  12
BRANCH   2  21
ATOM     21  C14 <0> d           1.280   1.980   0.001  0.00  0.00     0.113 C 
BRANCH  21  22
ATOM     22  C15 <0> d           2.457   1.002  -0.016  0.00  0.00     0.122 C 
BRANCH  22  23
ATOM     23  C16 <0> d           3.751   1.773  -0.024  0.00  0.00     0.172 C 
ATOM     24  O3  <0> d           3.735   2.981  -0.018  0.00  0.00    -0.648 OA
ATOM     25  O4  <0> d           4.923   1.117  -0.039  0.00  0.00    -0.648 OA
ENDBRANCH  22  23
ENDBRANCH  21  22
ENDBRANCH   2  21
TORSDOF 7
