REMARK  11 active torsions:
REMARK  status: ('A' for Active; 'I' for Inactive)
REMARK    1  A    between atoms: C2_2  and  C4_4 
REMARK    2  A    between atoms: C4_4  and  C5_5 
REMARK    3  A    between atoms: C5_5  and  C6_6 
REMARK    4  A    between atoms: C6_6  and  C7_7 
REMARK    5  A    between atoms: C7_7  and  C8_8 
REMARK    6  A    between atoms: C8_8  and  O2_10 
REMARK    7  A    between atoms: O2_10  and  C9_11 
REMARK    8  A    between atoms: C12_14  and  O5_19 
REMARK    9  A    between atoms: C13_15  and  C14_17 
REMARK   10  A    between atoms: C14_17  and  O4_18 
REMARK   11  A    between atoms: C16_22  and  C18_25 
ROOT
ATOM      1  C9  <0> d           0.881  -1.018   8.549  0.00  0.00     0.301 C 
ATOM      2  C10 <0> d           0.228  -0.556   9.841  0.00  0.00     0.208 C 
ATOM      3  C11 <0> d          -1.115  -1.193  10.077  0.00  0.00     0.186 C 
ATOM      4  C12 <0> d          -1.025  -2.716   9.906  0.00  0.00     0.180 C 
ATOM      5  C13 <0> d          -0.389  -3.042   8.553  0.00  0.00     0.179 C 
ATOM      6  O3  <0> d           0.908  -2.446   8.495  0.00  0.00    -0.348 OA
ATOM      7  O6  <0> d          -1.659  -0.951  11.394  0.00  0.00    -0.379 OA
ATOM      8  C15 <0> d          -1.523   0.368  11.862  0.00  0.00     0.185 C 
ATOM      9  C16 <0> d          -0.215   0.550  12.628  0.00  0.00     0.134 C 
ATOM     10  C17 <0> d           0.959   0.737  11.732  0.00  0.00     0.186 C 
ATOM     11  O7  <0> d           1.093  -0.431  10.907  0.00  0.00    -0.377 OA
ENDROOT
BRANCH   1  12
ATOM     12  O2  <0> d           0.138  -0.516   7.436  0.00  0.00    -0.287 OA
BRANCH  12  13
ATOM     13  C8  <0> d           0.644  -0.742   6.213  0.00  0.00     0.261 C 
ATOM     14  O1  <0> d           1.683  -1.346   6.092  0.00  0.00    -0.265 OA
BRANCH  13  15
ATOM     15  C7  <0> d          -0.085  -0.243   4.992  0.00  0.00     0.111 C 
BRANCH  15  16
ATOM     16  C6  <0> d           0.698  -0.630   3.737  0.00  0.00     0.010 C 
BRANCH  16  17
ATOM     17  C5  <0> d          -0.042  -0.124   2.497  0.00  0.00     0.001 C 
BRANCH  17  18
ATOM     18  C4  <0> d           0.742  -0.511   1.242  0.00  0.00     0.004 C 
BRANCH  18  19
ATOM     19  C2  <0> d           0.002  -0.004   0.002  0.00  0.00    -0.023 C 
ATOM     20  C1  <0> d          -0.019   1.526   0.010  0.00  0.00     0.009 C 
ATOM     21  C3  <0> d           0.718  -0.497  -1.257  0.00  0.00     0.009 C 
ENDBRANCH  18  19
ENDBRANCH  17  18
ENDBRANCH  16  17
ENDBRANCH  15  16
ENDBRANCH  13  15
ENDBRANCH  12  13
ENDBRANCH   1  12
BRANCH   5  22
ATOM     22  C14 <0> d          -0.266  -4.559   8.398  0.00  0.00     0.198 C 
BRANCH  22  23
ATOM     23  O4  <0> d           0.219  -4.866   7.090  0.00  0.00    -0.398 OA
ATOM     24  H24 <0> d           0.322  -5.813   6.920  0.00  0.00     0.209 HD
ENDBRANCH  22  23
ENDBRANCH   5  22
BRANCH   4  25
ATOM     25  O5  <0> d          -0.223  -3.265  10.954  0.00  0.00    -0.390 OA
ATOM     26  H25 <0> d          -0.122  -4.226  10.909  0.00  0.00     0.210 HD
ENDBRANCH   4  25
BRANCH   9  27
ATOM     27  C18 <0> d          -0.339   1.757  13.521  0.00  0.00     0.181 C 
ATOM     28  O8  <0> d           0.128   1.733  14.647  0.00  0.00    -0.648 OA
ATOM     29  O9  <0> d          -0.906   2.758  13.118  0.00  0.00    -0.648 OA
ENDBRANCH   9  27
TORSDOF 11
