REMARK  6 active torsions:
REMARK  status: ('A' for Active; 'I' for Inactive)
REMARK    1  A    between atoms: N1_4  and  C7_9 
REMARK    2  A    between atoms: C7_9  and  C8_10 
REMARK    3  A    between atoms: C8_10  and  N2_11 
REMARK       I    between atoms: N2_11  and  C9_12 
REMARK    4  A    between atoms: C9_12  and  C10_14 
REMARK    5  A    between atoms: C10_14  and  S1_15 
REMARK    6  A    between atoms: S1_15  and  C11_16 
ROOT
ATOM      1  N2  <0> d          -5.115   1.720  -3.376  0.00  0.00    -0.359 N 
ATOM      2  C9  <0> d          -6.455   1.583  -3.429  0.00  0.00     0.227 C 
ATOM      3  O2  <0> d          -7.054   1.113  -2.484  0.00  0.00    -0.273 OA
ATOM      4  H17 <0> d          -4.572   2.146  -4.233  0.00  0.00     0.162 HD
ENDROOT
BRANCH   1   5
ATOM      5  C8  <0> d          -4.383   1.302  -2.179  0.00  0.00     0.152 C 
BRANCH   5   6
ATOM      6  C7  <0> d          -2.888   1.563  -2.377  0.00  0.00     0.292 C 
BRANCH   6   7
ATOM      7  N1  <0> d          -2.154   1.144  -1.177  0.00  0.00     0.095 N 
ATOM      8  C3  <0> d          -0.755   1.594  -1.231  0.00  0.00     0.303 C 
ATOM      9  C2  <0> d          -0.013   1.086   0.008  0.00  0.00     0.146 C 
ATOM     10  C1  <0> d           1.422   1.616  -0.003  0.00  0.00     0.041 C 
ATOM     11  O1  <0> d          -0.684   1.548   1.183  0.00  0.00    -0.378 OA
ATOM     12  C5  <0> d          -2.049   1.128   1.269  0.00  0.00     0.146 C 
ATOM     13  C4  <0> d          -2.812   1.636   0.042  0.00  0.00     0.303 C 
ATOM     14  C6  <0> d          -2.682   1.701   2.538  0.00  0.00     0.041 C 
ENDBRANCH   6   7
ENDBRANCH   5   6
ENDBRANCH   1   5
BRANCH   2  15
ATOM     15  C10 <0> d          -7.209   2.013  -4.661  0.00  0.00     0.184 C 
BRANCH  15  16
ATOM     16  S1  <0> d          -8.977   1.703  -4.425  0.00  0.00    -0.092 SA
BRANCH  16  17
ATOM     17  C11 <0> d          -9.597   2.281  -5.970  0.00  0.00     0.158 A 
ATOM     18  S2  <0> d         -11.276   2.335  -6.590  0.00  0.00    -0.052 SA
ATOM     19  C12 <0> d         -10.869   3.060  -8.175  0.00  0.00     0.193 A 
ATOM     20  N4  <0> d          -9.561   3.163  -8.052  0.00  0.00    -0.154 NA
ATOM     21  N3  <0> d          -8.953   2.796  -7.010  0.00  0.00    -0.136 NA
ENDBRANCH  16  17
ENDBRANCH  15  16
ENDBRANCH   2  15
TORSDOF 6
