REMARK  3 active torsions:
REMARK  status: ('A' for Active; 'I' for Inactive)
REMARK    1  A    between atoms: C4_4  and  C7_7 
REMARK    2  A    between atoms: C10_12  and  C11_13 
REMARK       I    between atoms: C11_13  and  N2_15 
REMARK    3  A    between atoms: N2_15  and  N3_16 
ROOT
ATOM      1  C11 <0> d           2.529  -1.923   1.811  0.00  0.00     0.251 C 
ATOM      2  O2  <0> d           1.996  -2.974   1.522  0.00  0.00    -0.271 OA
ATOM      3  N2  <0> d           1.916  -1.065   2.650  0.00  0.00    -0.246 N 
ATOM      4  H11 <0> d           2.342  -0.225   2.881  0.00  0.00     0.192 HD
ENDROOT
BRANCH   3   5
ATOM      5  N3  <0> d           0.664  -1.387   3.190  0.00  0.00    -0.166 NA
ATOM      6  C12 <0> d           0.068  -0.552   4.006  0.00  0.00     0.157 A 
ATOM      7  C19 <0> d           0.561   0.762   4.467  0.00  0.00     0.277 A 
ATOM      8  C13 <0> d          -1.244  -0.724   4.673  0.00  0.00     0.029 A 
ATOM      9  N4  <0> d          -0.363   1.283   5.292  0.00  0.00    -0.320 N 
ATOM     10  O3  <0> d           1.616   1.281   4.154  0.00  0.00    -0.266 OA
ATOM     11  C18 <0> d          -1.450   0.427   5.443  0.00  0.00     0.065 A 
ATOM     12  H14 <0> d          -0.281   2.144   5.730  0.00  0.00     0.169 HD
ATOM     13  C17 <0> d          -2.620   0.542   6.187  0.00  0.00     0.040 A 
ATOM     14  C16 <0> d          -3.559  -0.470   6.163  0.00  0.00     0.040 A 
ATOM     15 Br1  <0> d          -2.925   2.088   7.234  0.00  0.00    -0.049 Br
ATOM     16  C15 <0> d          -3.350  -1.608   5.401  0.00  0.00     0.013 A 
ATOM     17  C14 <0> d          -2.195  -1.738   4.655  0.00  0.00     0.035 A 
ATOM     18 Br2  <0> d          -4.648  -2.983   5.381  0.00  0.00    -0.051 Br
ENDBRANCH   3   5
BRANCH   1  19
ATOM     19  C10 <0> d           3.876  -1.577   1.230  0.00  0.00     0.181 C 
ATOM     20  C7  <0> d           3.710  -0.814  -0.104  0.00  0.00     0.058 C 
ATOM     21  C8  <0> d           3.791  -1.960  -1.136  0.00  0.00     0.133 C 
ATOM     22  N1  <0> d           4.567  -3.021  -0.483  0.00  0.00    -0.360 N 
ATOM     23  C9  <0> d           4.626  -2.834   0.847  0.00  0.00     0.231 C 
ATOM     24  H10 <0> d           4.984  -3.762  -0.950  0.00  0.00     0.162 HD
ATOM     25  O1  <0> d           5.198  -3.566   1.627  0.00  0.00    -0.273 OA
BRANCH  20  26
ATOM     26  C4  <0> d           2.371  -0.124  -0.169  0.00  0.00    -0.051 A 
ATOM     27  C3  <0> d           1.219  -0.867  -0.349  0.00  0.00     0.007 A 
ATOM     28  C2  <0> d          -0.009  -0.234  -0.407  0.00  0.00     0.001 A 
ATOM     29  C1  <0> d          -0.085   1.140  -0.284  0.00  0.00     0.000 A 
ATOM     30  C6  <0> d           1.067   1.883  -0.103  0.00  0.00     0.001 A 
ATOM     31  C5  <0> d           2.295   1.251  -0.046  0.00  0.00     0.007 A 
ENDBRANCH  20  26
ENDBRANCH   1  19
TORSDOF 3
