REMARK  3 active torsions:
REMARK  status: ('A' for Active; 'I' for Inactive)
REMARK    1  A    between atoms: C5_5  and  N1_8 
REMARK    2  A    between atoms: C11_12  and  C13_15 
REMARK       I    between atoms: C13_15  and  N2_17 
REMARK    3  A    between atoms: N2_17  and  C14_18 
ROOT
ATOM      1  N1  <0> d           0.258  -4.135  -0.057  0.00  0.00    -0.281 N 
ATOM      2  C8  <0> d           0.121  -4.762   1.132  0.00  0.00     0.034 A 
ATOM      3  C9  <0> d          -0.192  -6.109   1.182  0.00  0.00     0.034 A 
ATOM      4  C10 <0> d          -0.361  -6.854  -0.006  0.00  0.00     0.040 A 
ATOM      5  C11 <0> d          -0.217  -6.212  -1.225  0.00  0.00     0.101 A 
ATOM      6  C12 <0> d           0.100  -4.783  -1.223  0.00  0.00     0.268 A 
ATOM      7  O1  <0> d           0.224  -4.184  -2.276  0.00  0.00    -0.267 OA
ATOM      8  C20 <0> d          -0.359  -6.786   2.479  0.00  0.00     0.161 C 
ATOM      9  O3  <0> d          -0.834  -7.900   2.547  0.00  0.00    -0.292 OA
ATOM     10  C21 <0> d           0.079  -6.046   3.726  0.00  0.00     0.084 C 
ATOM     11  C22 <0> d          -0.385  -4.591   3.578  0.00  0.00     0.014 C 
ATOM     12  C23 <0> d           0.326  -3.955   2.388  0.00  0.00     0.059 C 
ENDROOT
BRANCH   5  13
ATOM     13  C13 <0> d          -0.385  -6.949  -2.494  0.00  0.00     0.262 C 
ATOM     14  O2  <0> d          -0.766  -8.109  -2.480  0.00  0.00    -0.267 OA
ATOM     15  N2  <0> d          -0.121  -6.347  -3.655  0.00  0.00    -0.309 N 
ATOM     16  H22 <0> d           0.207  -5.435  -3.665  0.00  0.00     0.170 HD
BRANCH  15  17
ATOM     17  C14 <0> d          -0.310  -7.003  -4.806  0.00  0.00     0.108 A 
ATOM     18  N3  <0> d          -0.418  -6.311  -5.978  0.00  0.00    -0.346 N 
ATOM     19  C18 <0> d          -0.604  -6.966  -7.150  0.00  0.00     0.007 A 
ATOM     20  H1  <0> d          -0.358  -5.343  -5.972  0.00  0.00     0.167 HD
ATOM     21  C17 <0> d          -0.697  -8.318  -7.181  0.00  0.00     0.025 A 
ATOM     22  C19 <0> d          -0.714  -6.182  -8.433  0.00  0.00     0.068 C 
ATOM     23  C16 <0> d          -0.595  -9.056  -5.996  0.00  0.00     0.006 A 
ATOM     24  C15 <0> d          -0.402  -8.402  -4.811  0.00  0.00     0.049 A 
ENDBRANCH  15  17
ENDBRANCH   5  13
BRANCH   1  25
ATOM     25  C5  <0> d           0.568  -2.770  -0.074  0.00  0.00     0.042 A 
ATOM     26  C4  <0> d          -0.440  -1.826   0.070  0.00  0.00     0.030 A 
ATOM     27  C3  <0> d          -0.131  -0.480   0.053  0.00  0.00     0.009 A 
ATOM     28  C2  <0> d           1.181  -0.072  -0.108  0.00  0.00    -0.062 A 
ATOM     29  C1  <0> d           1.514   1.398  -0.125  0.00  0.00     0.048 C 
ATOM     30  C7  <0> d           2.186  -1.010  -0.258  0.00  0.00     0.009 A 
ATOM     31  C6  <0> d           1.884  -2.357  -0.236  0.00  0.00     0.030 A 
ENDBRANCH   1  25
TORSDOF 3
