REMARK  7 active torsions:
REMARK  status: ('A' for Active; 'I' for Inactive)
REMARK    1  A    between atoms: C2_2  and  C14_21 
REMARK    2  A    between atoms: N1_3  and  N2_4 
REMARK    3  A    between atoms: N2_4  and  C3_5 
REMARK    4  A    between atoms: C3_5  and  S1_7 
REMARK    5  A    between atoms: S1_7  and  C4_8 
REMARK    6  A    between atoms: N4_12  and  C8_15 
REMARK    7  A    between atoms: C17_24  and  O3_27 
ROOT
ATOM      1  C3  <0> d          -0.244  -0.001   3.635  0.00  0.00     0.155 C 
ATOM      2  N3  <0> d          -0.301  -1.280   3.386  0.00  0.00    -0.379 N 
ATOM      3  H6  <0> d          -0.243  -1.919   4.114  0.00  0.00     0.158 HD
ATOM      4  H19 <0> d          -0.401  -1.593   2.473  0.00  0.00     0.158 HD
ENDROOT
BRANCH   1   5
ATOM      5  N2  <0> d          -0.326   0.906   2.602  0.00  0.00    -0.257 N 
ATOM      6  H5  <0> d          -0.283   1.857   2.788  0.00  0.00     0.191 HD
BRANCH   5   7
ATOM      7  N1  <0> d          -0.470   0.455   1.284  0.00  0.00    -0.177 NA
ATOM      8  C2  <0> d          -0.548   1.310   0.310  0.00  0.00     0.061 C 
ATOM      9  C1  <0> d          -0.482   2.787   0.598  0.00  0.00     0.073 C 
BRANCH   8  10
ATOM     10  C14 <0> d          -0.700   0.835  -1.077  0.00  0.00    -0.010 A 
ATOM     11  C19 <0> d          -0.761  -0.535  -1.346  0.00  0.00     0.016 A 
ATOM     12  C18 <0> d          -0.909  -0.974  -2.644  0.00  0.00     0.037 A 
ATOM     13  C17 <0> d          -0.986  -0.058  -3.685  0.00  0.00     0.065 A 
ATOM     14  C16 <0> d          -0.920   1.304  -3.423  0.00  0.00     0.037 A 
ATOM     15  C15 <0> d          -0.778   1.753  -2.127  0.00  0.00     0.016 A 
BRANCH  13  16
ATOM     16  O3  <0> d          -1.127  -0.495  -4.964  0.00  0.00    -0.361 OA
ATOM     17  H18 <0> d          -0.289  -0.648  -5.422  0.00  0.00     0.217 HD
ENDBRANCH  13  16
ENDBRANCH   8  10
ENDBRANCH   5   7
ENDBRANCH   1   5
BRANCH   1  18
ATOM     18  S1  <0> d          -0.062   0.567   5.293  0.00  0.00    -0.078 SA
BRANCH  18  19
ATOM     19  C4  <0> d          -0.000  -0.958   6.275  0.00  0.00     0.157 A 
ATOM     20  C7  <0> d          -1.344  -1.653   6.263  0.00  0.00     0.246 A 
ATOM     21  N4  <0> d          -1.813  -1.720   7.519  0.00  0.00    -0.251 N 
ATOM     22  O2  <0> d          -1.906  -2.079   5.277  0.00  0.00    -0.271 OA
ATOM     23  C6  <0> d          -1.008  -1.180   8.442  0.00  0.00     0.232 A 
ATOM     24  C5  <0> d           0.231  -0.635   7.765  0.00  0.00     0.129 A 
ATOM     25  O1  <0> d          -1.236  -1.134   9.632  0.00  0.00    -0.273 OA
BRANCH  21  26
ATOM     26  C8  <0> d          -3.044  -2.310   7.838  0.00  0.00     0.045 A 
ATOM     27  C13 <0> d          -4.088  -1.528   8.311  0.00  0.00     0.030 A 
ATOM     28  C12 <0> d          -5.302  -2.111   8.618  0.00  0.00     0.002 A 
ATOM     29  C11 <0> d          -5.474  -3.475   8.466  0.00  0.00     0.000 A 
ATOM     30  C10 <0> d          -4.433  -4.258   8.001  0.00  0.00     0.002 A 
ATOM     31  C9  <0> d          -3.219  -3.679   7.686  0.00  0.00     0.030 A 
ENDBRANCH  21  26
ENDBRANCH  18  19
ENDBRANCH   1  18
TORSDOF 7
