REMARK  6 active torsions:
REMARK  status: ('A' for Active; 'I' for Inactive)
REMARK    1  A    between atoms: C2_2  and  N1_4 
REMARK       I    between atoms: N1_4  and  C4_5 
REMARK    2  A    between atoms: C4_5  and  C5_7 
REMARK    3  A    between atoms: C5_7  and  C6_8 
REMARK    4  A    between atoms: C9_11  and  N2_14 
REMARK       I    between atoms: N2_14  and  C12_15 
REMARK    5  A    between atoms: C12_15  and  C13_17 
REMARK    6  A    between atoms: C13_17  and  N3_18 
ROOT
ATOM      1  C6  <0> d          -3.105  -3.632  -1.086  0.00  0.00    -0.049 A 
ATOM      2  C7  <0> d          -3.468  -3.798  -2.410  0.00  0.00     0.010 A 
ATOM      3  C8  <0> d          -3.492  -5.061  -2.968  0.00  0.00     0.030 A 
ATOM      4  C9  <0> d          -3.151  -6.165  -2.199  0.00  0.00     0.034 A 
ATOM      5  C10 <0> d          -2.786  -5.996  -0.870  0.00  0.00     0.030 A 
ATOM      6  C11 <0> d          -2.759  -4.730  -0.319  0.00  0.00     0.010 A 
ENDROOT
BRANCH   4   7
ATOM      7  N2  <0> d          -3.175  -7.446  -2.761  0.00  0.00    -0.326 N 
ATOM      8  C12 <0> d          -2.861  -7.617  -4.061  0.00  0.00     0.240 C 
ATOM      9  O2  <0> d          -2.466  -6.678  -4.718  0.00  0.00    -0.271 OA
ATOM     10  H15 <0> d          -3.418  -8.211  -2.216  0.00  0.00     0.169 HD
BRANCH   8  11
ATOM     11  C13 <0> d          -3.001  -8.976  -4.697  0.00  0.00     0.236 C 
BRANCH  11  12
ATOM     12  N3  <0> d          -2.601  -8.900  -6.105  0.00  0.00    -0.299 N 
ATOM     13  C17 <0> d          -1.319  -9.118  -6.451  0.00  0.00     0.348 A 
ATOM     14  N4  <0> d          -0.933  -9.060  -7.728  0.00  0.00    -0.206 NA
ATOM     15  O3  <0> d          -0.499  -9.378  -5.587  0.00  0.00    -0.244 OA
ATOM     16  C16 <0> d          -1.797  -8.775  -8.682  0.00  0.00     0.123 A 
ATOM     17  C15 <0> d          -3.136  -8.537  -8.359  0.00  0.00     0.037 A 
ATOM     18  C14 <0> d          -3.524  -8.604  -7.057  0.00  0.00     0.098 A 
ENDBRANCH  11  12
ENDBRANCH   8  11
ENDBRANCH   4   7
BRANCH   1  19
ATOM     19  C5  <0> d          -3.079  -2.253  -0.480  0.00  0.00     0.141 C 
BRANCH  19  20
ATOM     20  C4  <0> d          -1.715  -1.644  -0.675  0.00  0.00     0.222 C 
ATOM     21  N1  <0> d          -1.458  -0.405  -0.210  0.00  0.00    -0.357 N 
ATOM     22  H8  <0> d          -2.151   0.095   0.249  0.00  0.00     0.162 HD
ATOM     23  O1  <0> d          -0.849  -2.268  -1.249  0.00  0.00    -0.273 OA
BRANCH  21  24
ATOM     24  C2  <0> d          -0.131   0.188  -0.400  0.00  0.00     0.076 C 
ATOM     25  C1  <0> d          -0.246   1.713  -0.380  0.00  0.00     0.032 C 
ATOM     26  C3  <0> d           0.797  -0.269   0.728  0.00  0.00     0.032 C 
ENDBRANCH  21  24
ENDBRANCH  19  20
ENDBRANCH   1  19
TORSDOF 6
