REMARK  2 active torsions:
REMARK  status: ('A' for Active; 'I' for Inactive)
REMARK    1  A    between atoms: C6_7  and  C12_14 
REMARK    2  A    between atoms: N4_19  and  C16_22 
ROOT
ATOM      1  C1  <0> d          -0.132   0.971   0.188  0.00  0.00     0.001 A 
ATOM      2  C2  <0> d           1.038   1.738   0.274  0.00  0.00     0.002 A 
ATOM      3  C3  <0> d           2.271   1.190   0.238  0.00  0.00     0.030 A 
ATOM      4  C4  <0> d           2.432  -0.215   0.110  0.00  0.00     0.039 A 
ATOM      5  N1  <0> d           3.507  -0.968   0.029  0.00  0.00    -0.378 N 
ATOM      6  C5  <0> d           3.091  -2.366   0.003  0.00  0.00     0.150 C 
ATOM      7  C6  <0> d           3.625  -3.117  -1.220  0.00  0.00     0.289 C 
ATOM      8  N2  <0> d           2.925  -4.408  -1.312  0.00  0.00     0.095 N 
ATOM      9  C7  <0> d           1.498  -4.272  -1.618  0.00  0.00     0.275 C 
ATOM     10  C8  <0> d           0.774  -3.570  -0.455  0.00  0.00     0.067 C 
ATOM     11  C9  <0> d           1.575  -2.332  -0.118  0.00  0.00    -0.041 C 
ATOM     12  C10 <0> d           1.209  -1.051   0.009  0.00  0.00    -0.005 A 
ATOM     13  C11 <0> d          -0.093  -0.374   0.061  0.00  0.00     0.014 A 
ATOM     14  H6  <0> d           3.380  -5.019  -1.974  0.00  0.00     0.316 HD
ATOM     15  H17 <0> d           4.422  -0.647  -0.007  0.00  0.00     0.160 HD
ENDROOT
BRANCH   7  16
ATOM     16  C12 <0> d           3.367  -2.309  -2.465  0.00  0.00     0.099 A 
ATOM     17  C15 <0> d           4.426  -1.970  -3.327  0.00  0.00     0.263 A 
ATOM     18  N4  <0> d           4.173  -1.250  -4.438  0.00  0.00    -0.285 N 
ATOM     19  O1  <0> d           5.562  -2.329  -3.074  0.00  0.00    -0.267 OA
ATOM     20  C14 <0> d           2.921  -0.847  -4.720  0.00  0.00     0.183 A 
ATOM     21  N3  <0> d           1.894  -1.155  -3.907  0.00  0.00    -0.310 N 
ATOM     22  S1  <0> d           2.629   0.071  -6.135  0.00  0.00    -0.040 SA
ATOM     23  C13 <0> d           2.106  -1.890  -2.768  0.00  0.00     0.195 A 
ATOM     24  H18 <0> d           0.998  -0.855  -4.127  0.00  0.00     0.170 HD
ATOM     25  O2  <0> d           1.073  -2.197  -1.955  0.00  0.00    -0.171 OA
BRANCH  18  26
ATOM     26  C16 <0> d           5.271  -0.900  -5.343  0.00  0.00     0.096 A 
ATOM     27  C18 <0> d           5.612   0.583  -5.499  0.00  0.00     0.028 A 
ATOM     28  C17 <0> d           6.550  -0.340  -4.718  0.00  0.00     0.028 A 
ENDBRANCH  18  26
ENDBRANCH   7  16
TORSDOF 2
