REMARK  4 active torsions:
REMARK  status: ('A' for Active; 'I' for Inactive)
REMARK    1  A    between atoms: C6_7  and  C9_11 
REMARK    2  A    between atoms: C9_11  and  N3_12 
REMARK       I    between atoms: N3_12  and  C10_13 
REMARK    3  A    between atoms: C10_13  and  C11_15 
REMARK       I    between atoms: N4_17  and  C19_25 
REMARK    4  A    between atoms: C19_25  and  C20_27 
ROOT
ATOM      1  C11 <0> d           2.784  -7.673   2.832  0.00  0.00     0.106 C 
ATOM      2  C12 <0> d           3.825  -8.098   1.773  0.00  0.00     0.141 C 
ATOM      3  N4  <0> d           4.760  -8.987   2.503  0.00  0.00    -0.345 N 
ATOM      4  C13 <0> d           3.887  -9.784   3.398  0.00  0.00     0.136 C 
ATOM      5  C14 <0> d           2.826  -8.783   3.896  0.00  0.00    -0.007 C 
ATOM      6  C15 <0> d           1.466  -9.465   4.003  0.00  0.00     0.039 C 
ATOM      7  C16 <0> d           1.516 -10.524   5.107  0.00  0.00     0.233 C 
ATOM      8  N5  <0> d           1.869  -9.888   6.382  0.00  0.00    -0.075 N 
ATOM      9  C17 <0> d           3.218  -9.315   6.300  0.00  0.00     0.233 C 
ATOM     10  C18 <0> d           3.239  -8.204   5.246  0.00  0.00     0.039 C 
ATOM     11  C19 <0> d           6.100  -9.056   2.381  0.00  0.00     0.272 C 
ATOM     12  O2  <0> d           6.713  -9.968   2.903  0.00  0.00    -0.266 OA
ATOM     13  H20 <0> d           1.205  -9.155   6.586  0.00  0.00     0.277 HD
ATOM     14  H30 <0> d           1.842 -10.576   7.119  0.00  0.00     0.277 HD
ENDROOT
BRANCH   1  15
ATOM     15  C10 <0> d           1.411  -7.591   2.214  0.00  0.00     0.224 C 
ATOM     16  N3  <0> d           0.475  -6.789   2.758  0.00  0.00    -0.355 N 
ATOM     17  H11 <0> d           0.684  -6.264   3.547  0.00  0.00     0.162 HD
ATOM     18  O1  <0> d           1.150  -8.246   1.228  0.00  0.00    -0.273 OA
BRANCH  16  19
ATOM     19  C9  <0> d          -0.859  -6.709   2.157  0.00  0.00     0.181 C 
BRANCH  19  20
ATOM     20  C6  <0> d          -1.710  -5.750   2.950  0.00  0.00     0.044 A 
ATOM     21  C5  <0> d          -1.893  -4.441   2.668  0.00  0.00     0.124 A 
ATOM     22  N1  <0> d          -2.730  -3.935   3.625  0.00  0.00    -0.317 N 
ATOM     23  C4  <0> d          -3.247  -2.690   3.834  0.00  0.00     0.098 A 
ATOM     24  C7  <0> d          -3.037  -4.966   4.475  0.00  0.00     0.112 A 
ATOM     25  C3  <0> d          -4.068  -2.453   4.879  0.00  0.00     0.024 A 
ATOM     26  C2  <0> d          -4.401  -3.489   5.767  0.00  0.00    -0.057 A 
ATOM     27  C1  <0> d          -5.318  -3.221   6.933  0.00  0.00     0.048 C 
ATOM     28  C8  <0> d          -3.888  -4.734   5.574  0.00  0.00     0.055 A 
ATOM     29  N2  <0> d          -2.409  -6.052   4.046  0.00  0.00    -0.343 N 
ATOM     30  H31 <0> d          -2.451  -6.927   4.463  0.00  0.00     0.167 HD
ENDBRANCH  19  20
ENDBRANCH  16  19
ENDBRANCH   1  15
BRANCH  11  31
ATOM     31  C20 <0> d           6.821  -8.029   1.620  0.00  0.00     0.121 A 
ATOM     32  N7  <0> d           8.112  -8.111   1.135  0.00  0.00    -0.340 N 
ATOM     33  C22 <0> d           8.369  -6.954   0.499  0.00  0.00     0.209 A 
ATOM     34  C23 <0> d           9.028  -9.245   1.283  0.00  0.00     0.157 C 
ATOM     35  N6  <0> d           7.318  -6.178   0.577  0.00  0.00    -0.253 NA
ATOM     36  C21 <0> d           6.351  -6.799   1.254  0.00  0.00     0.153 A 
ENDBRANCH  11  31
TORSDOF 4
