REMARK  6 active torsions:
REMARK  status: ('A' for Active; 'I' for Inactive)
REMARK    1  A    between atoms: C5_5  and  N1_7 
REMARK       I    between atoms: N1_7  and  C7_8 
REMARK    2  A    between atoms: C7_8  and  C8_10 
REMARK       I    between atoms: C8_10  and  N2_12 
REMARK    3  A    between atoms: N2_12  and  C9_13 
REMARK    4  A    between atoms: C9_13  and  C10_14 
REMARK    5  A    between atoms: C10_14  and  C11_15 
REMARK    6  A    between atoms: C10_14  and  N3_20 
ROOT
ATOM      1  C8  <0> d           1.093  -6.859   1.184  0.00  0.00     0.309 C 
ATOM      2  O2  <0> d           1.652  -6.103   0.417  0.00  0.00    -0.262 OA
ATOM      3  N2  <0> d          -0.172  -7.255   0.940  0.00  0.00    -0.351 N 
ATOM      4  H7  <0> d          -0.618  -7.859   1.553  0.00  0.00     0.162 HD
ENDROOT
BRANCH   3   5
ATOM      5  C9  <0> d          -0.873  -6.771  -0.252  0.00  0.00     0.163 C 
BRANCH   5   6
ATOM      6  C10 <0> d          -2.320  -7.266  -0.229  0.00  0.00     0.262 C 
BRANCH   6   7
ATOM      7  C11 <0> d          -2.340  -8.768  -0.354  0.00  0.00     0.085 A 
ATOM      8  O3  <0> d          -2.210  -9.462  -1.496  0.00  0.00    -0.325 OA
ATOM      9  C14 <0> d          -2.271 -10.777  -1.230  0.00  0.00     0.142 A 
ATOM     10  C13 <0> d          -2.452 -10.935   0.094  0.00  0.00     0.027 A 
ATOM     11  C12 <0> d          -2.496  -9.640   0.658  0.00  0.00     0.037 A 
ENDBRANCH   6   7
BRANCH   6  12
ATOM     12  N3  <0> d          -3.060  -6.671  -1.350  0.00  0.00    -0.059 N 
ATOM     13  C18 <0> d          -2.963  -5.197  -1.300  0.00  0.00     0.236 C 
ATOM     14  C17 <0> d          -4.312  -4.638  -1.791  0.00  0.00     0.029 C 
ATOM     15  C16 <0> d          -5.179  -5.883  -2.088  0.00  0.00     0.029 C 
ATOM     16  C15 <0> d          -4.506  -6.987  -1.234  0.00  0.00     0.236 C 
ATOM     17  H21 <0> d          -2.697  -7.014  -2.227  0.00  0.00     0.280 HD
ENDBRANCH   6  12
ENDBRANCH   5   6
ENDBRANCH   3   5
BRANCH   1  18
ATOM     18  C7  <0> d           1.808  -7.352   2.400  0.00  0.00     0.314 C 
ATOM     19  N1  <0> d           3.073  -6.957   2.644  0.00  0.00    -0.317 N 
ATOM     20  H6  <0> d           3.492  -6.293   2.075  0.00  0.00     0.169 HD
ATOM     21  O1  <0> d           1.250  -8.109   3.167  0.00  0.00    -0.262 OA
BRANCH  19  22
ATOM     22  C5  <0> d           3.781  -7.503   3.718  0.00  0.00     0.057 A 
ATOM     23  C4  <0> d           4.831  -6.797   4.292  0.00  0.00     0.060 A 
ATOM     24  C3  <0> d           5.529  -7.341   5.354  0.00  0.00     0.026 A 
ATOM     25 Cl1  <0> d           5.267  -5.233   3.676  0.00  0.00    -0.082 Cl
ATOM     26  C2  <0> d           5.181  -8.586   5.846  0.00  0.00     0.002 A 
ATOM     27  C1  <0> d           4.137  -9.291   5.277  0.00  0.00     0.002 A 
ATOM     28  C6  <0> d           3.436  -8.754   4.215  0.00  0.00     0.031 A 
ENDBRANCH  19  22
ENDBRANCH   1  18
TORSDOF 6
