REMARK  8 active torsions:
REMARK  status: ('A' for Active; 'I' for Inactive)
REMARK    1  A    between atoms: C2_2  and  C4_4 
REMARK    2  A    between atoms: C4_4  and  N1_5 
REMARK    3  A    between atoms: C8_9  and  C10_12 
REMARK       I    between atoms: C10_12  and  N3_14 
REMARK    4  A    between atoms: N3_14  and  C11_15 
REMARK    5  A    between atoms: C11_15  and  C12_16 
REMARK    6  A    between atoms: C11_15  and  C15_21 
REMARK    7  A    between atoms: C12_16  and  C13_17 
REMARK    8  A    between atoms: C13_17  and  O3_19 
ROOT
ATOM      1  C10 <0> d           4.808   4.440  -2.820  0.00  0.00     0.253 C 
ATOM      2  O1  <0> d           6.017   4.387  -2.702  0.00  0.00    -0.268 OA
ATOM      3  N3  <0> d           4.237   5.493  -3.437  0.00  0.00    -0.348 N 
ATOM      4  H13 <0> d           3.280   5.502  -3.596  0.00  0.00     0.163 HD
ENDROOT
BRANCH   1   5
ATOM      5  C8  <0> d           3.966   3.350  -2.288  0.00  0.00     0.050 A 
ATOM      6  C7  <0> d           4.548   2.255  -1.648  0.00  0.00     0.035 A 
ATOM      7  C6  <0> d           3.703   1.255  -1.163  0.00  0.00     0.032 A 
ATOM      8  C5  <0> d           2.308   1.381  -1.335  0.00  0.00     0.157 A 
ATOM      9  C21 <0> d           3.920  -0.006  -0.460  0.00  0.00     0.154 A 
ATOM     10  N1  <0> d           1.745   0.272  -0.771  0.00  0.00    -0.252 N 
ATOM     11  N2  <0> d           1.805   2.445  -1.953  0.00  0.00    -0.240 NA
ATOM     12  N4  <0> d           2.753  -0.543  -0.247  0.00  0.00    -0.182 NA
ATOM     13  C9  <0> d           2.571   3.402  -2.419  0.00  0.00     0.136 A 
BRANCH  10  14
ATOM     14  C4  <0> d           0.310  -0.016  -0.719  0.00  0.00     0.157 C 
BRANCH  14  15
ATOM     15  C2  <0> d          -0.284   0.578   0.560  0.00  0.00    -0.003 C 
ATOM     16  C1  <0> d          -0.178   2.104   0.509  0.00  0.00     0.011 C 
ATOM     17  C3  <0> d          -1.754   0.172   0.677  0.00  0.00     0.011 C 
ENDBRANCH  14  15
ENDBRANCH  10  14
ENDBRANCH   1   5
BRANCH   3  18
ATOM     18  C11 <0> d           5.061   6.625  -3.868  0.00  0.00     0.127 C 
BRANCH  18  19
ATOM     19  C12 <0> d           4.328   7.402  -4.963  0.00  0.00     0.141 C 
BRANCH  19  20
ATOM     20  C13 <0> d           4.191   6.536  -6.189  0.00  0.00     0.260 C 
ATOM     21  O2  <0> d           4.721   5.451  -6.224  0.00  0.00    -0.265 OA
BRANCH  20  22
ATOM     22  O3  <0> d           3.481   6.971  -7.242  0.00  0.00    -0.326 OA
ATOM     23  C14 <0> d           3.394   6.098  -8.370  0.00  0.00     0.213 C 
ENDBRANCH  20  22
ENDBRANCH  19  20
ENDBRANCH  18  19
BRANCH  18  24
ATOM     24  C15 <0> d           5.320   7.534  -2.694  0.00  0.00    -0.035 A 
ATOM     25  C20 <0> d           6.566   8.107  -2.526  0.00  0.00     0.010 A 
ATOM     26  C19 <0> d           6.802   8.945  -1.452  0.00  0.00     0.019 A 
ATOM     27  C18 <0> d           5.794   9.200  -0.539  0.00  0.00     0.011 A 
ATOM     28  C17 <0> d           4.549   8.621  -0.705  0.00  0.00     0.019 A 
ATOM     29 Br1  <0> d           6.119  10.340   0.934  0.00  0.00    -0.051 Br
ATOM     30  C16 <0> d           4.312   7.788  -1.782  0.00  0.00     0.010 A 
ENDBRANCH  18  24
ENDBRANCH   3  18
TORSDOF 8
