REMARK  4 active torsions:
REMARK  status: ('A' for Active; 'I' for Inactive)
REMARK    1  A    between atoms: S1_2  and  C2_5 
REMARK    2  A    between atoms: C2_5  and  C3_6 
REMARK    3  A    between atoms: C3_6  and  N1_7 
REMARK    4  A    between atoms: N1_7  and  C4_8 
ROOT
ATOM      1  C4  <0> d           1.818  -3.661  -3.145  0.00  0.00     0.252 C 
ATOM      2  C5  <0> d           0.587  -4.221  -3.905  0.00  0.00     0.065 C 
ATOM      3  C6  <0> d           1.177  -5.491  -4.565  0.00  0.00     0.237 C 
ATOM      4  N2  <0> d           2.558  -5.119  -4.946  0.00  0.00    -0.065 N 
ATOM      5  C7  <0> d           2.990  -3.989  -4.091  0.00  0.00     0.221 C 
ATOM      6  C8  <0> d           4.194  -4.475  -3.258  0.00  0.00     0.037 C 
ATOM      7  C9  <0> d           4.753  -5.646  -4.108  0.00  0.00     0.030 C 
ATOM      8  C10 <0> d           3.450  -6.269  -4.681  0.00  0.00     0.235 C 
ATOM      9  H21 <0> d           2.595  -4.863  -5.921  0.00  0.00     0.280 HD
ENDROOT
BRANCH   1  10
ATOM     10  N1  <0> d           1.695  -2.210  -2.954  0.00  0.00     0.091 N 
ATOM     11  H10 <0> d           1.239  -1.778  -3.744  0.00  0.00     0.316 HD
BRANCH  10  12
ATOM     12  C3  <0> d           0.986  -1.902  -1.705  0.00  0.00     0.285 C 
BRANCH  12  13
ATOM     13  C2  <0> d           0.877  -0.385  -1.541  0.00  0.00     0.169 C 
BRANCH  13  14
ATOM     14  S1  <0> d           0.002  -0.004   0.002  0.00  0.00     0.142 S 
ATOM     15  C1  <0> d          -0.022   1.810   0.012  0.00  0.00     0.161 C 
ATOM     16  O1  <0> d           0.798  -0.449   1.092  0.00  0.00    -0.228 OA
ATOM     17  O2  <0> d          -1.335  -0.471  -0.113  0.00  0.00    -0.228 OA
ENDBRANCH  13  14
ENDBRANCH  12  13
ENDBRANCH  10  12
ENDBRANCH   1  10
TORSDOF 4
