REMARK  5 active torsions:
REMARK  status: ('A' for Active; 'I' for Inactive)
REMARK    1  A    between atoms: C4_4  and  C20_26 
REMARK    2  A    between atoms: C7_7  and  N1_8 
REMARK       I    between atoms: N1_8  and  C8_9 
REMARK       I    between atoms: C8_9  and  N2_11 
REMARK    3  A    between atoms: N2_11  and  C9_12 
REMARK    4  A    between atoms: C9_12  and  C10_13 
REMARK    5  A    between atoms: C9_12  and  C16_20 
REMARK       I    between atoms: C20_26  and  N5_28 
ROOT
ATOM      1  N1  <0> d           0.025  -0.012   2.413  0.00  0.00    -0.308 N 
ATOM      2  C8  <0> d          -0.057  -0.688   3.577  0.00  0.00     0.321 C 
ATOM      3  O1  <0> d          -0.040  -1.903   3.576  0.00  0.00    -0.247 OA
ATOM      4  N2  <0> d          -0.156  -0.015   4.741  0.00  0.00    -0.327 N 
ATOM      5  H8  <0> d           0.078   0.956   2.417  0.00  0.00     0.170 HD
ATOM      6  H9  <0> d          -0.169   0.955   4.741  0.00  0.00     0.165 HD
ENDROOT
BRANCH   1   7
ATOM      7  C7  <0> d           0.033  -0.706   1.204  0.00  0.00     0.042 A 
ATOM      8  C2  <0> d          -0.589  -0.159   0.086  0.00  0.00    -0.034 A 
ATOM      9  C1  <0> d          -1.270   1.182   0.184  0.00  0.00     0.050 C 
ATOM     10  C3  <0> d          -0.579  -0.838  -1.111  0.00  0.00     0.026 A 
ATOM     11  C4  <0> d           0.053  -2.082  -1.202  0.00  0.00     0.032 A 
ATOM     12  C5  <0> d           0.672  -2.631  -0.075  0.00  0.00     0.019 A 
ATOM     13  C6  <0> d           0.657  -1.946   1.119  0.00  0.00     0.031 A 
BRANCH  11  14
ATOM     14  C20 <0> d           0.066  -2.813  -2.483  0.00  0.00     0.251 C 
ATOM     15  O2  <0> d          -0.474  -2.334  -3.462  0.00  0.00    -0.268 OA
ATOM     16  N5  <0> d           0.675  -4.012  -2.569  0.00  0.00    -0.361 N 
ATOM     17  C21 <0> d           0.688  -4.738  -3.841  0.00  0.00     0.149 C 
ATOM     18  H19 <0> d           1.105  -4.394  -1.788  0.00  0.00     0.162 HD
ENDBRANCH  11  14
ENDBRANCH   1   7
BRANCH   4  19
ATOM     19  C9  <0> d          -0.245  -0.749   6.005  0.00  0.00     0.189 C 
BRANCH  19  20
ATOM     20  C10 <0> d           0.258   0.121   7.128  0.00  0.00    -0.025 A 
ATOM     21  C15 <0> d           1.033  -0.426   8.132  0.00  0.00     0.052 A 
ATOM     22  C14 <0> d           1.501   0.375   9.160  0.00  0.00     0.117 A 
ATOM     23  C13 <0> d           1.181   1.722   9.187  0.00  0.00     0.042 A 
ATOM     24  F1  <0> d           2.264  -0.158  10.139  0.00  0.00    -0.206 F 
ATOM     25  C12 <0> d           0.401   2.266   8.184  0.00  0.00     0.004 A 
ATOM     26  C11 <0> d          -0.060   1.466   7.155  0.00  0.00     0.010 A 
ENDBRANCH  19  20
BRANCH  19  27
ATOM     27  C16 <0> d          -1.680  -1.127   6.267  0.00  0.00     0.133 A 
ATOM     28  N4  <0> d          -2.112  -2.336   6.687  0.00  0.00    -0.346 N 
ATOM     29  C18 <0> d          -3.473  -2.262   6.804  0.00  0.00     0.111 A 
ATOM     30  C19 <0> d          -1.278  -3.508   6.967  0.00  0.00     0.157 C 
ATOM     31  C17 <0> d          -3.828  -1.013   6.444  0.00  0.00     0.136 A 
ATOM     32  N3  <0> d          -2.712  -0.342   6.121  0.00  0.00    -0.243 NA
ENDBRANCH  19  27
ENDBRANCH   4  19
TORSDOF 5
