REMARK  9 active torsions:
REMARK  status: ('A' for Active; 'I' for Inactive)
REMARK    1  A    between atoms: C2_2  and  C5_5 
REMARK    2  A    between atoms: C8_8  and  N1_11 
REMARK       I    between atoms: N1_11  and  C11_12 
REMARK    3  A    between atoms: C11_12  and  C12_14 
REMARK       I    between atoms: C12_14  and  N2_16 
REMARK    4  A    between atoms: N2_16  and  C13_17 
REMARK    5  A    between atoms: C13_17  and  C14_18 
REMARK    6  A    between atoms: C14_18  and  C15_19 
REMARK       I    between atoms: C15_19  and  N3_21 
REMARK    7  A    between atoms: N3_21  and  C16_22 
REMARK    8  A    between atoms: C16_22  and  C17_23 
REMARK    9  A    between atoms: C17_23  and  O4_24 
ROOT
ATOM      1  N1  <0> d           2.657  -1.833  -4.664  0.00  0.00    -0.319 N 
ATOM      2  C11 <0> d           3.908  -1.412  -4.936  0.00  0.00     0.313 C 
ATOM      3  O1  <0> d           4.500  -0.714  -4.140  0.00  0.00    -0.262 OA
ATOM      4  H14 <0> d           2.212  -2.452  -5.264  0.00  0.00     0.169 HD
ENDROOT
BRANCH   2   5
ATOM      5  C12 <0> d           4.565  -1.804  -6.219  0.00  0.00     0.309 C 
ATOM      6  O2  <0> d           3.972  -2.502  -7.016  0.00  0.00    -0.262 OA
ATOM      7  N2  <0> d           5.816  -1.383  -6.491  0.00  0.00    -0.352 N 
ATOM      8  H15 <0> d           6.289  -0.825  -5.855  0.00  0.00     0.162 HD
BRANCH   7   9
ATOM      9  C13 <0> d           6.460  -1.768  -7.749  0.00  0.00     0.132 C 
BRANCH   9  10
ATOM     10  C14 <0> d           7.864  -1.163  -7.809  0.00  0.00     0.122 C 
BRANCH  10  11
ATOM     11  C15 <0> d           8.528  -1.559  -9.103  0.00  0.00     0.219 C 
ATOM     12  O3  <0> d           7.936  -2.256  -9.899  0.00  0.00    -0.274 OA
ATOM     13  N3  <0> d           9.779  -1.138  -9.376  0.00  0.00    -0.359 N 
ATOM     14  H20 <0> d          10.252  -0.580  -8.739  0.00  0.00     0.162 HD
BRANCH  13  15
ATOM     15  C16 <0> d          10.423  -1.522 -10.633  0.00  0.00     0.148 C 
BRANCH  15  16
ATOM     16  C17 <0> d          11.827  -0.917 -10.693  0.00  0.00     0.186 C 
BRANCH  16  17
ATOM     17  O4  <0> d          12.636  -1.489  -9.663  0.00  0.00    -0.394 OA
ATOM     18  C18 <0> d          13.975  -0.989  -9.631  0.00  0.00     0.201 C 
ENDBRANCH  16  17
ENDBRANCH  15  16
ENDBRANCH  13  15
ENDBRANCH  10  11
ENDBRANCH   9  10
ENDBRANCH   7   9
ENDBRANCH   2   5
BRANCH   1  19
ATOM     19  C8  <0> d           2.000  -1.378  -3.518  0.00  0.00     0.035 A 
ATOM     20  C7  <0> d           1.115  -2.211  -2.845  0.00  0.00     0.030 A 
ATOM     21  C6  <0> d           0.468  -1.757  -1.712  0.00  0.00     0.010 A 
ATOM     22  C5  <0> d           0.702  -0.476  -1.247  0.00  0.00    -0.051 A 
ATOM     23  C10 <0> d           1.578   0.358  -1.917  0.00  0.00     0.010 A 
ATOM     24  C9  <0> d           2.232  -0.091  -3.048  0.00  0.00     0.030 A 
BRANCH  22  25
ATOM     25  C2  <0> d          -0.006   0.015  -0.010  0.00  0.00    -0.024 C 
ATOM     26  C1  <0> d          -0.853   1.240  -0.360  0.00  0.00     0.019 C 
ATOM     27  C3  <0> d           1.028   0.396   1.051  0.00  0.00     0.019 C 
ATOM     28  C4  <0> d          -0.910  -1.093   0.534  0.00  0.00     0.019 C 
ENDBRANCH  22  25
ENDBRANCH   1  19
TORSDOF 9
