REMARK  4 active torsions:
REMARK  status: ('A' for Active; 'I' for Inactive)
REMARK    1  A    between atoms: C4_4  and  C7_7 
REMARK    2  A    between atoms: C7_7  and  C8_8 
REMARK    3  A    between atoms: C8_8  and  N1_9 
REMARK    4  A    between atoms: N1_9  and  C9_10 
ROOT
ATOM      1  C9  <0> d           3.649   3.292  -0.016  0.00  0.00     0.089 A 
ATOM      2  C10 <0> d           2.420   3.932   0.020  0.00  0.00     0.015 A 
ATOM      3  C11 <0> d           2.391   5.399   0.027  0.00  0.00     0.018 A 
ATOM      4  C12 <0> d           1.160   6.084   0.063  0.00  0.00     0.028 A 
ATOM      5  C13 <0> d           1.153   7.478   0.068  0.00  0.00     0.016 A 
ATOM      6  C14 <0> d           2.346   8.175   0.038  0.00  0.00     0.003 A 
ATOM      7  C15 <0> d           3.556   7.510   0.003  0.00  0.00     0.030 A 
ATOM      8  C16 <0> d           3.595   6.118  -0.004  0.00  0.00     0.047 A 
ATOM      9  N2  <0> d           4.803   5.451  -0.039  0.00  0.00    -0.321 N 
ATOM     10  H1  <0> d           5.651   5.981  -0.060  0.00  0.00     0.169 HD
ATOM     11  C17 <0> d           4.871   4.109  -0.046  0.00  0.00     0.268 A 
ATOM     12  O1  <0> d           5.958   3.562  -0.078  0.00  0.00    -0.266 OA
ATOM     13  C18 <0> d          -0.100   5.325   0.094  0.00  0.00     0.194 A 
ATOM     14  O2  <0> d          -1.165   5.913   0.125  0.00  0.00    -0.287 OA
ATOM     15  C19 <0> d          -0.070   3.853   0.087  0.00  0.00     0.026 A 
ATOM     16  C20 <0> d           1.162   3.171   0.051  0.00  0.00    -0.009 A 
ATOM     17  C21 <0> d           1.176   1.776   0.044  0.00  0.00     0.013 A 
ATOM     18  C22 <0> d          -0.011   1.075   0.073  0.00  0.00     0.001 A 
ATOM     19  C23 <0> d          -1.224   1.747   0.103  0.00  0.00     0.001 A 
ATOM     20  C24 <0> d          -1.261   3.124   0.116  0.00  0.00     0.016 A 
ENDROOT
BRANCH   1  21
ATOM     21  N1  <0> d           3.724   1.910  -0.024  0.00  0.00    -0.287 NA
ATOM     22  H11 <0> d           4.165   1.567   0.816  0.00  0.00     0.127 HD
BRANCH  21  23
ATOM     23  C8  <0> d           4.426   1.428  -1.221  0.00  0.00     0.097 C 
BRANCH  23  24
ATOM     24  C7  <0> d           4.489  -0.100  -1.194  0.00  0.00     0.053 C 
BRANCH  24  25
ATOM     25  C4  <0> d           5.208  -0.595  -2.422  0.00  0.00    -0.057 A 
ATOM     26  C3  <0> d           6.579  -0.769  -2.397  0.00  0.00     0.007 A 
ATOM     27  C2  <0> d           7.239  -1.223  -3.524  0.00  0.00     0.001 A 
ATOM     28  C1  <0> d           6.528  -1.503  -4.676  0.00  0.00     0.000 A 
ATOM     29  C6  <0> d           5.157  -1.329  -4.701  0.00  0.00     0.001 A 
ATOM     30  C5  <0> d           4.497  -0.881  -3.573  0.00  0.00     0.007 A 
ENDBRANCH  24  25
ENDBRANCH  23  24
ENDBRANCH  21  23
ENDBRANCH   1  21
TORSDOF 4
