REMARK  4 active torsions:
REMARK  status: ('A' for Active; 'I' for Inactive)
REMARK    1  A    between atoms: C2_2  and  N1_5 
REMARK       I    between atoms: N1_5  and  C5_6 
REMARK       I    between atoms: C5_6  and  N2_8 
REMARK       I    between atoms: N2_8  and  C6_9 
REMARK    2  A    between atoms: C6_9  and  C7_11 
REMARK    3  A    between atoms: C7_11  and  N3_12 
REMARK    4  A    between atoms: N3_12  and  C9_14 
ROOT
ATOM      1  N1  <0> d          -0.487   1.406  -4.765  0.00  0.00    -0.335 N 
ATOM      2  C5  <0> d          -0.940   1.719  -3.535  0.00  0.00     0.323 C 
ATOM      3  O1  <0> d          -1.937   2.403  -3.410  0.00  0.00    -0.247 OA
ATOM      4  N2  <0> d          -0.288   1.272  -2.443  0.00  0.00    -0.278 N 
ATOM      5  C6  <0> d          -0.742   1.585  -1.213  0.00  0.00     0.251 C 
ATOM      6  O2  <0> d          -1.736   2.268  -1.089  0.00  0.00    -0.271 OA
ATOM      7  H11 <0> d           0.415   0.786  -4.878  0.00  0.00     0.165 HD
ATOM      8  H12 <0> d           0.614   0.653  -2.556  0.00  0.00     0.173 HD
ENDROOT
BRANCH   5   9
ATOM      9  C7  <0> d          -0.013   1.086   0.008  0.00  0.00     0.337 C 
BRANCH   9  10
ATOM     10  N3  <0> d          -0.700   1.560   1.217  0.00  0.00    -0.061 N 
ATOM     11  C8  <0> d          -2.034   0.955   1.335  0.00  0.00     0.270 C 
ATOM     12  H24 <0> d          -0.829   2.648   1.127  0.00  0.00     0.280 HD
BRANCH  10  13
ATOM     13  C9  <0> d           0.104   1.297   2.417  0.00  0.00     0.203 C 
ATOM     14  C12 <0> d          -0.590   1.921   3.662  0.00  0.00     0.173 C 
ATOM     15  S1  <0> d           0.223   0.969   5.013  0.00  0.00     0.146 S 
ATOM     16  C11 <0> d           0.781  -0.500   4.058  0.00  0.00     0.142 C 
ATOM     17  O3  <0> d           1.363   1.687   5.465  0.00  0.00    -0.228 OA
ATOM     18  O4  <0> d          -0.765   0.562   5.951  0.00  0.00    -0.228 OA
ATOM     19  C10 <0> d           0.220  -0.219   2.644  0.00  0.00     0.049 C 
ENDBRANCH  10  13
ENDBRANCH   9  10
ENDBRANCH   5   9
BRANCH   1  20
ATOM     20  C2  <0> d          -1.196   1.891  -5.952  0.00  0.00     0.023 C 
ATOM     21  C1  <0> d          -1.216   3.421  -5.944  0.00  0.00     0.037 C 
ATOM     22  C3  <0> d          -0.480   1.398  -7.211  0.00  0.00     0.037 C 
ATOM     23  C4  <0> d          -2.631   1.362  -5.941  0.00  0.00     0.037 C 
ENDBRANCH   1  20
TORSDOF 4
