REMARK  5 active torsions:
REMARK  status: ('A' for Active; 'I' for Inactive)
REMARK    1  A    between atoms: C3_3  and  C10_11 
REMARK    2  A    between atoms: C5_5  and  C7_7 
REMARK    3  A    between atoms: C8_8  and  C9_9 
REMARK    4  A    between atoms: C9_9  and  O1_10 
REMARK    5  A    between atoms: C10_11  and  N1_12 
ROOT
ATOM      1  C1  <0> d          -0.017   1.375   0.010  0.00  0.00     0.002 A 
ATOM      2  C2  <0> d           1.170   2.086   0.002  0.00  0.00     0.009 A 
ATOM      3  C3  <0> d           2.382   1.420  -0.013  0.00  0.00    -0.031 A 
ATOM      4  C4  <0> d           2.415   0.041  -0.021  0.00  0.00     0.029 A 
ATOM      5  C5  <0> d           1.222  -0.682  -0.013  0.00  0.00     0.018 A 
ATOM      6  C6  <0> d           0.002  -0.004   0.002  0.00  0.00     0.020 A 
ENDROOT
BRANCH   3   7
ATOM      7  C10 <0> d           3.670   2.203  -0.023  0.00  0.00     0.273 C 
BRANCH   7   8
ATOM      8  N1  <0> d           4.103   2.450   1.359  0.00  0.00    -0.066 N 
ATOM      9  C14 <0> d           5.413   3.105   1.343  0.00  0.00     0.250 C 
ATOM     10  C13 <0> d           6.039   3.054   2.741  0.00  0.00     0.168 C 
ATOM     11  S1  <0> d           4.977   3.991   3.882  0.00  0.00     0.147 S 
ATOM     12  C12 <0> d           3.344   3.263   3.547  0.00  0.00     0.168 C 
ATOM     13  O2  <0> d           5.351   3.671   5.215  0.00  0.00    -0.228 OA
ATOM     14  O3  <0> d           4.958   5.353   3.475  0.00  0.00    -0.228 OA
ATOM     15  C11 <0> d           3.105   3.283   2.033  0.00  0.00     0.250 C 
ATOM     16  H18 <0> d           4.179   1.569   1.845  0.00  0.00     0.280 HD
ENDBRANCH   7   8
ENDBRANCH   3   7
BRANCH   5  17
ATOM     17  C7  <0> d           1.248  -2.114  -0.022  0.00  0.00    -0.065 C 
ATOM     18  C8  <0> d           1.270  -3.288  -0.029  0.00  0.00    -0.075 C 
BRANCH  18  19
ATOM     19  C9  <0> d           1.297  -4.760  -0.037  0.00  0.00     0.258 C 
BRANCH  19  20
ATOM     20  O1  <0> d          -0.041  -5.261  -0.027  0.00  0.00    -0.389 OA
ATOM     21  H7  <0> d          -0.099  -6.226  -0.032  0.00  0.00     0.210 HD
ENDBRANCH  19  20
ENDBRANCH  18  19
ENDBRANCH   5  17
TORSDOF 5
