REMARK  6 active torsions:
REMARK  status: ('A' for Active; 'I' for Inactive)
REMARK    1  A    between atoms: N1_2  and  C3_4 
REMARK    2  A    between atoms: C3_4  and  C4_5 
REMARK    3  A    between atoms: C3_4  and  C16_22 
REMARK    4  A    between atoms: C4_5  and  N2_6 
REMARK       I    between atoms: N2_6  and  C5_7 
REMARK       I    between atoms: C5_7  and  N3_9 
REMARK    5  A    between atoms: N4_12  and  C10_15 
REMARK    6  A    between atoms: C13_18  and  O2_21 
ROOT
ATOM      1  N2  <0> d          -0.451  -2.194  -1.049  0.00  0.00    -0.341 N 
ATOM      2  C5  <0> d          -0.683  -3.522  -1.028  0.00  0.00     0.318 C 
ATOM      3  O1  <0> d           0.244  -4.300  -0.911  0.00  0.00    -0.247 OA
ATOM      4  N3  <0> d          -1.943  -3.987  -1.137  0.00  0.00    -0.331 N 
ATOM      5  C6  <0> d          -2.227  -5.421  -0.987  0.00  0.00     0.147 C 
ATOM      6  C7  <0> d          -3.285  -5.599   0.108  0.00  0.00     0.143 C 
ATOM      7  N4  <0> d          -4.401  -4.682  -0.163  0.00  0.00    -0.378 N 
ATOM      8  C8  <0> d          -4.117  -3.248  -0.313  0.00  0.00     0.143 C 
ATOM      9  C9  <0> d          -3.059  -3.068  -1.403  0.00  0.00     0.147 C 
ATOM     10  H10 <0> d          -1.194  -1.572  -1.063  0.00  0.00     0.164 HD
ENDROOT
BRANCH   1  11
ATOM     11  C4  <0> d           0.925  -1.692  -1.050  0.00  0.00     0.163 C 
BRANCH  11  12
ATOM     12  C3  <0> d           0.912  -0.169  -1.202  0.00  0.00     0.244 C 
BRANCH  12  13
ATOM     13  N1  <0> d           2.290   0.339  -1.164  0.00  0.00    -0.068 N 
ATOM     14  C1  <0> d           2.272   1.807  -1.212  0.00  0.00     0.270 C 
ATOM     15  C2  <0> d           2.940  -0.102   0.077  0.00  0.00     0.270 C 
ATOM     16  H27 <0> d           2.802  -0.017  -1.957  0.00  0.00     0.279 HD
ENDBRANCH  12  13
BRANCH  12  17
ATOM     17  C16 <0> d           0.278   0.198  -2.519  0.00  0.00     0.015 A 
ATOM     18  S1  <0> d           0.995   0.190  -4.154  0.00  0.00    -0.104 SA
ATOM     19  C19 <0> d          -0.437   0.749  -5.061  0.00  0.00     0.050 A 
ATOM     20  C18 <0> d          -1.350   0.909  -4.072  0.00  0.00     0.008 A 
ATOM     21  C17 <0> d          -0.984   0.626  -2.769  0.00  0.00     0.017 A 
ENDBRANCH  12  17
ENDBRANCH  11  12
ENDBRANCH   1  11
BRANCH   7  22
ATOM     22  C10 <0> d          -5.709  -5.165  -0.276  0.00  0.00     0.030 A 
ATOM     23  C15 <0> d          -5.983  -6.499  -0.006  0.00  0.00     0.032 A 
ATOM     24  C14 <0> d          -7.275  -6.974  -0.113  0.00  0.00     0.039 A 
ATOM     25  C13 <0> d          -8.298  -6.121  -0.501  0.00  0.00     0.065 A 
ATOM     26  C12 <0> d          -8.024  -4.789  -0.775  0.00  0.00     0.039 A 
ATOM     27  C11 <0> d          -6.734  -4.311  -0.663  0.00  0.00     0.032 A 
BRANCH  25  28
ATOM     28  O2  <0> d          -9.569  -6.591  -0.612  0.00  0.00    -0.361 OA
ATOM     29  H23 <0> d          -9.788  -6.931  -1.490  0.00  0.00     0.217 HD
ENDBRANCH  25  28
ENDBRANCH   7  22
TORSDOF 6
