REMARK  5 active torsions:
REMARK  status: ('A' for Active; 'I' for Inactive)
REMARK    1  A    between atoms: C3_3  and  C6_8 
REMARK       I    between atoms: C6_8  and  N3_10 
REMARK    2  A    between atoms: N3_10  and  C7_11 
REMARK    3  A    between atoms: C7_11  and  C8_12 
REMARK    4  A    between atoms: C8_12  and  C9_13 
REMARK    5  A    between atoms: C8_12  and  N4_18 
ROOT
ATOM      1  C7  <0> d           0.299  -0.822  -4.935  0.00  0.00     0.159 C 
ENDROOT
BRANCH   1   2
ATOM      2  N3  <0> d          -0.157  -1.142  -3.580  0.00  0.00    -0.355 N 
ATOM      3  C6  <0> d           0.040  -0.263  -2.578  0.00  0.00     0.255 C 
ATOM      4  O1  <0> d           0.596   0.796  -2.798  0.00  0.00    -0.268 OA
ATOM      5  H10 <0> d          -0.601  -1.986  -3.404  0.00  0.00     0.162 HD
BRANCH   3   6
ATOM      6  C3  <0> d          -0.419  -0.585  -1.214  0.00  0.00     0.074 A 
ATOM      7  C2  <0> d          -0.287   0.213  -0.095  0.00  0.00     0.043 A 
ATOM      8  C1  <0> d           0.354   1.576  -0.042  0.00  0.00     0.071 C 
ATOM      9  N2  <0> d          -0.830  -0.451   0.938  0.00  0.00    -0.278 N 
ATOM     10  N1  <0> d          -1.319  -1.676   0.471  0.00  0.00    -0.184 NA
ATOM     11  C5  <0> d          -0.902   0.028   2.321  0.00  0.00     0.179 C 
ATOM     12  C4  <0> d          -1.077  -1.768  -0.808  0.00  0.00     0.158 A 
ENDBRANCH   3   6
ENDBRANCH   1   2
BRANCH   1  13
ATOM     13  C8  <0> d           0.128  -2.048  -5.833  0.00  0.00     0.247 C 
BRANCH  13  14
ATOM     14  C9  <0> d           0.428  -1.664  -7.284  0.00  0.00     0.046 C 
ATOM     15  C12 <0> d           0.361  -2.904  -8.195  0.00  0.00     0.174 C 
ATOM     16  O2  <0> d          -0.716  -2.689  -9.127  0.00  0.00    -0.391 OA
ATOM     17  C11 <0> d          -0.867  -1.261  -9.275  0.00  0.00     0.168 C 
ATOM     18  C10 <0> d          -0.674  -0.725  -7.834  0.00  0.00     0.035 C 
ENDBRANCH  13  14
BRANCH  13  19
ATOM     19  N4  <0> d           1.057  -3.102  -5.405  0.00  0.00     0.099 N 
ATOM     20  C16 <0> d           2.313  -2.526  -4.903  0.00  0.00     0.299 C 
ATOM     21  C15 <0> d           3.272  -3.657  -4.524  0.00  0.00     0.198 C 
ATOM     22  O3  <0> d           2.643  -4.506  -3.560  0.00  0.00    -0.388 OA
ATOM     23  C14 <0> d           1.417  -5.085  -4.016  0.00  0.00     0.198 C 
ATOM     24  C13 <0> d           0.440  -3.968  -4.389  0.00  0.00     0.299 C 
ENDBRANCH  13  19
ENDBRANCH   1  13
TORSDOF 5
