REMARK  11 active torsions:
REMARK  status: ('A' for Active; 'I' for Inactive)
REMARK    1  A    between atoms: O1_2  and  C2_3 
REMARK    2  A    between atoms: C2_3  and  C3_5 
REMARK    3  A    between atoms: C3_5  and  C4_6 
REMARK    4  A    between atoms: C4_6  and  C5_7 
REMARK    5  A    between atoms: C4_6  and  C11_14 
REMARK    6  A    between atoms: C8_10  and  O3_13 
REMARK    7  A    between atoms: C11_14  and  C12_15 
REMARK    8  A    between atoms: C11_14  and  C15_20 
REMARK    9  A    between atoms: C12_15  and  C13_16 
REMARK   10  A    between atoms: C13_16  and  O5_18 
REMARK   11  A    between atoms: C18_23  and  O6_26 
ROOT
ATOM      1  C4  <0> d           0.162   1.546   2.491  0.00  0.00     0.037 C 
ENDROOT
BRANCH   1   2
ATOM      2  C3  <0> d          -0.505   2.314   3.633  0.00  0.00     0.121 C 
BRANCH   2   3
ATOM      3  C2  <0> d           0.373   2.259   4.857  0.00  0.00     0.259 C 
ATOM      4  O2  <0> d           1.372   1.580   4.853  0.00  0.00    -0.265 OA
BRANCH   3   5
ATOM      5  O1  <0> d           0.045   2.965   5.950  0.00  0.00    -0.326 OA
ATOM      6  C1  <0> d           0.937   2.864   7.092  0.00  0.00     0.213 C 
ENDBRANCH   3   5
ENDBRANCH   2   3
ENDBRANCH   1   2
BRANCH   1   7
ATOM      7  C5  <0> d           1.428   2.254   2.082  0.00  0.00    -0.053 A 
ATOM      8  C10 <0> d           2.643   1.600   2.167  0.00  0.00     0.010 A 
ATOM      9  C9  <0> d           3.805   2.247   1.792  0.00  0.00     0.037 A 
ATOM     10  C8  <0> d           3.751   3.554   1.330  0.00  0.00     0.065 A 
ATOM     11  C7  <0> d           2.531   4.208   1.245  0.00  0.00     0.037 A 
ATOM     12  C6  <0> d           1.371   3.555   1.616  0.00  0.00     0.010 A 
BRANCH  10  13
ATOM     13  O3  <0> d           4.893   4.192   0.960  0.00  0.00    -0.361 OA
ATOM     14  H12 <0> d           5.860   3.673   1.027  0.00  0.00     0.217 HD
ENDBRANCH  10  13
ENDBRANCH   1   7
BRANCH   1  15
ATOM     15  C11 <0> d          -0.792   1.476   1.297  0.00  0.00     0.037 C 
BRANCH  15  16
ATOM     16  C12 <0> d          -0.121   0.714   0.152  0.00  0.00     0.121 C 
BRANCH  16  17
ATOM     17  C13 <0> d          -1.010   0.750  -1.064  0.00  0.00     0.259 C 
ATOM     18  O4  <0> d          -2.071   1.327  -1.020  0.00  0.00    -0.265 OA
BRANCH  17  19
ATOM     19  O5  <0> d          -0.624   0.142  -2.196  0.00  0.00    -0.326 OA
ATOM     20  C14 <0> d          -1.530   0.218  -3.328  0.00  0.00     0.213 C 
ENDBRANCH  17  19
ENDBRANCH  16  17
ENDBRANCH  15  16
BRANCH  15  21
ATOM     21  C15 <0> d          -2.055   0.762   1.704  0.00  0.00    -0.053 A 
ATOM     22  C20 <0> d          -3.261   1.438   1.705  0.00  0.00     0.010 A 
ATOM     23  C19 <0> d          -4.420   0.785   2.078  0.00  0.00     0.037 A 
ATOM     24  C18 <0> d          -4.373  -0.550   2.452  0.00  0.00     0.065 A 
ATOM     25  C17 <0> d          -3.162  -1.226   2.451  0.00  0.00     0.037 A 
ATOM     26  C16 <0> d          -2.006  -0.570   2.072  0.00  0.00     0.010 A 
BRANCH  24  27
ATOM     27  O6  <0> d          -5.512  -1.194   2.819  0.00  0.00    -0.361 OA
ATOM     28  H22 <0> d          -6.472  -0.657   2.819  0.00  0.00     0.217 HD
ENDBRANCH  24  27
ENDBRANCH  15  21
ENDBRANCH   1  15
TORSDOF 11
