REMARK  3 active torsions:
REMARK  status: ('A' for Active; 'I' for Inactive)
REMARK    1  A    between atoms: C5_5  and  C13_17 
REMARK    2  A    between atoms: N1_7  and  C7_8 
REMARK    3  A    between atoms: C13_17  and  N4_18 
ROOT
ATOM      1  C1  <0> d          -0.252   1.523   0.223  0.00  0.00     0.032 C 
ATOM      2  C2  <0> d          -0.123   0.003   0.107  0.00  0.00     0.082 C 
ATOM      3  C3  <0> d          -1.493  -0.646   0.327  0.00  0.00     0.025 C 
ATOM      4  C4  <0> d          -1.334  -2.168   0.348  0.00  0.00     0.010 C 
ATOM      5  C5  <0> d          -0.417  -2.571   1.505  0.00  0.00     0.029 C 
ATOM      6  C6  <0> d           0.965  -1.943   1.298  0.00  0.00     0.131 C 
ATOM      7  N1  <0> d           0.808  -0.492   1.130  0.00  0.00    -0.360 N 
ENDROOT
BRANCH   7   8
ATOM      8  C7  <0> d           1.520   0.391   1.921  0.00  0.00     0.140 A 
ATOM      9  N3  <0> d           0.997   0.854   3.045  0.00  0.00    -0.224 NA
ATOM     10  C12 <0> d           1.648   1.695   3.830  0.00  0.00     0.236 A 
ATOM     11  N2  <0> d           2.856   2.126   3.524  0.00  0.00    -0.234 NA
ATOM     12  C11 <0> d           3.450   1.719   2.420  0.00  0.00     0.112 A 
ATOM     13  C8  <0> d           2.821   0.817   1.534  0.00  0.00     0.046 A 
ATOM     14  S1  <0> d           5.014   2.032   1.646  0.00  0.00    -0.081 SA
ATOM     15  C9  <0> d           3.603   0.465   0.362  0.00  0.00     0.025 A 
ATOM     16  C10 <0> d           4.823   0.999   0.205  0.00  0.00     0.053 A 
ENDBRANCH   7   8
BRANCH   5  17
ATOM     17  C13 <0> d          -0.285  -4.095   1.545  0.00  0.00     0.235 C 
BRANCH  17  18
ATOM     18  N4  <0> d          -1.591  -4.691   1.859  0.00  0.00    -0.079 N 
ATOM     19  H17 <0> d          -1.906  -4.357   2.757  0.00  0.00     0.274 HD
ATOM     20  H18 <0> d          -2.259  -4.430   1.149  0.00  0.00     0.274 HD
ATOM     21  H19 <0> d          -1.504  -5.696   1.886  0.00  0.00     0.274 HD
ENDBRANCH  17  18
ENDBRANCH   5  17
TORSDOF 3
