REMARK  3 active torsions:
REMARK  status: ('A' for Active; 'I' for Inactive)
REMARK    1  A    between atoms: C4_4  and  C7_8 
REMARK    2  A    between atoms: C7_8  and  C8_9 
REMARK    3  A    between atoms: C7_8  and  N3_22 
ROOT
ATOM      1  C8  <0> d          -1.618  -3.865  -1.426  0.00  0.00    -0.004 A 
ATOM      2  C9  <0> d          -2.691  -3.416  -2.170  0.00  0.00     0.043 A 
ATOM      3  C10 <0> d          -2.860  -3.856  -3.474  0.00  0.00     0.064 A 
ATOM      4  C11 <0> d          -1.943  -4.751  -4.030  0.00  0.00     0.064 A 
ATOM      5  C12 <0> d          -0.868  -5.197  -3.276  0.00  0.00     0.051 A 
ATOM      6  C13 <0> d          -0.706  -4.748  -1.978  0.00  0.00     0.021 A 
ATOM      7 Br1  <0> d           0.764  -5.348  -0.952  0.00  0.00    -0.050 Br
ATOM      8  N1  <0> d          -2.368  -5.007  -5.332  0.00  0.00    -0.306 N 
ATOM      9  H2  <0> d          -1.930  -5.594  -5.967  0.00  0.00     0.170 HD
ATOM     10  C14 <0> d          -3.491  -4.299  -5.557  0.00  0.00     0.325 A 
ATOM     11  O2  <0> d          -4.121  -4.297  -6.599  0.00  0.00    -0.247 OA
ATOM     12  N2  <0> d          -3.813  -3.595  -4.456  0.00  0.00    -0.306 N 
ATOM     13  H3  <0> d          -4.579  -3.007  -4.362  0.00  0.00     0.170 HD
ENDROOT
BRANCH   1  14
ATOM     14  C7  <0> d          -1.435  -3.386  -0.009  0.00  0.00     0.255 C 
BRANCH  14  15
ATOM     15  C4  <0> d          -0.531  -2.180   0.002  0.00  0.00     0.009 A 
ATOM     16  C3  <0> d          -0.192  -1.372  -1.107  0.00  0.00     0.044 A 
ATOM     17  C2  <0> d           0.633  -0.412  -0.652  0.00  0.00     0.050 A 
ATOM     18  C1  <0> d           1.253   0.683  -1.482  0.00  0.00     0.076 C 
ATOM     19  O1  <0> d           0.815  -0.598   0.665  0.00  0.00    -0.320 OA
ATOM     20  C5  <0> d           0.107  -1.666   1.068  0.00  0.00     0.058 A 
ATOM     21  C6  <0> d           0.042  -2.200   2.476  0.00  0.00     0.077 C 
ENDBRANCH  14  15
BRANCH  14  22
ATOM     22  N3  <0> d          -2.741  -3.024   0.558  0.00  0.00    -0.067 N 
ATOM     23  C15 <0> d          -3.581  -4.226   0.659  0.00  0.00     0.268 C 
ATOM     24  H13 <0> d          -2.611  -2.627   1.477  0.00  0.00     0.277 HD
ATOM     25  H17 <0> d          -3.192  -2.348  -0.040  0.00  0.00     0.277 HD
ENDBRANCH  14  22
ENDBRANCH   1  14
TORSDOF 3
