REMARK  4 active torsions:
REMARK  status: ('A' for Active; 'I' for Inactive)
REMARK    1  A    between atoms: C5_6  and  S1_7 
REMARK    2  A    between atoms: S1_7  and  N2_10 
REMARK    3  A    between atoms: N2_10  and  C6_11 
REMARK    4  A    between atoms: C6_11  and  C7_12 
ROOT
ATOM      1  S1  <0> d          -1.505  -0.917   0.012  0.00  0.00     0.262 S 
ATOM      2  O1  <0> d          -1.378  -1.899   1.031  0.00  0.00    -0.200 OA
ATOM      3  O2  <0> d          -2.558   0.037   0.001  0.00  0.00    -0.200 OA
ENDROOT
BRANCH   1   4
ATOM      4  C5  <0> d           0.002  -0.004   0.002  0.00  0.00     0.121 A 
ATOM      5  C1  <0> d          -0.017   1.381   0.010  0.00  0.00     0.049 A 
ATOM      6  C2  <0> d           1.195   2.059   0.002  0.00  0.00     0.030 A 
ATOM      7  C3  <0> d           2.372   1.334  -0.013  0.00  0.00     0.137 A 
ATOM      8 Br1  <0> d           1.235   3.949   0.011  0.00  0.00    -0.050 Br
ATOM      9  N1  <0> d           2.352   0.015  -0.020  0.00  0.00    -0.246 NA
ATOM     10  C4  <0> d           1.220  -0.662  -0.013  0.00  0.00     0.149 A 
ATOM     11 Cl1  <0> d           1.257  -2.397  -0.023  0.00  0.00    -0.061 Cl
ENDBRANCH   1   4
BRANCH   1  12
ATOM     12  N2  <0> d          -1.592  -1.735  -1.425  0.00  0.00    -0.308 N 
ATOM     13  H3  <0> d          -2.290  -1.520  -2.064  0.00  0.00     0.172 HD
BRANCH  12  14
ATOM     14  C6  <0> d          -0.614  -2.782  -1.732  0.00  0.00     0.216 C 
BRANCH  14  15
ATOM     15  C7  <0> d          -1.110  -3.607  -2.891  0.00  0.00     0.192 A 
ATOM     16  N6  <0> d          -0.880  -3.384  -4.177  0.00  0.00    -0.110 NA
ATOM     17  N5  <0> d          -1.472  -4.313  -4.846  0.00  0.00    -0.021 NA
ATOM     18  N4  <0> d          -2.071  -5.104  -4.026  0.00  0.00    -0.021 NA
ATOM     19  N3  <0> d          -1.865  -4.694  -2.821  0.00  0.00    -0.110 NA
ENDBRANCH  14  15
ENDBRANCH  12  14
ENDBRANCH   1  12
TORSDOF 4
