REMARK  3 active torsions:
REMARK  status: ('A' for Active; 'I' for Inactive)
REMARK    1  A    between atoms: C4_4  and  C5_7 
REMARK    2  A    between atoms: C5_7  and  N2_8 
REMARK    3  A    between atoms: C7_11  and  C10_16 
ROOT
ATOM      1  N2  <0> d           1.399  -3.755  -1.974  0.00  0.00    -0.261 N 
ATOM      2  C6  <0> d           2.138  -3.198  -2.954  0.00  0.00     0.261 A 
ATOM      3  O2  <0> d           1.791  -2.336  -3.733  0.00  0.00    -0.270 OA
ATOM      4  C7  <0> d           3.493  -3.874  -2.881  0.00  0.00     0.145 A 
ATOM      5  N3  <0> d           3.346  -4.822  -1.763  0.00  0.00    -0.320 N 
ATOM      6  C8  <0> d           2.093  -4.676  -1.296  0.00  0.00     0.326 A 
ATOM      7  O3  <0> d           1.641  -5.311  -0.363  0.00  0.00    -0.247 OA
ATOM      8  C9  <0> d           3.794  -4.619  -4.183  0.00  0.00     0.055 C 
ATOM      9  H7  <0> d           4.023  -5.431  -1.427  0.00  0.00     0.165 HD
ENDROOT
BRANCH   4  10
ATOM     10  C10 <0> d           4.572  -2.866  -2.583  0.00  0.00     0.056 A 
ATOM     11  C15 <0> d           5.130  -2.124  -3.611  0.00  0.00     0.128 A 
ATOM     12  C14 <0> d           6.118  -1.194  -3.335  0.00  0.00     0.043 A 
ATOM     13  F1  <0> d           4.706  -2.304  -4.881  0.00  0.00    -0.205 F 
ATOM     14  C13 <0> d           6.556  -1.014  -2.037  0.00  0.00     0.006 A 
ATOM     15  C12 <0> d           6.004  -1.758  -1.011  0.00  0.00     0.043 A 
ATOM     16  C11 <0> d           5.012  -2.685  -1.283  0.00  0.00     0.128 A 
ATOM     17  F2  <0> d           4.472  -3.411  -0.280  0.00  0.00    -0.205 F 
ENDBRANCH   4  10
BRANCH   1  18
ATOM     18  C5  <0> d           0.010  -3.393  -1.684  0.00  0.00     0.204 C 
BRANCH  18  19
ATOM     19  C4  <0> d          -0.017  -2.266  -0.684  0.00  0.00     0.099 A 
ATOM     20  C3  <0> d          -0.013  -0.951  -0.973  0.00  0.00     0.065 A 
ATOM     21  C2  <0> d          -0.044  -0.236   0.238  0.00  0.00     0.060 A 
ATOM     22  C1  <0> d          -0.051   1.264   0.381  0.00  0.00     0.072 C 
ATOM     23  N1  <0> d          -0.061  -1.098   1.215  0.00  0.00    -0.133 NA
ATOM     24  O1  <0> d          -0.050  -2.397   0.651  0.00  0.00    -0.216 OA
ENDBRANCH  18  19
ENDBRANCH   1  18
TORSDOF 3
