REMARK  3 active torsions:
REMARK  status: ('A' for Active; 'I' for Inactive)
REMARK    1  A    between atoms: C8_8  and  N2_12 
REMARK    2  A    between atoms: N2_12  and  C10_13 
REMARK    3  A    between atoms: C10_13  and  C11_14 
REMARK       I    between atoms: C11_14  and  N3_16 
ROOT
ATOM      1  C1  <0> d          -0.018   1.503   0.010  0.00  0.00     0.049 C 
ATOM      2  C2  <0> d           0.002  -0.004   0.002  0.00  0.00    -0.051 A 
ATOM      3  C3  <0> d           0.006  -0.691  -1.200  0.00  0.00     0.008 A 
ATOM      4  C4  <0> d           0.025  -2.073  -1.202  0.00  0.00     0.009 A 
ATOM      5  C5  <0> d           0.040  -2.773  -0.013  0.00  0.00    -0.035 A 
ATOM      6  C6  <0> d           0.036  -2.089   1.200  0.00  0.00     0.050 A 
ATOM      7  C7  <0> d           0.023  -0.700   1.190  0.00  0.00     0.017 A 
ATOM      8  C8  <0> d           0.030  -0.263   2.636  0.00  0.00     0.348 A 
ATOM      9  C9  <0> d           0.055  -1.562   3.413  0.00  0.00     0.260 A 
ATOM     10  O1  <0> d           0.068  -1.680   4.620  0.00  0.00    -0.270 OA
ATOM     11  N1  <0> d           0.048  -2.561   2.514  0.00  0.00    -0.324 N 
ATOM     12  C14 <0> d           0.061  -4.279  -0.028  0.00  0.00     0.050 C 
ATOM     13  H7  <0> d           0.061  -3.501   2.750  0.00  0.00     0.169 HD
ENDROOT
BRANCH   8  14
ATOM     14  N2  <0> d           1.228   0.537   2.927  0.00  0.00     0.110 N 
ATOM     15  H8  <0> d           2.027  -0.056   3.091  0.00  0.00     0.318 HD
BRANCH  14  16
ATOM     16  C10 <0> d           0.997   1.436   4.065  0.00  0.00     0.373 C 
BRANCH  16  17
ATOM     17  C11 <0> d           2.244   2.238   4.332  0.00  0.00     0.247 C 
ATOM     18  O2  <0> d           3.229   2.077   3.643  0.00  0.00    -0.271 OA
ATOM     19  N3  <0> d           2.266   3.135   5.338  0.00  0.00    -0.359 N 
ATOM     20  C12 <0> d           3.479   3.915   5.598  0.00  0.00     0.152 C 
ATOM     21  C13 <0> d           1.077   3.330   6.172  0.00  0.00     0.152 C 
ENDBRANCH  16  17
ENDBRANCH  14  16
ENDBRANCH   8  14
TORSDOF 3
