REMARK  5 active torsions:
REMARK  status: ('A' for Active; 'I' for Inactive)
REMARK    1  A    between atoms: C3_3  and  C12_15 
REMARK    2  A    between atoms: C4_4  and  O1_8 
REMARK    3  A    between atoms: O1_8  and  C6_9 
REMARK    4  A    between atoms: C12_15  and  N3_16 
REMARK    5  A    between atoms: N3_16  and  C13_17 
ROOT
ATOM      1  C1  <0> d          -0.036   1.498   0.019  0.00  0.00     0.073 C 
ATOM      2  C2  <0> d          -0.007  -0.008   0.010  0.00  0.00     0.063 A 
ATOM      3  C3  <0> d          -0.002  -0.821  -1.127  0.00  0.00     0.046 A 
ATOM      4  C4  <0> d           0.027  -2.116  -0.715  0.00  0.00     0.176 A 
ATOM      5  N1  <0> d           0.039  -2.114   0.637  0.00  0.00    -0.252 N 
ATOM      6  N2  <0> d           0.022  -0.781   1.066  0.00  0.00    -0.175 NA
ATOM      7  C5  <0> d           0.070  -3.297   1.500  0.00  0.00     0.182 C 
ENDROOT
BRANCH   3   8
ATOM      8  C12 <0> d          -0.025  -0.345  -2.557  0.00  0.00     0.278 C 
BRANCH   8   9
ATOM      9  N3  <0> d           1.352  -0.164  -3.035  0.00  0.00    -0.065 N 
ATOM     10  H15 <0> d           1.820   0.521  -2.461  0.00  0.00     0.278 HD
ATOM     11  H25 <0> d           1.846  -1.042  -2.981  0.00  0.00     0.278 HD
BRANCH   9  12
ATOM     12  C13 <0> d           1.330   0.300  -4.429  0.00  0.00     0.205 C 
ATOM     13  C19 <0> d           0.731  -0.793  -5.321  0.00  0.00     0.162 C 
ATOM     14  N5  <0> d           0.925  -0.417  -6.723  0.00  0.00    -0.343 N 
ATOM     15  C16 <0> d           1.801   0.520  -7.159  0.00  0.00     0.083 A 
ATOM     16  C18 <0> d           0.285  -0.916  -7.818  0.00  0.00     0.109 A 
ATOM     17  C15 <0> d           2.711   1.312  -6.250  0.00  0.00     0.079 C 
ATOM     18  N4  <0> d           1.712   0.602  -8.454  0.00  0.00    -0.354 N 
ATOM     19  C14 <0> d           2.758   0.609  -4.887  0.00  0.00     0.042 C 
ATOM     20  C17 <0> d           0.787  -0.269  -8.889  0.00  0.00     0.106 A 
ATOM     21  H24 <0> d           2.231   1.198  -9.016  0.00  0.00     0.166 HD
ENDBRANCH   9  12
ENDBRANCH   8   9
ENDBRANCH   3   8
BRANCH   4  22
ATOM     22  O1  <0> d           0.040  -3.212  -1.515  0.00  0.00    -0.292 OA
BRANCH  22  23
ATOM     23  C6  <0> d          -1.146  -3.812  -1.795  0.00  0.00     0.077 A 
ATOM     24  C11 <0> d          -1.173  -4.996  -2.518  0.00  0.00     0.037 A 
ATOM     25  C10 <0> d          -2.380  -5.607  -2.796  0.00  0.00     0.003 A 
ATOM     26  C9  <0> d          -3.562  -5.034  -2.364  0.00  0.00     0.000 A 
ATOM     27  C8  <0> d          -3.539  -3.851  -1.649  0.00  0.00     0.003 A 
ATOM     28  C7  <0> d          -2.334  -3.239  -1.363  0.00  0.00     0.037 A 
ENDBRANCH  22  23
ENDBRANCH   4  22
TORSDOF 5
