REMARK  6 active torsions:
REMARK  status: ('A' for Active; 'I' for Inactive)
REMARK    1  A    between atoms: C2_2  and  N4_28 
REMARK    2  A    between atoms: C6_6  and  N5_30 
REMARK    3  A    between atoms: C9_9  and  N5_30 
REMARK    4  A    between atoms: C16_17  and  N3_19 
REMARK    5  A    between atoms: C19_22  and  C22_25 
REMARK    6  A    between atoms: C22_25  and  O1_26 
ROOT
ATOM      1  C9  <0> d          -4.341   2.692  -8.320  0.00  0.00     0.222 C 
ATOM      2  C10 <0> d          -5.763   2.180  -8.095  0.00  0.00     0.038 C 
ATOM      3  C11 <0> d          -6.213   2.597  -6.690  0.00  0.00     0.008 C 
ATOM      4  C12 <0> d          -5.417   1.789  -5.666  0.00  0.00     0.060 C 
ATOM      5  C13 <0> d          -3.943   1.880  -5.956  0.00  0.00     0.047 A 
ATOM      6  C14 <0> d          -3.450   2.287  -7.177  0.00  0.00     0.015 A 
ATOM      7  C15 <0> d          -2.073   2.327  -7.360  0.00  0.00     0.131 A 
ATOM      8  N1  <0> d          -1.277   1.985  -6.362  0.00  0.00    -0.230 NA
ATOM      9  C16 <0> d          -1.781   1.598  -5.200  0.00  0.00     0.204 A 
ATOM     10  N2  <0> d          -3.087   1.548  -4.996  0.00  0.00    -0.222 NA
ENDROOT
BRANCH   1  11
ATOM     11  N5  <0> d          -3.809   2.116  -9.570  0.00  0.00    -0.062 N 
ATOM     12  H38 <0> d          -2.783   2.140  -9.544  0.00  0.00     0.278 HD
ATOM     13  H39 <0> d          -4.127   1.143  -9.656  0.00  0.00     0.278 HD
BRANCH  11  14
ATOM     14  C6  <0> d          -4.286   2.888 -10.733  0.00  0.00     0.190 C 
ATOM     15  C5  <0> d          -3.105   3.189 -11.659  0.00  0.00     0.060 C 
ATOM     16  C4  <0> d          -3.610   3.931 -12.898  0.00  0.00     0.237 C 
ATOM     17  N4  <0> d          -4.590   3.077 -13.602  0.00  0.00    -0.067 N 
ATOM     18  C8  <0> d          -5.768   2.840 -12.741  0.00  0.00     0.237 C 
ATOM     19  H37 <0> d          -4.150   2.175 -13.820  0.00  0.00     0.280 HD
ATOM     20  C7  <0> d          -5.327   2.066 -11.497  0.00  0.00     0.060 C 
BRANCH  17  21
ATOM     21  C2  <0> d          -5.008   3.723 -14.863  0.00  0.00     0.180 C 
ATOM     22  C1  <0> d          -6.040   2.833 -15.559  0.00  0.00     0.039 C 
ATOM     23  C3  <0> d          -5.623   5.097 -14.586  0.00  0.00     0.039 C 
ENDBRANCH  17  21
ENDBRANCH  11  14
ENDBRANCH   1  11
BRANCH   9  24
ATOM     24  N3  <0> d          -0.922   1.243  -4.174  0.00  0.00    -0.251 NA
ATOM     25  C21 <0> d          -1.185   2.039  -2.968  0.00  0.00     0.099 C 
ATOM     26  C20 <0> d          -0.321   1.525  -1.815  0.00  0.00     0.021 C 
ATOM     27  C19 <0> d           1.156   1.627  -2.206  0.00  0.00     0.011 C 
ATOM     28  C18 <0> d           1.393   0.828  -3.491  0.00  0.00     0.021 C 
ATOM     29  C17 <0> d           0.479   1.364  -4.595  0.00  0.00     0.099 C 
BRANCH  27  30
ATOM     30  C22 <0> d           2.023   1.056  -1.082  0.00  0.00     0.168 C 
BRANCH  30  31
ATOM     31  O1  <0> d           1.887   1.870   0.084  0.00  0.00    -0.400 OA
ATOM     32  H36 <0> d           2.411   1.566   0.839  0.00  0.00     0.209 HD
ENDBRANCH  30  31
ENDBRANCH  27  30
ENDBRANCH   9  24
TORSDOF 6
