REMARK  7 active torsions:
REMARK  status: ('A' for Active; 'I' for Inactive)
REMARK    1  A    between atoms: C2_2  and  C3_3 
REMARK    2  A    between atoms: C2_2  and  C10_16 
REMARK    3  A    between atoms: C3_3  and  N1_4 
REMARK    4  A    between atoms: N1_4  and  S1_5 
REMARK    5  A    between atoms: S1_5  and  C4_8 
REMARK    6  A    between atoms: C9_13  and  N2_14 
REMARK    7  A    between atoms: C10_16  and  N3_17 
ROOT
ATOM      1  S1  <0> d          -0.151  -0.736   4.761  0.00  0.00     0.261 S 
ATOM      2  O1  <0> d          -1.131  -0.103   5.572  0.00  0.00    -0.200 OA
ATOM      3  O2  <0> d          -0.061  -2.149   4.638  0.00  0.00    -0.200 OA
ENDROOT
BRANCH   1   4
ATOM      4  N1  <0> d          -0.346  -0.138   3.229  0.00  0.00    -0.315 N 
ATOM      5  H7  <0> d          -1.061   0.489   3.041  0.00  0.00     0.172 HD
BRANCH   4   6
ATOM      6  C3  <0> d           0.562  -0.557   2.159  0.00  0.00     0.138 C 
BRANCH   6   7
ATOM      7  C2  <0> d          -0.056  -0.212   0.802  0.00  0.00     0.026 C 
ATOM      8  C1  <0> d          -0.170   1.307   0.665  0.00  0.00     0.013 C 
BRANCH   7   9
ATOM      9  C10 <0> d           0.832  -0.760  -0.317  0.00  0.00     0.240 C 
BRANCH   9  10
ATOM     10  N3  <0> d           0.835  -2.228  -0.266  0.00  0.00    -0.071 N 
ATOM     11  C14 <0> d           1.783  -2.772  -1.262  0.00  0.00     0.235 C 
ATOM     12  C13 <0> d           1.166  -4.072  -1.810  0.00  0.00     0.029 C 
ATOM     13  C12 <0> d          -0.194  -4.209  -1.089  0.00  0.00     0.029 C 
ATOM     14  C11 <0> d          -0.500  -2.756  -0.648  0.00  0.00     0.235 C 
ATOM     15  H23 <0> d           1.083  -2.544   0.660  0.00  0.00     0.279 HD
ENDBRANCH   9  10
ENDBRANCH   7   9
ENDBRANCH   6   7
ENDBRANCH   4   6
ENDBRANCH   1   4
BRANCH   1  16
ATOM     16  C4  <0> d           1.417  -0.180   5.342  0.00  0.00     0.106 A 
ATOM     17  C9  <0> d           1.654   1.178   5.512  0.00  0.00     0.049 A 
ATOM     18  C8  <0> d           2.890   1.611   5.975  0.00  0.00     0.032 A 
ATOM     19  C7  <0> d           3.882   0.693   6.254  0.00  0.00     0.021 A 
ATOM     20  C6  <0> d           3.645  -0.659   6.078  0.00  0.00     0.012 A 
ATOM     21  C5  <0> d           2.414  -1.094   5.622  0.00  0.00     0.046 A 
ATOM     22 Br1  <0> d           5.007  -1.914   6.462  0.00  0.00    -0.051 Br
BRANCH  17  23
ATOM     23  N2  <0> d           0.650   2.105   5.223  0.00  0.00    -0.398 N 
ATOM     24  H11 <0> d          -0.234   1.799   4.965  0.00  0.00     0.156 HD
ATOM     25  H12 <0> d           0.836   3.055   5.281  0.00  0.00     0.156 HD
ENDBRANCH  17  23
ENDBRANCH   1  16
TORSDOF 7
