REMARK  1 active torsions:
REMARK  status: ('A' for Active; 'I' for Inactive)
REMARK    1  A    between atoms: C4_6  and  C5_7 
ROOT
ATOM      1  C1  <0> d          -0.193   1.466   0.827  0.00  0.00     0.164 C 
ATOM      2  N1  <0> d          -0.196   0.003   0.890  0.00  0.00    -0.268 N 
ATOM      3  C2  <0> d          -1.247  -0.681   0.389  0.00  0.00     0.265 A 
ATOM      4  O1  <0> d          -2.191  -0.104  -0.115  0.00  0.00    -0.267 OA
ATOM      5  C3  <0> d          -1.209  -2.162   0.473  0.00  0.00     0.087 A 
ATOM      6  C4  <0> d          -2.218  -2.924  -0.004  0.00  0.00     0.023 C 
ATOM      7  C13 <0> d          -0.015  -2.764   1.105  0.00  0.00     0.220 A 
ATOM      8  O2  <0> d           0.103  -4.102   1.223  0.00  0.00    -0.169 OA
ATOM      9  N3  <0> d           0.932  -1.960   1.548  0.00  0.00    -0.165 NA
ATOM     10  C14 <0> d           0.847  -0.635   1.441  0.00  0.00     0.353 A 
ATOM     11  O3  <0> d           1.767   0.036   1.872  0.00  0.00    -0.244 OA
ENDROOT
BRANCH   6  12
ATOM     12  C5  <0> d          -2.049  -4.418  -0.109  0.00  0.00     0.130 A 
ATOM     13  N2  <0> d          -2.552  -4.894  -1.403  0.00  0.00    -0.378 N 
ATOM     14  C12 <0> d          -3.532  -5.739  -1.184  0.00  0.00     0.038 A 
ATOM     15  H11 <0> d          -2.215  -4.629  -2.273  0.00  0.00     0.160 HD
ATOM     16  C7  <0> d          -3.760  -5.894   0.271  0.00  0.00    -0.011 A 
ATOM     17  C11 <0> d          -4.357  -6.482  -2.072  0.00  0.00     0.030 A 
ATOM     18  C6  <0> d          -2.884  -5.113   0.943  0.00  0.00     0.016 A 
ATOM     19  C8  <0> d          -4.823  -6.804   0.713  0.00  0.00     0.013 A 
ATOM     20  C9  <0> d          -5.551  -7.465  -0.217  0.00  0.00     0.001 A 
ATOM     21  C10 <0> d          -5.316  -7.301  -1.589  0.00  0.00     0.002 A 
ENDBRANCH   6  12
TORSDOF 1
