REMARK  5 active torsions:
REMARK  status: ('A' for Active; 'I' for Inactive)
REMARK    1  A    between atoms: O1_2  and  C2_3 
REMARK    2  A    between atoms: C7_8  and  C11_15 
REMARK    3  A    between atoms: C11_15  and  C12_16 
REMARK    4  A    between atoms: C12_16  and  C13_17 
REMARK       I    between atoms: C13_17  and  N2_19 
REMARK    5  A    between atoms: N2_19  and  C14_20 
ROOT
ATOM      1  C2  <0> d          -1.979   1.142   1.315  0.00  0.00     0.070 A 
ATOM      2  C3  <0> d          -2.598   0.345   0.353  0.00  0.00     0.038 A 
ATOM      3  C4  <0> d          -3.894  -0.050   0.511  0.00  0.00     0.016 A 
ATOM      4  C5  <0> d          -4.613   0.358   1.641  0.00  0.00    -0.009 A 
ATOM      5  C6  <0> d          -6.006  -0.043   1.835  0.00  0.00     0.026 A 
ATOM      6  C7  <0> d          -6.654   0.382   2.950  0.00  0.00     0.011 A 
ATOM      7  C8  <0> d          -5.989   1.192   3.893  0.00  0.00     0.252 A 
ATOM      8  O2  <0> d          -6.590   1.561   4.887  0.00  0.00    -0.268 OA
ATOM      9  N1  <0> d          -4.710   1.567   3.723  0.00  0.00    -0.322 N 
ATOM     10  H1  <0> d          -4.218   2.201   4.476  0.00  0.00     0.169 HD
ATOM     11  C9  <0> d          -3.995   1.169   2.613  0.00  0.00     0.048 A 
ATOM     12  C10 <0> d          -2.672   1.556   2.439  0.00  0.00     0.067 A 
ENDROOT
BRANCH   6  13
ATOM     13  C11 <0> d          -8.090  -0.014   3.180  0.00  0.00     0.053 C 
BRANCH  13  14
ATOM     14  C12 <0> d          -8.139  -1.259   4.068  0.00  0.00     0.108 C 
BRANCH  14  15
ATOM     15  C13 <0> d          -9.575  -1.655   4.298  0.00  0.00     0.222 C 
ATOM     16  O3  <0> d         -10.471  -1.006   3.801  0.00  0.00    -0.273 OA
ATOM     17  N2  <0> d          -9.864  -2.731   5.056  0.00  0.00    -0.327 N 
ATOM     18  H13 <0> d          -9.053  -3.364   5.445  0.00  0.00     0.169 HD
BRANCH  17  19
ATOM     19  C14 <0> d         -11.196  -3.043   5.350  0.00  0.00     0.035 A 
ATOM     20  C19 <0> d         -12.189  -2.809   4.408  0.00  0.00     0.048 A 
ATOM     21  C18 <0> d         -13.504  -3.118   4.701  0.00  0.00     0.013 A 
ATOM     22  C17 <0> d         -13.831  -3.660   5.932  0.00  0.00     0.019 A 
ATOM     23 Br1  <0> d         -14.858  -2.801   3.419  0.00  0.00    -0.051 Br
ATOM     24  C16 <0> d         -12.843  -3.894   6.871  0.00  0.00     0.004 A 
ATOM     25  C15 <0> d         -11.527  -3.591   6.582  0.00  0.00     0.029 A 
ENDBRANCH  17  19
ENDBRANCH  14  15
ENDBRANCH  13  14
ENDBRANCH   6  13
BRANCH   1  26
ATOM     26  O1  <0> d          -0.686   1.521   1.145  0.00  0.00    -0.356 OA
ATOM     27  C1  <0> d          -0.026   1.061  -0.036  0.00  0.00     0.210 C 
ENDBRANCH   1  26
TORSDOF 5
