REMARK  4 active torsions:
REMARK  status: ('A' for Active; 'I' for Inactive)
REMARK    1  A    between atoms: C5_5  and  C14_16 
REMARK    2  A    between atoms: C6_6  and  N2_8 
REMARK    3  A    between atoms: C14_16  and  N4_19 
REMARK    4  A    between atoms: N3_17  and  O1_18 
ROOT
ATOM      1  C1  <0> d           2.785  -0.857  -0.913  0.00  0.00     0.070 C 
ATOM      2  C2  <0> d           1.453  -1.350  -0.410  0.00  0.00     0.033 A 
ATOM      3  C3  <0> d           0.346  -1.276  -1.236  0.00  0.00     0.028 A 
ATOM      4  C4  <0> d          -0.879  -1.729  -0.775  0.00  0.00     0.021 A 
ATOM      5  C5  <0> d          -0.951  -2.247   0.520  0.00  0.00     0.057 A 
ATOM      6  C6  <0> d           0.216  -2.288   1.299  0.00  0.00     0.140 A 
ATOM      7  N1  <0> d           1.364  -1.848   0.808  0.00  0.00    -0.235 NA
ENDROOT
BRANCH   6   8
ATOM      8  N2  <0> d           0.168  -2.798   2.586  0.00  0.00    -0.361 N 
ATOM      9  C11 <0> d          -0.002  -1.904   3.740  0.00  0.00     0.082 C 
ATOM     10  C10 <0> d           1.117  -2.168   4.744  0.00  0.00     0.029 C 
ATOM     11  C12 <0> d          -1.354  -2.174   4.402  0.00  0.00     0.032 C 
ATOM     12  C9  <0> d           1.140  -3.657   5.100  0.00  0.00    -0.015 C 
ATOM     13  C8  <0> d           1.415  -4.480   3.840  0.00  0.00     0.024 C 
ATOM     14  C13 <0> d           2.241  -3.918   6.130  0.00  0.00     0.010 C 
ATOM     15  C7  <0> d           0.292  -4.242   2.825  0.00  0.00     0.125 C 
ENDBRANCH   6   8
BRANCH   5  16
ATOM     16  C14 <0> d          -2.234  -2.743   1.062  0.00  0.00     0.162 C 
ATOM     17  N3  <0> d          -2.271  -3.308   2.234  0.00  0.00    -0.117 NA
BRANCH  17  18
ATOM     18  O1  <0> d          -3.510  -3.712   2.787  0.00  0.00    -0.264 OA
ATOM     19  H20 <0> d          -3.437  -4.122   3.659  0.00  0.00     0.247 HD
ENDBRANCH  17  18
BRANCH  16  20
ATOM     20  N4  <0> d          -3.397  -2.606   0.323  0.00  0.00    -0.381 N 
ATOM     21  H21 <0> d          -3.369  -2.184  -0.551  0.00  0.00     0.157 HD
ATOM     22  H22 <0> d          -4.239  -2.931   0.678  0.00  0.00     0.157 HD
ENDBRANCH  16  20
ENDBRANCH   5  16
TORSDOF 4
