REMARK  3 active torsions:
REMARK  status: ('A' for Active; 'I' for Inactive)
REMARK    1  A    between atoms: C3_3  and  C9_14 
REMARK    2  A    between atoms: C4_4  and  S1_8 
REMARK    3  A    between atoms: S1_8  and  N1_11 
REMARK       I    between atoms: C9_14  and  N2_16 
ROOT
ATOM      1  C1  <0> d          -1.199   3.467   2.554  0.00  0.00     0.078 C 
ATOM      2  C2  <0> d          -1.213   3.916   1.116  0.00  0.00     0.067 A 
ATOM      3  C3  <0> d          -1.207   3.097   0.025  0.00  0.00     0.086 A 
ATOM      4  C4  <0> d          -1.219   3.993  -1.142  0.00  0.00     0.127 A 
ATOM      5  C5  <0> d          -1.240   5.240  -0.649  0.00  0.00     0.073 A 
ATOM      6  O1  <0> d          -1.232   5.184   0.692  0.00  0.00    -0.318 OA
ATOM      7  C6  <0> d          -1.261   6.504  -1.470  0.00  0.00     0.078 C 
ENDROOT
BRANCH   4   8
ATOM      8  S1  <0> d          -1.212   3.522  -2.840  0.00  0.00     0.263 S 
ATOM      9  O2  <0> d          -0.676   4.622  -3.563  0.00  0.00    -0.200 OA
ATOM     10  O3  <0> d          -0.643   2.222  -2.899  0.00  0.00    -0.200 OA
BRANCH   8  11
ATOM     11  N1  <0> d          -2.792   3.370  -3.312  0.00  0.00    -0.315 N 
ATOM     12  C7  <0> d          -3.507   4.526  -3.860  0.00  0.00     0.162 C 
ATOM     13  C8  <0> d          -3.474   2.080  -3.183  0.00  0.00     0.162 C 
ENDBRANCH   8  11
ENDBRANCH   4   8
BRANCH   3  14
ATOM     14  C9  <0> d          -1.187   1.624   0.017  0.00  0.00     0.253 C 
ATOM     15  O4  <0> d          -2.232   1.002   0.018  0.00  0.00    -0.268 OA
ATOM     16  N2  <0> d          -0.011   0.966   0.007  0.00  0.00    -0.366 N 
ATOM     17  H13 <0> d           0.004  -0.134   0.001  0.00  0.00     0.159 HD
ATOM     18  H14 <0> d           0.934   1.529   0.006  0.00  0.00     0.159 HD
ENDBRANCH   3  14
TORSDOF 3
