REMARK  8 active torsions:
REMARK  status: ('A' for Active; 'I' for Inactive)
REMARK    1  A    between atoms: C4_6  and  C5_7 
REMARK    2  A    between atoms: C5_7  and  C6_8 
REMARK    3  A    between atoms: C5_7  and  N3_15 
REMARK       I    between atoms: N3_15  and  C12_16 
REMARK       I    between atoms: C12_16  and  N4_18 
REMARK    4  A    between atoms: N4_18  and  C13_19 
REMARK    5  A    between atoms: C13_19  and  C14_20 
REMARK    6  A    between atoms: C14_20  and  C15_21 
REMARK    7  A    between atoms: C15_21  and  N5_22 
REMARK    8  A    between atoms: N5_22  and  C16_23 
ROOT
ATOM      1  N3  <0> d           1.024  -1.123   3.273  0.00  0.00    -0.327 N 
ATOM      2  C12 <0> d           2.315  -0.733   3.278  0.00  0.00     0.317 C 
ATOM      3  O1  <0> d           2.653   0.256   2.658  0.00  0.00    -0.247 OA
ATOM      4  N4  <0> d           3.229  -1.441   3.970  0.00  0.00    -0.343 N 
ATOM      5  H11 <0> d           0.754  -1.913   3.768  0.00  0.00     0.165 HD
ATOM      6  H12 <0> d           2.959  -2.230   4.465  0.00  0.00     0.164 HD
ENDROOT
BRANCH   1   7
ATOM      7  C5  <0> d           0.030  -0.354   2.521  0.00  0.00     0.189 C 
BRANCH   7   8
ATOM      8  C4  <0> d           0.023  -0.811   1.085  0.00  0.00     0.133 A 
ATOM      9  N1  <0> d           0.002  -0.004   0.002  0.00  0.00    -0.346 N 
ATOM     10  C1  <0> d          -0.018   1.461   0.010  0.00  0.00     0.157 C 
ATOM     11  C2  <0> d           0.009  -0.810  -1.104  0.00  0.00     0.111 A 
ATOM     12  C3  <0> d           0.029  -2.081  -0.660  0.00  0.00     0.136 A 
ATOM     13  N2  <0> d           0.034  -2.052   0.681  0.00  0.00    -0.243 NA
ENDBRANCH   7   8
BRANCH   7  14
ATOM     14  C6  <0> d          -1.334  -0.572   3.123  0.00  0.00    -0.028 A 
ATOM     15  C11 <0> d          -2.216   0.487   3.238  0.00  0.00     0.012 A 
ATOM     16  C10 <0> d          -3.468   0.288   3.786  0.00  0.00     0.043 A 
ATOM     17  C9  <0> d          -3.837  -0.971   4.230  0.00  0.00     0.116 A 
ATOM     18  C8  <0> d          -2.951  -2.030   4.119  0.00  0.00     0.043 A 
ATOM     19  F1  <0> d          -5.060  -1.166   4.770  0.00  0.00    -0.206 F 
ATOM     20  C7  <0> d          -1.701  -1.829   3.566  0.00  0.00     0.012 A 
ENDBRANCH   7  14
ENDBRANCH   1   7
BRANCH   4  21
ATOM     21  C13 <0> d           4.632  -1.017   3.976  0.00  0.00     0.126 C 
BRANCH  21  22
ATOM     22  C14 <0> d           5.454  -1.984   4.830  0.00  0.00     0.047 C 
BRANCH  22  23
ATOM     23  C15 <0> d           6.918  -1.542   4.836  0.00  0.00     0.234 C 
BRANCH  23  24
ATOM     24  N5  <0> d           7.707  -2.471   5.656  0.00  0.00    -0.071 N 
ATOM     25  H19 <0> d           7.352  -2.471   6.601  0.00  0.00     0.277 HD
ATOM     26  H31 <0> d           7.638  -3.401   5.271  0.00  0.00     0.277 HD
BRANCH  24  27
ATOM     27  C16 <0> d           9.113  -2.046   5.662  0.00  0.00     0.185 C 
ATOM     28  C21 <0> d           9.912  -2.938   6.614  0.00  0.00     0.033 C 
ATOM     29  C20 <0> d          11.376  -2.496   6.620  0.00  0.00     0.002 C 
ATOM     30  C19 <0> d          11.951  -2.615   5.207  0.00  0.00     0.000 C 
ATOM     31  C18 <0> d          11.152  -1.723   4.255  0.00  0.00     0.002 C 
ATOM     32  C17 <0> d           9.688  -2.165   4.249  0.00  0.00     0.033 C 
ENDBRANCH  24  27
ENDBRANCH  23  24
ENDBRANCH  22  23
ENDBRANCH  21  22
ENDBRANCH   4  21
TORSDOF 8
