REMARK  4 active torsions:
REMARK  status: ('A' for Active; 'I' for Inactive)
REMARK    1  A    between atoms: C5_5  and  C6_7 
REMARK    2  A    between atoms: C12_14  and  O4_24 
REMARK    3  A    between atoms: C13_15  and  C15_18 
REMARK    4  A    between atoms: C15_18  and  N1_19 
ROOT
ATOM      1  C6  <0> d           1.631  -3.173  -0.025  0.00  0.00     0.078 C 
ATOM      2  C7  <0> d           2.980  -2.968  -0.030  0.00  0.00     0.129 A 
ATOM      3  C8  <0> d           3.974  -3.984  -0.047  0.00  0.00     0.219 A 
ATOM      4  O2  <0> d           3.799  -5.191  -0.059  0.00  0.00    -0.284 OA
ATOM      5  C9  <0> d           5.260  -3.265  -0.047  0.00  0.00     0.057 A 
ATOM      6  C10 <0> d           6.592  -3.679  -0.059  0.00  0.00    -0.042 A 
ATOM      7  C11 <0> d           7.593  -2.749  -0.054  0.00  0.00     0.045 A 
ATOM      8  C12 <0> d           7.288  -1.391  -0.037  0.00  0.00     0.076 A 
ATOM      9  C13 <0> d           5.969  -0.965  -0.025  0.00  0.00     0.036 A 
ATOM     10  C14 <0> d           4.941  -1.897  -0.030  0.00  0.00     0.101 A 
ATOM     11  O3  <0> d           3.597  -1.764  -0.027  0.00  0.00    -0.305 OA
ATOM     12  C20 <0> d           6.926  -5.148  -0.076  0.00  0.00     0.049 C 
ENDROOT
BRANCH   1  13
ATOM     13  C5  <0> d           0.749  -2.069  -0.014  0.00  0.00     0.078 A 
ATOM     14  C4  <0> d          -0.631  -2.129  -0.007  0.00  0.00     0.040 A 
ATOM     15  C3  <0> d          -1.088  -0.803   0.003  0.00  0.00     0.035 A 
ATOM     16  C2  <0> d           0.002  -0.004   0.002  0.00  0.00     0.050 A 
ATOM     17  C1  <0> d          -0.018   1.503   0.010  0.00  0.00     0.076 C 
ATOM     18  O1  <0> d           1.104  -0.767  -0.013  0.00  0.00    -0.316 OA
ENDBRANCH   1  13
BRANCH   9  19
ATOM     19  C15 <0> d           5.652   0.508  -0.006  0.00  0.00     0.279 C 
BRANCH  19  20
ATOM     20  N1  <0> d           5.542   1.003  -1.385  0.00  0.00    -0.067 N 
ATOM     21  C19 <0> d           5.350   2.469  -1.387  0.00  0.00     0.235 C 
ATOM     22  C18 <0> d           4.403   2.800  -2.555  0.00  0.00     0.029 C 
ATOM     23  C17 <0> d           4.051   1.434  -3.188  0.00  0.00     0.029 C 
ATOM     24  C16 <0> d           4.334   0.436  -2.037  0.00  0.00     0.235 C 
ATOM     25  H22 <0> d           6.368   0.759  -1.910  0.00  0.00     0.280 HD
ENDBRANCH  19  20
ENDBRANCH   9  19
BRANCH   8  26
ATOM     26  O4  <0> d           8.291  -0.476  -0.033  0.00  0.00    -0.360 OA
ATOM     27  H18 <0> d           8.576  -0.201  -0.915  0.00  0.00     0.217 HD
ENDBRANCH   8  26
TORSDOF 4
