REMARK  5 active torsions:
REMARK  status: ('A' for Active; 'I' for Inactive)
REMARK    1  A    between atoms: C2_2  and  C4_4 
REMARK    2  A    between atoms: C4_4  and  C5_5 
REMARK    3  A    between atoms: C4_4  and  S1_11 
REMARK       I    between atoms: C5_5  and  N1_7 
REMARK       I    between atoms: N1_7  and  C6_8 
REMARK       I    between atoms: C6_8  and  N2_10 
REMARK    4  A    between atoms: S1_11  and  C7_12 
REMARK    5  A    between atoms: C11_16  and  C12_18 
ROOT
ATOM      1  C7  <0> d           2.234   2.233   0.039  0.00  0.00     0.115 A 
ATOM      2  C8  <0> d           2.596   3.563   0.174  0.00  0.00     0.070 A 
ATOM      3  C9  <0> d           3.950   3.961   0.108  0.00  0.00     0.079 A 
ATOM      4  C10 <0> d           4.183   5.335   0.266  0.00  0.00     0.053 A 
ATOM      5  C11 <0> d           3.137   6.183   0.456  0.00  0.00     0.018 A 
ATOM      6  S2  <0> d           1.730   5.085   0.444  0.00  0.00    -0.084 SA
ATOM      7  N3  <0> d           4.844   2.962  -0.104  0.00  0.00    -0.241 NA
ATOM      8  C18 <0> d           4.460   1.718  -0.232  0.00  0.00     0.235 A 
ATOM      9  N4  <0> d           3.198   1.333  -0.167  0.00  0.00    -0.234 NA
ENDROOT
BRANCH   1  10
ATOM     10  S1  <0> d           0.544   1.743   0.128  0.00  0.00    -0.094 SA
BRANCH  10  11
ATOM     11  C4  <0> d           0.705  -0.015  -0.271  0.00  0.00     0.149 C 
BRANCH  11  12
ATOM     12  C2  <0> d           1.032  -0.173  -1.758  0.00  0.00     0.001 C 
ATOM     13  C1  <0> d           1.298  -1.647  -2.068  0.00  0.00     0.011 C 
ATOM     14  C3  <0> d          -0.151   0.319  -2.594  0.00  0.00     0.011 C 
ENDBRANCH  11  12
BRANCH  11  15
ATOM     15  C5  <0> d          -0.591  -0.721   0.036  0.00  0.00     0.240 C 
ATOM     16  O1  <0> d          -1.633  -0.101   0.039  0.00  0.00    -0.272 OA
ATOM     17  N1  <0> d          -0.591  -2.041   0.308  0.00  0.00    -0.278 N 
ATOM     18  C6  <0> d          -1.749  -2.672   0.583  0.00  0.00     0.320 C 
ATOM     19  H9  <0> d           0.243  -2.537   0.306  0.00  0.00     0.173 HD
ATOM     20  O2  <0> d          -2.794  -2.051   0.586  0.00  0.00    -0.247 OA
ATOM     21  N2  <0> d          -1.750  -3.992   0.856  0.00  0.00    -0.352 N 
ATOM     22  H10 <0> d          -0.916  -4.488   0.854  0.00  0.00     0.160 HD
ATOM     23  H11 <0> d          -2.584  -4.446   1.053  0.00  0.00     0.160 HD
ENDBRANCH  11  15
ENDBRANCH  10  11
ENDBRANCH   1  10
BRANCH   5  24
ATOM     24  C12 <0> d           3.162   7.650   0.639  0.00  0.00    -0.019 A 
ATOM     25  C17 <0> d           1.971   8.351   0.834  0.00  0.00     0.014 A 
ATOM     26  C16 <0> d           2.000   9.720   1.005  0.00  0.00     0.020 A 
ATOM     27  C15 <0> d           3.207  10.398   0.983  0.00  0.00     0.011 A 
ATOM     28  C14 <0> d           4.391   9.708   0.790  0.00  0.00     0.020 A 
ATOM     29 Br1  <0> d           3.237  12.274   1.219  0.00  0.00    -0.051 Br
ATOM     30  C13 <0> d           4.375   8.338   0.623  0.00  0.00     0.014 A 
ENDBRANCH   5  24
TORSDOF 5
