REMARK  5 active torsions:
REMARK  status: ('A' for Active; 'I' for Inactive)
REMARK    1  A    between atoms: C2_2  and  N1_3 
REMARK    2  A    between atoms: N1_3  and  C3_4 
REMARK    3  A    between atoms: N1_3  and  S1_10 
REMARK    4  A    between atoms: C3_4  and  C4_5 
REMARK    5  A    between atoms: S1_10  and  C8_13 
ROOT
ATOM      1  S1  <0> d          -2.425  -0.930   1.909  0.00  0.00     0.264 S 
ATOM      2  O2  <0> d          -3.799  -1.128   1.607  0.00  0.00    -0.200 OA
ATOM      3  O3  <0> d          -1.706  -1.788   2.785  0.00  0.00    -0.200 OA
ENDROOT
BRANCH   1   4
ATOM      4  N1  <0> d          -1.615  -0.943   0.465  0.00  0.00    -0.305 N 
BRANCH   4   5
ATOM      5  C2  <0> d          -0.157  -1.084   0.443  0.00  0.00     0.131 C 
ATOM      6  C1  <0> d           0.487   0.300   0.336  0.00  0.00     0.027 C 
ENDBRANCH   4   5
BRANCH   4   7
ATOM      7  C3  <0> d          -2.358  -0.814  -0.792  0.00  0.00     0.167 C 
BRANCH   7   8
ATOM      8  C4  <0> d          -2.647  -2.205  -1.358  0.00  0.00     0.140 C 
ATOM      9  O1  <0> d          -1.419  -2.882  -1.670  0.00  0.00    -0.384 OA
ATOM     10  C7  <0> d          -1.581  -3.664  -2.861  0.00  0.00     0.168 C 
ATOM     11  C6  <0> d          -3.020  -3.440  -3.374  0.00  0.00     0.029 C 
ATOM     12  C5  <0> d          -3.402  -2.091  -2.707  0.00  0.00     0.036 C 
ENDBRANCH   7   8
ENDBRANCH   4   7
ENDBRANCH   1   4
BRANCH   1  13
ATOM     13  C8  <0> d          -2.283   0.697   2.571  0.00  0.00     0.122 A 
ATOM     14  C10 <0> d          -2.829   1.819   2.048  0.00  0.00     0.048 A 
ATOM     15  N3  <0> d          -2.493   2.852   2.849  0.00  0.00    -0.281 N 
ATOM     16  C11 <0> d          -3.666   1.900   0.797  0.00  0.00     0.071 C 
ATOM     17  N2  <0> d          -1.707   2.349   3.894  0.00  0.00    -0.185 NA
ATOM     18  H2  <0> d          -2.747   3.779   2.721  0.00  0.00     0.189 HD
ATOM     19  C9  <0> d          -1.582   1.057   3.726  0.00  0.00     0.165 A 
ENDBRANCH   1  13
TORSDOF 5
