REMARK  6 active torsions:
REMARK  status: ('A' for Active; 'I' for Inactive)
REMARK    1  A    between atoms: C2_2  and  C3_4 
REMARK    2  A    between atoms: C5_6  and  C7_9 
REMARK       I    between atoms: C7_9  and  N2_11 
REMARK    3  A    between atoms: N2_11  and  C8_12 
REMARK    4  A    between atoms: C11_15  and  C14_18 
REMARK    5  A    between atoms: C14_18  and  C15_19 
REMARK    6  A    between atoms: C15_19  and  N3_20 
ROOT
ATOM      1  C8  <0> d          -0.078  -5.209  -5.287  0.00  0.00     0.035 A 
ATOM      2  C9  <0> d          -0.164  -6.279  -4.405  0.00  0.00     0.030 A 
ATOM      3  C10 <0> d          -0.245  -7.569  -4.893  0.00  0.00     0.009 A 
ATOM      4  C11 <0> d          -0.239  -7.795  -6.258  0.00  0.00    -0.056 A 
ATOM      5  C12 <0> d          -0.154  -6.732  -7.138  0.00  0.00     0.009 A 
ATOM      6  C13 <0> d          -0.079  -5.439  -6.657  0.00  0.00     0.030 A 
ENDROOT
BRANCH   1   7
ATOM      7  N2  <0> d           0.004  -3.903  -4.796  0.00  0.00    -0.322 N 
ATOM      8  C7  <0> d          -0.595  -2.894  -5.461  0.00  0.00     0.274 C 
ATOM      9  O2  <0> d          -1.133  -3.106  -6.528  0.00  0.00    -0.266 OA
ATOM     10  H7  <0> d           0.492  -3.722  -3.977  0.00  0.00     0.169 HD
BRANCH   8  11
ATOM     11  C5  <0> d          -0.595  -1.523  -4.887  0.00  0.00     0.120 A 
ATOM     12  C4  <0> d          -1.216  -0.354  -5.525  0.00  0.00     0.049 A 
ATOM     13  C3  <0> d          -1.032   0.729  -4.736  0.00  0.00     0.009 A 
ATOM     14  C6  <0> d          -0.251   0.238  -3.537  0.00  0.00     0.192 A 
ATOM     15  N1  <0> d          -0.048  -1.199  -3.757  0.00  0.00    -0.280 NA
BRANCH  13  16
ATOM     16  C2  <0> d          -1.488   2.094  -4.992  0.00  0.00     0.153 C 
ATOM     17  C1  <0> d          -1.187   3.187  -4.001  0.00  0.00     0.096 C 
ATOM     18  O1  <0> d          -2.110   2.346  -6.003  0.00  0.00    -0.293 OA
ENDBRANCH  13  16
ENDBRANCH   8  11
ENDBRANCH   1   7
BRANCH   4  19
ATOM     19  C14 <0> d          -0.327  -9.204  -6.787  0.00  0.00     0.068 C 
BRANCH  19  20
ATOM     20  C15 <0> d          -1.796  -9.583  -6.987  0.00  0.00     0.277 C 
BRANCH  20  21
ATOM     21  N3  <0> d          -1.881 -10.956  -7.503  0.00  0.00     0.092 N 
ATOM     22  C19 <0> d          -3.268 -11.440  -7.484  0.00  0.00     0.298 C 
ATOM     23  C18 <0> d          -3.303 -12.891  -7.972  0.00  0.00     0.198 C 
ATOM     24  O3  <0> d          -2.721 -12.964  -9.276  0.00  0.00    -0.388 OA
ATOM     25  C17 <0> d          -1.369 -12.501  -9.330  0.00  0.00     0.198 C 
ATOM     26  C16 <0> d          -1.315 -11.046  -8.856  0.00  0.00     0.298 C 
ENDBRANCH  20  21
ENDBRANCH  19  20
ENDBRANCH   4  19
TORSDOF 6
