REMARK  4 active torsions:
REMARK  status: ('A' for Active; 'I' for Inactive)
REMARK    1  A    between atoms: C6_8  and  N2_13 
REMARK       I    between atoms: N2_13  and  C10_14 
REMARK    2  A    between atoms: C10_14  and  C11_16 
REMARK    3  A    between atoms: N3_20  and  C15_22 
REMARK    4  A    between atoms: C19_26  and  S1_28 
ROOT
ATOM      1  N2  <0> d          -0.074   1.405  -0.050  0.00  0.00    -0.327 N 
ATOM      2  C10 <0> d          -1.131   2.224   0.124  0.00  0.00     0.228 C 
ATOM      3  O3  <0> d          -2.230   1.759   0.337  0.00  0.00    -0.273 OA
ATOM      4  H10 <0> d           0.936   1.826  -0.157  0.00  0.00     0.169 HD
ENDROOT
BRANCH   2   5
ATOM      5  C11 <0> d          -0.945   3.718   0.052  0.00  0.00     0.105 C 
ATOM      6  C14 <0> d          -2.285   4.453   0.280  0.00  0.00     0.146 C 
ATOM      7  N3  <0> d          -1.945   5.660   1.042  0.00  0.00    -0.317 N 
ATOM      8  C13 <0> d          -0.725   5.559   1.598  0.00  0.00     0.225 C 
ATOM      9  C12 <0> d          -0.100   4.229   1.242  0.00  0.00     0.119 C 
ATOM     10  O4  <0> d          -0.202   6.411   2.285  0.00  0.00    -0.273 OA
BRANCH   7  11
ATOM     11  C15 <0> d          -2.782   6.774   1.173  0.00  0.00     0.038 A 
ATOM     12  C20 <0> d          -2.325   7.915   1.814  0.00  0.00     0.048 A 
ATOM     13  C19 <0> d          -3.159   9.018   1.941  0.00  0.00     0.002 A 
ATOM     14  C18 <0> d          -4.449   8.974   1.426  0.00  0.00     0.018 A 
ATOM     15  C17 <0> d          -4.901   7.835   0.789  0.00  0.00     0.004 A 
ATOM     16  C16 <0> d          -4.072   6.739   0.655  0.00  0.00     0.030 A 
BRANCH  13  17
ATOM     17  S1  <0> d          -2.583  10.470   2.756  0.00  0.00    -0.134 SA
ATOM     18  C21 <0> d          -3.993  11.608   2.674  0.00  0.00     0.095 C 
ENDBRANCH  13  17
ENDBRANCH   7  11
ENDBRANCH   2   5
BRANCH   1  19
ATOM     19  C6  <0> d          -0.264   0.018  -0.094  0.00  0.00     0.037 A 
ATOM     20  C5  <0> d          -1.429  -0.506  -0.637  0.00  0.00     0.062 A 
ATOM     21  C4  <0> d          -1.612  -1.878  -0.679  0.00  0.00     0.070 A 
ATOM     22  N1  <0> d          -2.781  -2.428  -1.224  0.00  0.00    -0.323 N 
ATOM     23  C9  <0> d          -0.629  -2.729  -0.176  0.00  0.00     0.096 A 
ATOM     24  C3  <0> d          -3.076  -3.722  -0.972  0.00  0.00     0.251 C 
ATOM     25  H6  <0> d          -3.454  -1.822  -1.849  0.00  0.00     0.169 HD
ATOM     26  C2  <0> d          -2.169  -4.536  -0.084  0.00  0.00     0.217 C 
ATOM     27  O1  <0> d          -4.066  -4.227  -1.458  0.00  0.00    -0.270 OA
ATOM     28  C1  <0> d          -2.248  -6.009  -0.489  0.00  0.00     0.050 C 
ATOM     29  O2  <0> d          -0.822  -4.075  -0.222  0.00  0.00    -0.335 OA
ATOM     30  C8  <0> d           0.532  -2.202   0.363  0.00  0.00     0.041 A 
ATOM     31  C7  <0> d           0.717  -0.832   0.400  0.00  0.00     0.032 A 
ENDBRANCH   1  19
TORSDOF 4
