REMARK  10 active torsions:
REMARK  status: ('A' for Active; 'I' for Inactive)
REMARK    1  A    between atoms: C7_7  and  O1_8 
REMARK    2  A    between atoms: O1_8  and  C8_9 
REMARK    3  A    between atoms: C8_9  and  C9_10 
REMARK    4  A    between atoms: C9_10  and  C10_11 
REMARK    5  A    between atoms: C9_10  and  O3_36 
REMARK    6  A    between atoms: C10_11  and  N1_12 
REMARK    7  A    between atoms: N2_16  and  C16_19 
REMARK    8  A    between atoms: C19_22  and  N4_25 
REMARK       I    between atoms: N4_25  and  C21_26 
REMARK    9  A    between atoms: C21_26  and  C22_28 
REMARK   10  A    between atoms: C23_29  and  C24_30 
ROOT
ATOM      1  N1  <0> d          -0.081   0.189   7.205  0.00  0.00    -0.067 N 
ATOM      2  C11 <0> d           0.183  -0.656   8.367  0.00  0.00     0.236 C 
ATOM      3  C12 <0> d           0.903   0.157   9.421  0.00  0.00     0.047 C 
ATOM      4  C13 <0> d          -0.125   0.749  10.402  0.00  0.00     0.126 C 
ATOM      5  N2  <0> d          -1.333   1.213   9.690  0.00  0.00    -0.364 N 
ATOM      6  C14 <0> d          -1.264   1.922   8.428  0.00  0.00     0.152 C 
ATOM      7  C15 <0> d          -1.294   0.911   7.257  0.00  0.00     0.254 C 
ATOM      8  H35 <0> d           0.678   0.847   7.113  0.00  0.00     0.280 HD
ENDROOT
BRANCH   5   9
ATOM      9  C16 <0> d          -2.582   0.961  10.251  0.00  0.00     0.125 A 
ATOM     10  N3  <0> d          -3.675   1.188   9.541  0.00  0.00    -0.241 NA
ATOM     11  C20 <0> d          -4.879   0.958  10.030  0.00  0.00     0.148 A 
ATOM     12  C19 <0> d          -5.040   0.478  11.321  0.00  0.00     0.052 A 
ATOM     13  C18 <0> d          -3.911   0.232  12.101  0.00  0.00     0.035 A 
ATOM     14  C17 <0> d          -2.666   0.479  11.553  0.00  0.00     0.052 A 
BRANCH  12  15
ATOM     15  N4  <0> d          -6.322   0.242  11.835  0.00  0.00    -0.322 N 
ATOM     16  C21 <0> d          -6.536   0.300  13.164  0.00  0.00     0.245 C 
ATOM     17  O2  <0> d          -5.641   0.651  13.910  0.00  0.00    -0.268 OA
ATOM     18  H26 <0> d          -7.055   0.036  11.234  0.00  0.00     0.169 HD
BRANCH  16  19
ATOM     19  C22 <0> d          -7.846  -0.058  13.711  0.00  0.00     0.075 C 
ATOM     20  C23 <0> d          -8.060  -0.000  15.041  0.00  0.00     0.017 C 
BRANCH  20  21
ATOM     21  C24 <0> d          -9.377  -0.360  15.591  0.00  0.00    -0.036 A 
ATOM     22  C29 <0> d          -9.604  -0.301  16.969  0.00  0.00     0.011 A 
ATOM     23  C28 <0> d         -10.842  -0.634  17.476  0.00  0.00     0.001 A 
ATOM     24  C27 <0> d         -11.856  -1.038  16.625  0.00  0.00     0.000 A 
ATOM     25  C26 <0> d         -11.638  -1.105  15.260  0.00  0.00     0.001 A 
ATOM     26  C25 <0> d         -10.407  -0.769  14.737  0.00  0.00     0.011 A 
ENDBRANCH  20  21
ENDBRANCH  16  19
ENDBRANCH  12  15
ENDBRANCH   5   9
BRANCH   1  27
ATOM     27  C10 <0> d          -0.101  -0.663   6.008  0.00  0.00     0.268 C 
BRANCH  27  28
ATOM     28  C9  <0> d          -0.092   0.216   4.756  0.00  0.00     0.168 C 
BRANCH  28  29
ATOM     29  C8  <0> d          -0.115  -0.671   3.510  0.00  0.00     0.209 C 
BRANCH  29  30
ATOM     30  O1  <0> d          -0.224   0.148   2.344  0.00  0.00    -0.348 OA
BRANCH  30  31
ATOM     31  C7  <0> d          -0.257  -0.488   1.143  0.00  0.00     0.074 A 
ATOM     32  C2  <0> d          -0.362   0.246  -0.029  0.00  0.00    -0.029 A 
ATOM     33  C1  <0> d          -0.441   1.750   0.027  0.00  0.00     0.051 C 
ATOM     34  C3  <0> d          -0.390  -0.403  -1.248  0.00  0.00     0.009 A 
ATOM     35  C4  <0> d          -0.319  -1.783  -1.300  0.00  0.00     0.001 A 
ATOM     36  C5  <0> d          -0.219  -2.517  -0.132  0.00  0.00     0.003 A 
ATOM     37  C6  <0> d          -0.191  -1.873   1.089  0.00  0.00     0.037 A 
ENDBRANCH  30  31
ENDBRANCH  29  30
ENDBRANCH  28  29
BRANCH  28  38
ATOM     38  O3  <0> d           1.089   1.021   4.747  0.00  0.00    -0.392 OA
ATOM     39  H34 <0> d           1.911   0.512   4.744  0.00  0.00     0.210 HD
ENDBRANCH  28  38
ENDBRANCH  27  28
ENDBRANCH   1  27
TORSDOF 10
