REMARK  3 active torsions:
REMARK  status: ('A' for Active; 'I' for Inactive)
REMARK    1  A    between atoms: C6_10  and  C7_12 
REMARK    2  A    between atoms: C7_12  and  N5_13 
REMARK    3  A    between atoms: N5_13  and  C9_15 
ROOT
ATOM      1  C7  <0> d           0.016  -1.508  -4.939  0.00  0.00     0.315 C 
ENDROOT
BRANCH   1   2
ATOM      2  C6  <0> d           0.158  -1.908  -3.493  0.00  0.00     0.157 A 
ATOM      3  N3  <0> d           0.019  -3.182  -3.170  0.00  0.00    -0.204 NA
ATOM      4  C5  <0> d           0.134  -3.590  -1.913  0.00  0.00     0.217 A 
ATOM      5  C3  <0> d           0.408  -2.632  -0.921  0.00  0.00     0.086 A 
ATOM      6  O1  <0> d          -0.010  -4.897  -1.592  0.00  0.00    -0.169 OA
ATOM      7  C2  <0> d           0.547  -1.286  -1.314  0.00  0.00     0.164 A 
ATOM      8  C4  <0> d           0.596  -2.676   0.478  0.00  0.00     0.159 A 
ATOM      9  N1  <0> d           0.807  -0.575  -0.180  0.00  0.00    -0.256 N 
ATOM     10  N4  <0> d           0.414  -0.976  -2.602  0.00  0.00    -0.211 NA
ATOM     11  C1  <0> d           1.025   0.871  -0.104  0.00  0.00     0.182 C 
ATOM     12  N2  <0> d           0.834  -1.467   0.900  0.00  0.00    -0.182 NA
ENDBRANCH   1   2
BRANCH   1  13
ATOM     13  N5  <0> d          -1.389  -1.183  -5.221  0.00  0.00    -0.060 N 
ATOM     14  C8  <0> d          -2.208  -2.396  -5.091  0.00  0.00     0.271 C 
ATOM     15  H19 <0> d          -1.711  -0.487  -4.566  0.00  0.00     0.280 HD
BRANCH  13  16
ATOM     16  C9  <0> d          -1.504  -0.659  -6.588  0.00  0.00     0.221 C 
ATOM     17  C13 <0> d          -2.950  -0.352  -6.913  0.00  0.00    -0.021 A 
ATOM     18  C12 <0> d          -3.251  -0.812  -8.183  0.00  0.00    -0.050 A 
ATOM     19  C14 <0> d          -3.925   0.279  -6.158  0.00  0.00     0.010 A 
ATOM     20  C11 <0> d          -2.027  -1.456  -8.797  0.00  0.00     0.041 C 
ATOM     21  C17 <0> d          -4.526  -0.641  -8.694  0.00  0.00     0.007 A 
ATOM     22  C10 <0> d          -1.078  -1.733  -7.612  0.00  0.00     0.042 C 
ATOM     23  C16 <0> d          -5.499  -0.007  -7.937  0.00  0.00     0.001 A 
ATOM     24  C15 <0> d          -5.197   0.451  -6.668  0.00  0.00     0.001 A 
ENDBRANCH  13  16
ENDBRANCH   1  13
TORSDOF 3
