REMARK  5 active torsions:
REMARK  status: ('A' for Active; 'I' for Inactive)
REMARK    1  A    between atoms: N1_4  and  C7_9 
REMARK    2  A    between atoms: C7_9  and  C10_12 
REMARK    3  A    between atoms: C10_12  and  N2_13 
REMARK    4  A    between atoms: N2_13  and  S1_14 
REMARK    5  A    between atoms: S1_14  and  C11_17 
ROOT
ATOM      1  N2  <0> d          -2.187   1.102   3.622  0.00  0.00    -0.313 N 
ATOM      2  H21 <0> d          -2.658   0.858   2.658  0.00  0.00     0.172 HD
ENDROOT
BRANCH   1   3
ATOM      3  C10 <0> d          -0.797   1.562   3.663  0.00  0.00     0.173 C 
BRANCH   3   4
ATOM      4  C7  <0> d          -0.053   1.047   2.430  0.00  0.00     0.169 C 
ATOM      5  C8  <0> d          -0.084  -0.482   2.416  0.00  0.00     0.050 C 
ATOM      6  C9  <0> d           1.399   1.528   2.473  0.00  0.00     0.050 C 
BRANCH   4   7
ATOM      7  N1  <0> d          -0.703   1.561   1.216  0.00  0.00     0.104 N 
ATOM      8  C3  <0> d          -0.013   1.086   0.008  0.00  0.00     0.305 C 
ATOM      9  C2  <0> d          -0.755   1.594  -1.231  0.00  0.00     0.146 C 
ATOM     10  C1  <0> d           0.004   1.170  -2.490  0.00  0.00     0.041 C 
ATOM     11  O1  <0> d          -0.837   3.021  -1.180  0.00  0.00    -0.378 OA
ATOM     12  C5  <0> d          -1.504   3.518  -0.017  0.00  0.00     0.146 C 
ATOM     13  C4  <0> d          -0.769   3.029   1.235  0.00  0.00     0.305 C 
ATOM     14  C6  <0> d          -2.945   3.005   0.004  0.00  0.00     0.041 C 
ENDBRANCH   4   7
ENDBRANCH   3   4
ENDBRANCH   1   3
BRANCH   1  15
ATOM     15  S1  <0> d          -3.127   1.183   4.983  0.00  0.00     0.265 S 
ATOM     16  O2  <0> d          -4.412   0.696   4.619  0.00  0.00    -0.200 OA
ATOM     17  O3  <0> d          -2.366   0.610   6.037  0.00  0.00    -0.200 OA
BRANCH  15  18
ATOM     18  C11 <0> d          -3.329   2.889   5.376  0.00  0.00     0.163 A 
ATOM     19  C14 <0> d          -4.203   3.702   4.615  0.00  0.00     0.276 A 
ATOM     20  N4  <0> d          -4.341   5.004   4.935  0.00  0.00    -0.269 N 
ATOM     21  O5  <0> d          -4.824   3.229   3.680  0.00  0.00    -0.266 OA
ATOM     22  C13 <0> d          -3.654   5.526   5.968  0.00  0.00     0.330 A 
ATOM     23  C15 <0> d          -5.242   5.856   4.154  0.00  0.00     0.164 C 
ATOM     24  N3  <0> d          -2.820   4.764   6.699  0.00  0.00    -0.312 N 
ATOM     25  O4  <0> d          -3.788   6.702   6.245  0.00  0.00    -0.246 OA
ATOM     26  C12 <0> d          -2.656   3.436   6.411  0.00  0.00     0.126 A 
ATOM     27  C16 <0> d          -2.086   5.359   7.818  0.00  0.00     0.160 C 
ENDBRANCH  15  18
ENDBRANCH   1  15
TORSDOF 5
