REMARK  2 active torsions:
REMARK  status: ('A' for Active; 'I' for Inactive)
REMARK    1  A    between atoms: C7_10  and  C8_12 
REMARK    2  A    between atoms: C8_12  and  N3_13 
ROOT
ATOM      1  C1  <0> d          -7.278   0.644  -3.340  0.00  0.00     0.069 C 
ATOM      2  C2  <0> d          -6.011  -0.159  -3.488  0.00  0.00     0.025 A 
ATOM      3  C3  <0> d          -6.085  -1.483  -3.613  0.00  0.00     0.078 A 
ATOM      4  S1  <0> d          -4.362  -1.934  -3.752  0.00  0.00    -0.061 SA
ATOM      5  C4  <0> d          -3.682  -0.294  -3.629  0.00  0.00     0.180 A 
ATOM      6  N1  <0> d          -4.798   0.488  -3.491  0.00  0.00    -0.261 N 
ATOM      7  C5  <0> d          -4.588   1.833  -3.371  0.00  0.00     0.256 A 
ATOM      8  O1  <0> d          -5.538   2.591  -3.245  0.00  0.00    -0.268 OA
ATOM      9  C6  <0> d          -3.289   2.339  -3.392  0.00  0.00     0.104 A 
ATOM     10  C7  <0> d          -2.221   1.479  -3.535  0.00  0.00     0.069 A 
ATOM     11  N2  <0> d          -2.460   0.175  -3.655  0.00  0.00    -0.227 NA
ENDROOT
BRANCH  10  12
ATOM     12  C8  <0> d          -0.809   2.006  -3.561  0.00  0.00     0.303 C 
BRANCH  12  13
ATOM     13  N3  <0> d          -0.080   1.510  -2.387  0.00  0.00     0.018 N 
ATOM     14  C11 <0> d           1.296   2.024  -2.413  0.00  0.00     0.517 C 
ATOM     15  N5  <0> d           2.022   1.524  -1.232  0.00  0.00     0.171 N 
ATOM     16  C10 <0> d           1.361   1.990  -0.000  0.00  0.00     0.551 C 
ATOM     17  C12 <0> d           2.062   0.051  -1.255  0.00  0.00     0.551 C 
ATOM     18  N4  <0> d          -0.018   1.470   0.010  0.00  0.00     0.171 N 
ATOM     19  C9  <0> d          -0.753   1.970  -1.164  0.00  0.00     0.517 C 
ATOM     20  C13 <0> d           0.002  -0.004   0.002  0.00  0.00     0.551 C 
ATOM     21  N6  <0> d           0.676  -0.451  -1.230  0.00  0.00     0.171 N 
ATOM     22  C14 <0> d          -0.055   0.040  -2.410  0.00  0.00     0.517 C 
ENDBRANCH  12  13
ENDBRANCH  10  12
TORSDOF 2
