REMARK  7 active torsions:
REMARK  status: ('A' for Active; 'I' for Inactive)
REMARK    1  A    between atoms: C2_2  and  C3_3 
REMARK    2  A    between atoms: C3_3  and  C5_5 
REMARK    3  A    between atoms: C5_5  and  C6_6 
REMARK       I    between atoms: C6_6  and  N1_8 
REMARK    4  A    between atoms: C8_10  and  C15_18 
REMARK       I    between atoms: C15_18  and  N3_20 
REMARK    5  A    between atoms: N3_20  and  C16_21 
REMARK    6  A    between atoms: C16_21  and  C17_22 
REMARK    7  A    between atoms: C17_22  and  C18_23 
ROOT
ATOM      1  C6  <0> d          -2.539  -2.611   0.135  0.00  0.00     0.220 C 
ATOM      2  O1  <0> d          -3.405  -1.764   0.092  0.00  0.00    -0.273 OA
ATOM      3  N1  <0> d          -2.872  -3.907   0.298  0.00  0.00    -0.351 N 
ATOM      4  C7  <0> d          -1.964  -5.075   0.381  0.00  0.00     0.140 C 
ATOM      5  C8  <0> d          -2.586  -5.977   1.470  0.00  0.00     0.106 C 
ATOM      6  C9  <0> d          -4.073  -5.587   1.500  0.00  0.00    -0.007 C 
ATOM      7  C10 <0> d          -4.230  -4.485   0.442  0.00  0.00     0.136 C 
ATOM      8  C11 <0> d          -4.942  -6.790   1.144  0.00  0.00     0.039 C 
ATOM      9  C12 <0> d          -6.418  -6.393   1.237  0.00  0.00     0.233 C 
ATOM     10  N2  <0> d          -6.718  -5.933   2.598  0.00  0.00    -0.075 N 
ATOM     11  C13 <0> d          -5.947  -4.721   2.899  0.00  0.00     0.233 C 
ATOM     12  C14 <0> d          -4.451  -5.048   2.876  0.00  0.00     0.039 C 
ATOM     13  H22 <0> d          -7.704  -5.730   2.673  0.00  0.00     0.277 HD
ATOM     14  H39 <0> d          -6.476  -6.657   3.257  0.00  0.00     0.277 HD
ENDROOT
BRANCH   5  15
ATOM     15  C15 <0> d          -1.944  -5.707   2.806  0.00  0.00     0.224 C 
ATOM     16  O2  <0> d          -1.512  -4.602   3.059  0.00  0.00    -0.273 OA
ATOM     17  N3  <0> d          -1.848  -6.692   3.720  0.00  0.00    -0.360 N 
ATOM     18  H27 <0> d          -2.193  -7.576   3.518  0.00  0.00     0.162 HD
BRANCH  17  19
ATOM     19  C16 <0> d          -1.224  -6.429   5.019  0.00  0.00     0.127 C 
BRANCH  19  20
ATOM     20  C17 <0> d          -1.244  -7.705   5.863  0.00  0.00     0.061 C 
BRANCH  20  21
ATOM     21  C18 <0> d          -0.602  -7.435   7.199  0.00  0.00    -0.022 A 
ATOM     22  C19 <0> d          -1.277  -6.970   8.413  0.00  0.00    -0.001 A 
ATOM     23  C20 <0> d          -2.600  -6.651   8.725  0.00  0.00     0.014 A 
ATOM     24  C24 <0> d          -0.278  -6.862   9.397  0.00  0.00     0.043 A 
ATOM     25  C21 <0> d          -2.917  -6.236   9.988  0.00  0.00     0.001 A 
ATOM     26  C22 <0> d          -1.935  -6.127  10.962  0.00  0.00     0.002 A 
ATOM     27  C23 <0> d          -0.623  -6.436  10.675  0.00  0.00     0.030 A 
ATOM     28  N4  <0> d           0.911  -7.236   8.811  0.00  0.00    -0.359 N 
ATOM     29  H3  <0> d           1.771  -7.257   9.260  0.00  0.00     0.166 HD
ATOM     30  C25 <0> d           0.698  -7.579   7.504  0.00  0.00     0.013 A 
ATOM     31  C26 <0> d           1.764  -8.047   6.547  0.00  0.00     0.068 C 
ENDBRANCH  20  21
ENDBRANCH  19  20
ENDBRANCH  17  19
ENDBRANCH   5  15
BRANCH   1  32
ATOM     32  C5  <0> d          -1.090  -2.216   0.007  0.00  0.00     0.107 C 
BRANCH  32  33
ATOM     33  C3  <0> d          -0.989  -0.700  -0.167  0.00  0.00    -0.010 C 
ATOM     34  C4  <0> d          -1.638  -0.294  -1.492  0.00  0.00     0.010 C 
BRANCH  33  35
ATOM     35  C2  <0> d           0.484  -0.284  -0.173  0.00  0.00     0.000 C 
ATOM     36  C1  <0> d           0.583   1.242  -0.221  0.00  0.00     0.005 C 
ENDBRANCH  33  35
ENDBRANCH  32  33
ENDBRANCH   1  32
TORSDOF 7
