REMARK  5 active torsions:
REMARK  status: ('A' for Active; 'I' for Inactive)
REMARK    1  A    between atoms: C11_14  and  C18_24 
REMARK    2  A    between atoms: N3_15  and  C13_18 
REMARK    3  A    between atoms: C13_18  and  C14_19 
REMARK    4  A    between atoms: C18_24  and  S1_25 
REMARK    5  A    between atoms: S1_25  and  C19_26 
ROOT
ATOM      1  C1  <0> d          -0.046   1.117  -0.172  0.00  0.00     0.152 C 
ATOM      2  N1  <0> d          -0.040  -0.343  -0.045  0.00  0.00    -0.354 N 
ATOM      3  C2  <0> d          -0.059  -1.158  -1.174  0.00  0.00     0.045 A 
ATOM      4  C3  <0> d           0.300  -0.644  -2.413  0.00  0.00     0.030 A 
ATOM      5  C4  <0> d           0.289  -1.460  -3.526  0.00  0.00     0.002 A 
ATOM      6  C5  <0> d          -0.078  -2.794  -3.422  0.00  0.00     0.001 A 
ATOM      7  C6  <0> d          -0.442  -3.324  -2.203  0.00  0.00     0.017 A 
ATOM      8  C7  <0> d          -0.440  -2.509  -1.069  0.00  0.00     0.037 A 
ATOM      9  C8  <0> d          -0.843  -3.049   0.244  0.00  0.00     0.178 C 
ATOM     10  O1  <0> d          -0.930  -4.242   0.449  0.00  0.00    -0.291 OA
ATOM     11  C9  <0> d          -1.142  -2.028   1.318  0.00  0.00     0.205 C 
ATOM     12  C10 <0> d          -0.009  -0.982   1.270  0.00  0.00     0.345 C 
ATOM     13  N2  <0> d          -0.222  -0.033   2.364  0.00  0.00     0.131 N 
ATOM     14  C11 <0> d           0.030  -0.691   3.655  0.00  0.00     0.336 C 
ATOM     15  N3  <0> d          -0.641  -1.981   3.744  0.00  0.00    -0.314 N 
ATOM     16  C12 <0> d          -1.177  -2.642   2.685  0.00  0.00     0.237 C 
ATOM     17  O2  <0> d          -1.665  -3.741   2.836  0.00  0.00    -0.272 OA
ATOM     18  H11 <0> d           0.362   0.782   2.254  0.00  0.00     0.321 HD
ENDROOT
BRANCH  14  19
ATOM     19  C18 <0> d           1.536  -0.902   3.821  0.00  0.00     0.135 C 
BRANCH  19  20
ATOM     20  S1  <0> d           2.363   0.709   3.938  0.00  0.00    -0.119 SA
BRANCH  20  21
ATOM     21  C19 <0> d           4.117   0.288   4.130  0.00  0.00     0.247 A 
ATOM     22  N5  <0> d           4.313  -0.516   5.342  0.00  0.00    -0.359 N 
ATOM     23  C25 <0> d           4.806  -1.663   4.974  0.00  0.00     0.057 A 
ATOM     24  H25 <0> d           4.112  -0.243   6.251  0.00  0.00     0.162 HD
ATOM     25  C20 <0> d           4.964  -1.681   3.494  0.00  0.00     0.057 A 
ATOM     26  C24 <0> d           5.207  -2.864   5.721  0.00  0.00     0.031 A 
ATOM     27  N4  <0> d           4.562  -0.543   3.005  0.00  0.00    -0.359 N 
ATOM     28  C21 <0> d           5.510  -2.897   2.877  0.00  0.00     0.031 A 
ATOM     29  H24 <0> d           4.557  -0.292   2.068  0.00  0.00     0.162 HD
ATOM     30  C22 <0> d           5.846  -3.945   3.656  0.00  0.00     0.002 A 
ATOM     31  C23 <0> d           5.697  -3.928   5.055  0.00  0.00     0.002 A 
ENDBRANCH  20  21
ENDBRANCH  19  20
ENDBRANCH  14  19
BRANCH  15  32
ATOM     32  C13 <0> d          -0.767  -2.599   5.066  0.00  0.00     0.193 C 
BRANCH  32  33
ATOM     33  C14 <0> d          -2.053  -2.150   5.710  0.00  0.00     0.070 A 
ATOM     34  O3  <0> d          -2.205  -1.069   6.492  0.00  0.00    -0.325 OA
ATOM     35  C17 <0> d          -3.486  -0.977   6.885  0.00  0.00     0.142 A 
ATOM     36  C16 <0> d          -4.167  -2.012   6.362  0.00  0.00     0.027 A 
ATOM     37  C15 <0> d          -3.243  -2.769   5.604  0.00  0.00     0.036 A 
ENDBRANCH  32  33
ENDBRANCH  15  32
TORSDOF 5
