REMARK  5 active torsions:
REMARK  status: ('A' for Active; 'I' for Inactive)
REMARK    1  A    between atoms: C2_2  and  C3_3 
REMARK    2  A    between atoms: C3_3  and  C4_4 
REMARK    3  A    between atoms: C3_3  and  N1_7 
REMARK    4  A    between atoms: N1_7  and  C6_9 
REMARK    5  A    between atoms: C6_9  and  C7_10 
ROOT
ATOM      1  C7  <0> d          -2.462   1.367  -2.979  0.00  0.00     0.068 A 
ATOM      2  C8  <0> d          -3.644   2.036  -3.229  0.00  0.00     0.104 A 
ATOM      3  C9  <0> d          -4.015   2.282  -4.556  0.00  0.00     0.255 A 
ATOM      4  O3  <0> d          -5.054   2.870  -4.811  0.00  0.00    -0.268 OA
ATOM      5  N2  <0> d          -3.206   1.858  -5.551  0.00  0.00    -0.272 N 
ATOM      6  C10 <0> d          -3.554   2.090  -6.847  0.00  0.00     0.125 A 
ATOM      7  C11 <0> d          -2.759   1.675  -7.861  0.00  0.00     0.050 A 
ATOM      8  C12 <0> d          -1.562   0.997  -7.585  0.00  0.00     0.029 A 
ATOM      9  C13 <0> d          -1.207   0.761  -6.291  0.00  0.00     0.053 A 
ATOM     10  C14 <0> d          -2.046   1.201  -5.251  0.00  0.00     0.137 A 
ATOM     11  N3  <0> d          -1.697   0.974  -3.985  0.00  0.00    -0.233 NA
ATOM     12 Cl1  <0> d          -3.222   1.981  -9.505  0.00  0.00    -0.083 Cl
ENDROOT
BRANCH   1  13
ATOM     13  C6  <0> d          -2.039   1.090  -1.559  0.00  0.00     0.294 C 
BRANCH  13  14
ATOM     14  N1  <0> d          -2.024  -0.360  -1.327  0.00  0.00    -0.056 N 
ATOM     15  C5  <0> d          -3.387  -0.891  -1.459  0.00  0.00     0.271 C 
ATOM     16  H16 <0> d          -1.423  -0.803  -2.006  0.00  0.00     0.281 HD
BRANCH  14  17
ATOM     17  C3  <0> d          -1.520  -0.634   0.026  0.00  0.00     0.287 C 
BRANCH  17  18
ATOM     18  C2  <0> d          -0.115  -0.047   0.175  0.00  0.00     0.040 C 
ATOM     19  C1  <0> d           0.357  -0.217   1.620  0.00  0.00     0.007 C 
ENDBRANCH  17  18
BRANCH  17  20
ATOM     20  C4  <0> d          -1.469  -2.123   0.251  0.00  0.00     0.205 C 
ATOM     21  O1  <0> d          -1.621  -2.576   1.373  0.00  0.00    -0.646 OA
ATOM     22  O2  <0> d          -1.276  -2.875  -0.689  0.00  0.00    -0.646 OA
ENDBRANCH  17  20
ENDBRANCH  14  17
ENDBRANCH  13  14
ENDBRANCH   1  13
TORSDOF 5
