REMARK  5 active torsions:
REMARK  status: ('A' for Active; 'I' for Inactive)
REMARK    1  A    between atoms: C3_3  and  C4_7 
REMARK       I    between atoms: C4_7  and  N3_9 
REMARK    2  A    between atoms: N3_9  and  C5_10 
REMARK    3  A    between atoms: C5_10  and  C6_11 
REMARK    4  A    between atoms: C6_11  and  C9_14 
REMARK    5  A    between atoms: C9_14  and  O2_15 
ROOT
ATOM      1  C4  <0> d          -0.717  -2.343  -2.283  0.00  0.00     0.262 C 
ATOM      2  O1  <0> d          -0.666  -1.209  -1.845  0.00  0.00    -0.267 OA
ATOM      3  N3  <0> d          -0.498  -2.570  -3.594  0.00  0.00    -0.356 N 
ATOM      4  H4  <0> d          -0.539  -3.474  -3.943  0.00  0.00     0.162 HD
ENDROOT
BRANCH   3   5
ATOM      5  C5  <0> d          -0.199  -1.450  -4.490  0.00  0.00     0.134 C 
BRANCH   5   6
ATOM      6  C6  <0> d           0.126  -1.988  -5.886  0.00  0.00    -0.003 A 
ATOM      7  C8  <0> d          -0.995  -2.695  -6.649  0.00  0.00     0.014 A 
ATOM      8  C7  <0> d          -0.537  -1.300  -7.080  0.00  0.00     0.014 A 
BRANCH   6   9
ATOM      9  C9  <0> d           1.550  -2.515  -6.075  0.00  0.00     0.175 C 
BRANCH   9  10
ATOM     10  O2  <0> d           2.479  -1.437  -5.939  0.00  0.00    -0.400 OA
ATOM     11  H13 <0> d           3.403  -1.698  -6.047  0.00  0.00     0.209 HD
ENDBRANCH   9  10
ENDBRANCH   6   9
ENDBRANCH   5   6
ENDBRANCH   3   5
BRANCH   1  12
ATOM     12  C3  <0> d          -1.018  -3.467  -1.382  0.00  0.00     0.118 A 
ATOM     13  C2  <0> d          -1.274  -3.472  -0.016  0.00  0.00     0.077 A 
ATOM     14  C1  <0> d          -1.283  -2.216   0.818  0.00  0.00     0.074 C 
ATOM     15  N2  <0> d          -1.502  -4.660   0.488  0.00  0.00    -0.146 NA
ATOM     16  N1  <0> d          -1.498  -5.724  -0.232  0.00  0.00    -0.110 NA
ATOM     17  S1  <0> d          -1.157  -5.212  -1.732  0.00  0.00     0.042 SA
ENDBRANCH   1  12
TORSDOF 5
