REMARK  3 active torsions:
REMARK  status: ('A' for Active; 'I' for Inactive)
REMARK    1  A    between atoms: C4_4  and  C7_8 
REMARK    2  A    between atoms: C9_10  and  N3_20 
REMARK    3  A    between atoms: N1_11  and  C10_13 
ROOT
ATOM      1  C7  <0> d          -1.374  -3.426  -0.010  0.00  0.00     0.070 A 
ATOM      2  C8  <0> d          -1.414  -4.383   1.020  0.00  0.00     0.012 A 
ATOM      3  C9  <0> d          -2.261  -5.374   0.634  0.00  0.00     0.124 A 
ATOM      4  N1  <0> d          -2.739  -5.052  -0.596  0.00  0.00    -0.270 N 
ATOM      5  N2  <0> d          -2.174  -3.828  -0.974  0.00  0.00    -0.295 N 
ATOM      6  C14 <0> d          -0.653  -4.322   2.320  0.00  0.00     0.055 C 
ATOM      7  H20 <0> d          -2.342  -3.358  -1.806  0.00  0.00     0.187 HD
ENDROOT
BRANCH   1   8
ATOM      8  C4  <0> d          -0.573  -2.176  -0.007  0.00  0.00     0.024 A 
ATOM      9  C3  <0> d          -1.081  -0.799   0.003  0.00  0.00     0.048 A 
ATOM     10  C2  <0> d           0.002  -0.004   0.002  0.00  0.00     0.050 A 
ATOM     11  C1  <0> d          -0.018   1.503   0.010  0.00  0.00     0.076 C 
ATOM     12  O1  <0> d           1.105  -0.768  -0.013  0.00  0.00    -0.319 OA
ATOM     13  C5  <0> d           0.780  -2.070  -0.013  0.00  0.00     0.062 A 
ATOM     14  C6  <0> d           1.753  -3.220  -0.024  0.00  0.00     0.077 C 
ENDBRANCH   1   8
BRANCH   4  15
ATOM     15  C10 <0> d          -3.684  -5.845  -1.387  0.00  0.00     0.124 C 
ATOM     16  C13 <0> d          -3.018  -6.258  -2.721  0.00  0.00     0.167 C 
ATOM     17  S1  <0> d          -4.440  -6.309  -3.885  0.00  0.00     0.146 S 
ATOM     18  C12 <0> d          -5.780  -5.740  -2.755  0.00  0.00     0.142 C 
ATOM     19  O2  <0> d          -4.689  -7.659  -4.254  0.00  0.00    -0.228 OA
ATOM     20  O3  <0> d          -4.244  -5.332  -4.898  0.00  0.00    -0.228 OA
ATOM     21  C11 <0> d          -4.943  -5.007  -1.668  0.00  0.00     0.043 C 
ENDBRANCH   4  15
BRANCH   3  22
ATOM     22  N3  <0> d          -2.582  -6.513   1.368  0.00  0.00    -0.384 N 
ATOM     23  H15 <0> d          -2.186  -6.654   2.242  0.00  0.00     0.157 HD
ATOM     24  H16 <0> d          -3.200  -7.166   1.004  0.00  0.00     0.157 HD
ENDBRANCH   3  22
TORSDOF 3
