REMARK  4 active torsions:
REMARK  status: ('A' for Active; 'I' for Inactive)
REMARK    1  A    between atoms: C3_3  and  O5_22 
REMARK    2  A    between atoms: C4_4  and  C12_19 
REMARK    3  A    between atoms: C5_6  and  N1_8 
REMARK    4  A    between atoms: C12_19  and  O4_20 
ROOT
ATOM      1  C1  <0> d          -3.747   4.756  -1.246  0.00  0.00     0.023 C 
ATOM      2  C2  <0> d          -3.302   4.583   0.208  0.00  0.00     0.036 C 
ATOM      3  C3  <0> d          -4.288   5.291   1.164  0.00  0.00     0.099 C 
ATOM      4  C4  <0> d          -3.424   6.357   1.872  0.00  0.00     0.113 C 
ATOM      5  O1  <0> d          -2.072   5.857   1.782  0.00  0.00    -0.344 OA
ATOM      6  C5  <0> d          -1.958   5.306   0.452  0.00  0.00     0.151 C 
ATOM      7  C6  <0> d          -1.759   6.425  -0.572  0.00  0.00     0.072 C 
ATOM      8  C11 <0> d          -3.543   7.703   1.153  0.00  0.00     0.051 C 
ATOM      9  C13 <0> d          -5.418   5.954   0.373  0.00  0.00     0.050 C 
ATOM     10  C14 <0> d          -3.184   3.099   0.561  0.00  0.00     0.023 C 
ENDROOT
BRANCH   6  11
ATOM     11  N1  <0> d          -0.848   4.353   0.388  0.00  0.00    -0.275 N 
ATOM     12  C10 <0> d          -0.198   4.011   1.515  0.00  0.00     0.331 A 
ATOM     13  N2  <0> d           0.826   3.138   1.485  0.00  0.00    -0.274 N 
ATOM     14  O3  <0> d          -0.541   4.496   2.576  0.00  0.00    -0.246 OA
ATOM     15  C9  <0> d           1.219   2.590   0.317  0.00  0.00     0.267 A 
ATOM     16  H1  <0> d           1.298   2.894   2.333  0.00  0.00     0.173 HD
ATOM     17  C8  <0> d           0.544   2.942  -0.877  0.00  0.00     0.090 A 
ATOM     18  O2  <0> d           2.146   1.801   0.290  0.00  0.00    -0.267 OA
ATOM     19  C7  <0> d          -0.476   3.825  -0.819  0.00  0.00     0.122 A 
ATOM     20  I1  <0> d           1.127   2.112  -2.710  0.00  0.00    -0.037 I 
ENDBRANCH   6  11
BRANCH   3  21
ATOM     21  O5  <0> d          -4.820   4.365   2.114  0.00  0.00    -0.386 OA
ATOM     22  H18 <0> d          -5.400   4.769   2.774  0.00  0.00     0.210 HD
ENDBRANCH   3  21
BRANCH   4  23
ATOM     23  C12 <0> d          -3.843   6.499   3.337  0.00  0.00     0.205 C 
BRANCH  23  24
ATOM     24  O4  <0> d          -3.062   7.520   3.960  0.00  0.00    -0.398 OA
ATOM     25  H14 <0> d          -3.274   7.664   4.892  0.00  0.00     0.209 HD
ENDBRANCH  23  24
ENDBRANCH   4  23
TORSDOF 4
