REMARK  8 active torsions:
REMARK  status: ('A' for Active; 'I' for Inactive)
REMARK    1  A    between atoms: C1_1  and  C2_2 
REMARK    2  A    between atoms: C1_1  and  C4_8 
REMARK    3  A    between atoms: C2_2  and  C3_3 
REMARK    4  A    between atoms: C2_2  and  O1_7 
REMARK    5  A    between atoms: C4_8  and  C5_10 
REMARK    6  A    between atoms: C5_10  and  C6_11 
REMARK    7  A    between atoms: C6_11  and  C7_12 
REMARK    8  A    between atoms: C6_11  and  O3_16 
ROOT
ATOM      1  C4  <0> d          -0.742   1.585  -1.213  0.00  0.00     0.132 C 
ATOM      2  O2  <0> d          -1.732   2.265  -1.089  0.00  0.00    -0.298 OA
ENDROOT
BRANCH   1   3
ATOM      3  C1  <0> d          -0.235   1.235  -2.588  0.00  0.00     0.114 C 
BRANCH   3   4
ATOM      4  C2  <0> d          -1.149   1.862  -3.643  0.00  0.00     0.179 C 
BRANCH   4   5
ATOM      5  C3  <0> d          -0.709   1.406  -5.036  0.00  0.00     0.214 C 
ATOM      6 Cl1  <0> d          -0.814  -0.391  -5.140  0.00  0.00    -0.081 Cl
ATOM      7 Cl2  <0> d          -1.786   2.144  -6.279  0.00  0.00    -0.081 Cl
ATOM      8 Cl3  <0> d           0.992   1.926  -5.329  0.00  0.00    -0.081 Cl
ENDBRANCH   4   5
BRANCH   4   9
ATOM      9  O1  <0> d          -1.066   3.286  -3.560  0.00  0.00    -0.391 OA
ATOM     10  H5  <0> d          -1.657   3.913  -4.245  0.00  0.00     0.210 HD
ENDBRANCH   4   9
ENDBRANCH   3   4
ENDBRANCH   1   3
BRANCH   1  11
ATOM     11  C5  <0> d          -0.013   1.086   0.008  0.00  0.00     0.114 C 
BRANCH  11  12
ATOM     12  C6  <0> d          -0.729   1.579   1.267  0.00  0.00     0.179 C 
BRANCH  12  13
ATOM     13  C7  <0> d          -0.064   0.971   2.503  0.00  0.00     0.214 C 
ATOM     14 Cl4  <0> d           1.667   1.472   2.562  0.00  0.00    -0.081 Cl
ATOM     15 Cl5  <0> d          -0.908   1.553   3.987  0.00  0.00    -0.081 Cl
ATOM     16 Cl6  <0> d          -0.167  -0.827   2.419  0.00  0.00    -0.081 Cl
ENDBRANCH  12  13
BRANCH  12  17
ATOM     17  O3  <0> d          -0.647   3.004   1.334  0.00  0.00    -0.391 OA
ATOM     18  H8  <0> d          -1.107   3.543   2.175  0.00  0.00     0.210 HD
ENDBRANCH  12  17
ENDBRANCH  11  12
ENDBRANCH   1  11
TORSDOF 8
