REMARK  5 active torsions:
REMARK  status: ('A' for Active; 'I' for Inactive)
REMARK    1  A    between atoms: C2_2  and  C3_3 
REMARK    2  A    between atoms: C2_2  and  O5_18 
REMARK    3  A    between atoms: C7_7  and  O1_9 
REMARK    4  A    between atoms: O1_9  and  C9_10 
REMARK    5  A    between atoms: C12_16  and  O4_17 
ROOT
ATOM      1  C3  <0> d           1.006   0.223   1.397  0.00  0.00    -0.027 A 
ATOM      2  C4  <0> d           0.311   0.088   2.585  0.00  0.00     0.010 A 
ATOM      3  C5  <0> d           0.873  -0.601   3.643  0.00  0.00     0.003 A 
ATOM      4  C6  <0> d           2.132  -1.156   3.517  0.00  0.00     0.037 A 
ATOM      5  C7  <0> d           2.832  -1.022   2.327  0.00  0.00     0.070 A 
ATOM      6  C8  <0> d           2.263  -0.335   1.264  0.00  0.00     0.046 A 
ENDROOT
BRANCH   5   7
ATOM      7  O1  <0> d           4.070  -1.567   2.200  0.00  0.00    -0.342 OA
BRANCH   7   8
ATOM      8  C9  <0> d           4.684  -1.491   0.911  0.00  0.00     0.172 C 
ATOM      9  C12 <0> d           5.688  -2.626   0.784  0.00  0.00     0.162 C 
ATOM     10  C11 <0> d           7.132  -2.161   0.509  0.00  0.00     0.174 C 
ATOM     11  S1  <0> d           7.076  -0.428   1.144  0.00  0.00     0.149 S 
ATOM     12  C10 <0> d           5.307  -0.087   0.743  0.00  0.00     0.175 C 
ATOM     13  O2  <0> d           7.908   0.395   0.338  0.00  0.00    -0.228 OA
ATOM     14  O3  <0> d           7.246  -0.436   2.554  0.00  0.00    -0.228 OA
BRANCH   9  15
ATOM     15  O4  <0> d           5.277  -3.482  -0.284  0.00  0.00    -0.392 OA
ATOM     16  H15 <0> d           5.865  -4.235  -0.433  0.00  0.00     0.210 HD
ENDBRANCH   9  15
ENDBRANCH   7   8
ENDBRANCH   5   7
BRANCH   1  17
ATOM     17  C2  <0> d           0.390   0.975   0.245  0.00  0.00     0.147 C 
ATOM     18  C1  <0> d           0.671   2.470   0.404  0.00  0.00     0.044 C 
BRANCH  17  19
ATOM     19  O5  <0> d          -1.022   0.754   0.233  0.00  0.00    -0.391 OA
ATOM     20  H16 <0> d          -1.485   1.209  -0.483  0.00  0.00     0.210 HD
ENDBRANCH  17  19
ENDBRANCH   1  17
TORSDOF 5
