REMARK  5 active torsions:
REMARK  status: ('A' for Active; 'I' for Inactive)
REMARK    1  A    between atoms: C7_7  and  C17_22 
REMARK    2  A    between atoms: C7_7  and  O3_29 
REMARK    3  A    between atoms: N1_10  and  C9_11 
REMARK    4  A    between atoms: C9_11  and  C10_12 
REMARK       I    between atoms: C10_12  and  N2_14 
REMARK    5  A    between atoms: N2_14  and  C11_15 
ROOT
ATOM      1  C1  <0> d          -0.020   1.340  -0.011  0.00  0.00     0.001 A 
ATOM      2  C2  <0> d           1.168   2.049  -0.021  0.00  0.00     0.002 A 
ATOM      3  C3  <0> d           2.377   1.385  -0.030  0.00  0.00     0.030 A 
ATOM      4  C4  <0> d           2.410  -0.008  -0.028  0.00  0.00     0.048 A 
ATOM      5  C5  <0> d           1.210  -0.709  -0.017  0.00  0.00     0.017 A 
ATOM      6  C6  <0> d           0.005  -0.044  -0.008  0.00  0.00     0.013 A 
ATOM      7  C7  <0> d           1.575  -2.176  -0.017  0.00  0.00     0.196 A 
ATOM      8  C8  <0> d           3.089  -2.179  -0.030  0.00  0.00     0.269 A 
ATOM      9  O1  <0> d           3.807  -3.156  -0.034  0.00  0.00    -0.269 OA
ATOM     10  N1  <0> d           3.487  -0.895  -0.035  0.00  0.00    -0.305 N 
ENDROOT
BRANCH  10  11
ATOM     11  C9  <0> d           4.890  -0.475  -0.048  0.00  0.00     0.235 C 
BRANCH  11  12
ATOM     12  C10 <0> d           5.383  -0.329   1.369  0.00  0.00     0.240 C 
ATOM     13  O2  <0> d           4.636  -0.553   2.297  0.00  0.00    -0.271 OA
ATOM     14  N2  <0> d           6.655   0.051   1.604  0.00  0.00    -0.323 N 
ATOM     15  H7  <0> d           7.271   0.168   0.864  0.00  0.00     0.169 HD
BRANCH  14  16
ATOM     16  C11 <0> d           7.087   0.277   2.917  0.00  0.00     0.073 A 
ATOM     17  C16 <0> d           8.021   1.272   3.181  0.00  0.00     0.143 A 
ATOM     18  C15 <0> d           8.441   1.496   4.480  0.00  0.00     0.044 A 
ATOM     19  F1  <0> d           8.515   2.022   2.172  0.00  0.00    -0.204 F 
ATOM     20  C14 <0> d           7.940   0.724   5.512  0.00  0.00     0.003 A 
ATOM     21  C13 <0> d           7.015  -0.269   5.250  0.00  0.00     0.002 A 
ATOM     22  C12 <0> d           6.587  -0.494   3.956  0.00  0.00     0.033 A 
ENDBRANCH  14  16
ENDBRANCH  11  12
ENDBRANCH  10  11
BRANCH   7  23
ATOM     23  C17 <0> d           1.035  -2.853  -1.250  0.00  0.00    -0.008 A 
ATOM     24  C22 <0> d           0.686  -4.190  -1.207  0.00  0.00     0.034 A 
ATOM     25  C21 <0> d           0.185  -4.811  -2.338  0.00  0.00     0.034 A 
ATOM     26  C20 <0> d           0.045  -4.096  -3.514  0.00  0.00     0.024 A 
ATOM     27 Cl1  <0> d          -0.260  -6.487  -2.283  0.00  0.00    -0.084 Cl
ATOM     28  C19 <0> d           0.400  -2.760  -3.557  0.00  0.00     0.002 A 
ATOM     29  C18 <0> d           0.895  -2.139  -2.426  0.00  0.00     0.011 A 
ENDBRANCH   7  23
BRANCH   7  30
ATOM     30  O3  <0> d           1.083  -2.814   1.163  0.00  0.00    -0.371 OA
ATOM     31  H16 <0> d           1.289  -3.758   1.214  0.00  0.00     0.212 HD
ENDBRANCH   7  30
TORSDOF 5
