REMARK  4 active torsions:
REMARK  status: ('A' for Active; 'I' for Inactive)
REMARK       I    between atoms: N1_2  and  C3_4 
REMARK    1  A    between atoms: C3_4  and  C4_6 
REMARK    2  A    between atoms: C4_6  and  O2_7 
REMARK    3  A    between atoms: O2_7  and  C5_8 
REMARK    4  A    between atoms: C5_8  and  C6_10 
ROOT
ATOM      1  C6  <0> d           2.412   0.069  -0.028  0.00  0.00     0.041 A 
ATOM      2  C7  <0> d           2.378   1.467  -0.016  0.00  0.00     0.019 A 
ATOM      3  C8  <0> d           1.167   2.122   0.002  0.00  0.00     0.022 A 
ATOM      4  C9  <0> d          -0.017   1.395   0.010  0.00  0.00     0.027 A 
ATOM      5  C10 <0> d           0.002  -0.004   0.002  0.00  0.00     0.052 A 
ATOM      6  C11 <0> d           1.221  -0.662  -0.019  0.00  0.00     0.048 A 
ATOM      7  N2  <0> d          -1.175  -0.748   0.021  0.00  0.00    -0.325 N 
ATOM      8  C12 <0> d          -2.379  -0.325  -0.354  0.00  0.00     0.231 C 
ATOM      9  O4  <0> d          -3.307  -1.104  -0.288  0.00  0.00    -0.272 OA
ATOM     10  C13 <0> d          -2.655   1.066  -0.857  0.00  0.00     0.182 C 
ATOM     11  S1  <0> d          -1.572   2.231   0.022  0.00  0.00    -0.118 SA
ATOM     12  H12 <0> d          -1.111  -1.663   0.337  0.00  0.00     0.169 HD
ENDROOT
BRANCH   1  13
ATOM     13  C5  <0> d           3.706  -0.635  -0.050  0.00  0.00     0.293 C 
ATOM     14  O3  <0> d           3.737  -1.850  -0.060  0.00  0.00    -0.259 OA
BRANCH  13  15
ATOM     15  O2  <0> d           4.856   0.068  -0.059  0.00  0.00    -0.308 OA
BRANCH  15  16
ATOM     16  C4  <0> d           6.093  -0.691  -0.080  0.00  0.00     0.281 C 
BRANCH  16  17
ATOM     17  C3  <0> d           7.265   0.257  -0.087  0.00  0.00     0.243 C 
ATOM     18  N1  <0> d           8.523  -0.226  -0.107  0.00  0.00    -0.359 N 
ATOM     19  C1  <0> d           9.661   0.696  -0.114  0.00  0.00     0.152 C 
ATOM     20  C2  <0> d           8.751  -1.673  -0.122  0.00  0.00     0.152 C 
ATOM     21  O1  <0> d           7.075   1.455  -0.075  0.00  0.00    -0.271 OA
ENDBRANCH  16  17
ENDBRANCH  15  16
ENDBRANCH  13  15
ENDBRANCH   1  13
TORSDOF 4
