REMARK  5 active torsions:
REMARK  status: ('A' for Active; 'I' for Inactive)
REMARK    1  A    between atoms: C6_6  and  O1_8 
REMARK    2  A    between atoms: O1_8  and  C8_9 
REMARK    3  A    between atoms: C8_9  and  C9_10 
REMARK       I    between atoms: C9_10  and  N1_12 
REMARK    4  A    between atoms: N1_12  and  N2_13 
REMARK       I    between atoms: N2_13  and  C10_14 
REMARK    5  A    between atoms: C10_14  and  C11_16 
ROOT
ATOM      1  C9  <0> d          -1.412  -0.526   0.013  0.00  0.00     0.260 C 
ATOM      2  O2  <0> d          -2.344   0.250   0.026  0.00  0.00    -0.269 OA
ATOM      3  N1  <0> d          -1.640  -1.854   0.008  0.00  0.00    -0.265 N 
ATOM      4  H10 <0> d          -0.894  -2.474  -0.003  0.00  0.00     0.190 HD
ENDROOT
BRANCH   3   5
ATOM      5  N2  <0> d          -2.954  -2.339   0.018  0.00  0.00    -0.262 N 
ATOM      6  C10 <0> d          -3.183  -3.667   0.013  0.00  0.00     0.293 C 
ATOM      7  O3  <0> d          -2.247  -4.445  -0.000  0.00  0.00    -0.264 OA
ATOM      8  H11 <0> d          -3.700  -1.719   0.028  0.00  0.00     0.190 HD
BRANCH   6   9
ATOM      9  C11 <0> d          -4.558  -4.175   0.023  0.00  0.00     0.146 A 
ATOM     10  O4  <0> d          -5.679  -3.424   0.044  0.00  0.00    -0.298 OA
ATOM     11  C14 <0> d          -6.751  -4.228   0.045  0.00  0.00     0.122 A 
ATOM     12  C13 <0> d          -6.330  -5.514   0.033  0.00  0.00     0.048 A 
ATOM     13 Br1  <0> d          -8.554  -3.659   0.065  0.00  0.00    -0.023 Br
ATOM     14  C12 <0> d          -4.928  -5.489   0.020  0.00  0.00     0.046 A 
ENDBRANCH   6   9
ENDBRANCH   3   5
BRANCH   1  15
ATOM     15  C8  <0> d           0.002  -0.004   0.002  0.00  0.00     0.280 C 
BRANCH  15  16
ATOM     16  O1  <0> d          -0.017   1.425   0.010  0.00  0.00    -0.342 OA
BRANCH  16  17
ATOM     17  C6  <0> d           1.185   2.058   0.002  0.00  0.00     0.069 A 
ATOM     18  C5  <0> d           2.359   1.320  -0.008  0.00  0.00     0.037 A 
ATOM     19  C4  <0> d           3.580   1.966  -0.021  0.00  0.00     0.003 A 
ATOM     20  C3  <0> d           3.633   3.348  -0.014  0.00  0.00     0.007 A 
ATOM     21  C2  <0> d           2.463   4.086   0.000  0.00  0.00    -0.059 A 
ATOM     22  C1  <0> d           2.524   5.592   0.008  0.00  0.00     0.048 C 
ATOM     23  C7  <0> d           1.240   3.445   0.009  0.00  0.00     0.043 A 
ENDBRANCH  16  17
ENDBRANCH  15  16
ENDBRANCH   1  15
TORSDOF 5
