REMARK  6 active torsions:
REMARK  status: ('A' for Active; 'I' for Inactive)
REMARK    1  A    between atoms: C4_4  and  C7_7 
REMARK    2  A    between atoms: C8_8  and  C9_9 
REMARK    3  A    between atoms: C9_9  and  N1_10 
REMARK    4  A    between atoms: C16_17  and  C18_20 
REMARK    5  A    between atoms: C16_17  and  O3_27 
REMARK    6  A    between atoms: C20_24  and  N3_26 
ROOT
ATOM      1  N1  <0> d           5.087  -3.678   1.063  0.00  0.00    -0.311 N 
ATOM      2  C10 <0> d           5.578  -3.348   2.326  0.00  0.00     0.047 A 
ATOM      3  C11 <0> d           6.102  -2.153   2.816  0.00  0.00     0.030 A 
ATOM      4  C12 <0> d           6.530  -2.070   4.124  0.00  0.00     0.002 A 
ATOM      5  C13 <0> d           6.443  -3.168   4.960  0.00  0.00     0.001 A 
ATOM      6  C14 <0> d           5.923  -4.358   4.481  0.00  0.00     0.013 A 
ATOM      7  C15 <0> d           5.495  -4.444   3.175  0.00  0.00     0.014 A 
ATOM      8  C16 <0> d           4.894  -5.567   2.363  0.00  0.00     0.190 A 
ATOM      9  C17 <0> d           4.663  -4.952   0.999  0.00  0.00     0.266 A 
ATOM     10  O1  <0> d           4.186  -5.505   0.030  0.00  0.00    -0.269 OA
ENDROOT
BRANCH   8  11
ATOM     11  C18 <0> d           5.870  -6.742   2.267  0.00  0.00     0.198 A 
ATOM     12  S1  <0> d           7.439  -6.247   1.442  0.00  0.00    -0.074 SA
ATOM     13  C20 <0> d           7.332  -7.271   0.109  0.00  0.00     0.164 A 
ATOM     14  N2  <0> d           6.205  -7.943   0.260  0.00  0.00    -0.189 NA
ATOM     15  C19 <0> d           5.387  -7.788   1.269  0.00  0.00     0.263 A 
ATOM     16  O2  <0> d           4.351  -8.412   1.397  0.00  0.00    -0.270 OA
BRANCH  13  17
ATOM     17  N3  <0> d           8.226  -7.385  -0.915  0.00  0.00    -0.378 N 
ATOM     18  H15 <0> d           8.062  -8.013  -1.635  0.00  0.00     0.158 HD
ATOM     19  H16 <0> d           9.027  -6.837  -0.922  0.00  0.00     0.158 HD
ENDBRANCH  13  17
ENDBRANCH   8  11
BRANCH   8  20
ATOM     20  O3  <0> d           3.654  -5.990   2.934  0.00  0.00    -0.374 OA
ATOM     21  H17 <0> d           2.988  -5.292   2.990  0.00  0.00     0.211 HD
ENDBRANCH   8  20
BRANCH   1  22
ATOM     22  C9  <0> d           5.033  -2.743  -0.063  0.00  0.00     0.159 C 
BRANCH  22  23
ATOM     23  C8  <0> d           3.716  -2.010  -0.046  0.00  0.00    -0.006 C 
ATOM     24  C7  <0> d           3.695  -0.685  -0.038  0.00  0.00     0.009 C 
BRANCH  24  25
ATOM     25  C4  <0> d           2.403   0.034  -0.021  0.00  0.00    -0.036 A 
ATOM     26  C3  <0> d           2.377   1.429  -0.013  0.00  0.00     0.011 A 
ATOM     27  C2  <0> d           1.168   2.093   0.002  0.00  0.00     0.001 A 
ATOM     28  C1  <0> d          -0.017   1.379   0.010  0.00  0.00     0.000 A 
ATOM     29  C6  <0> d           0.002  -0.004   0.002  0.00  0.00     0.001 A 
ATOM     30  C5  <0> d           1.204  -0.681  -0.013  0.00  0.00     0.011 A 
ENDBRANCH  24  25
ENDBRANCH  22  23
ENDBRANCH   1  22
TORSDOF 6
