REMARK  6 active torsions:
REMARK  status: ('A' for Active; 'I' for Inactive)
REMARK    1  A    between atoms: N1_8  and  C7_9 
REMARK    2  A    between atoms: C7_9  and  C8_10 
REMARK    3  A    between atoms: C8_10  and  N4_30 
REMARK    4  A    between atoms: C11_13  and  C15_20 
REMARK    5  A    between atoms: C13_15  and  N2_17 
REMARK    6  A    between atoms: C18_23  and  O3_26 
ROOT
ATOM      1  C1  <0> d          -7.133   0.662   1.352  0.00  0.00     0.068 C 
ATOM      2  C2  <0> d          -5.855   1.407   1.064  0.00  0.00     0.013 A 
ATOM      3  C3  <0> d          -4.710   0.717   0.874  0.00  0.00     0.063 A 
ATOM      4  C4  <0> d          -3.512   1.409   0.603  0.00  0.00     0.092 A 
ATOM      5  C5  <0> d          -3.536   2.786   0.539  0.00  0.00     0.058 A 
ATOM      6  C6  <0> d          -4.747   3.460   0.744  0.00  0.00     0.258 A 
ATOM      7  O1  <0> d          -4.783   4.679   0.690  0.00  0.00    -0.267 OA
ATOM      8  N1  <0> d          -5.870   2.764   1.000  0.00  0.00    -0.316 N 
ATOM      9  C11 <0> d          -2.281   3.564   0.252  0.00  0.00     0.108 C 
ATOM     10  C12 <0> d          -1.074   2.695   0.468  0.00  0.00     0.086 C 
ATOM     11  C13 <0> d          -1.181   1.347   0.529  0.00  0.00     0.159 C 
ATOM     12  O2  <0> d          -2.366   0.722   0.412  0.00  0.00    -0.292 OA
ATOM     13  C14 <0> d           0.215   3.304   0.606  0.00  0.00     0.100 C 
ATOM     14  N3  <0> d           1.237   3.787   0.715  0.00  0.00    -0.191 NA
ENDROOT
BRANCH   9  15
ATOM     15  C15 <0> d          -2.307   4.045  -1.176  0.00  0.00    -0.044 A 
ATOM     16  C20 <0> d          -2.258   5.400  -1.449  0.00  0.00     0.011 A 
ATOM     17  C19 <0> d          -2.282   5.844  -2.757  0.00  0.00     0.037 A 
ATOM     18  C18 <0> d          -2.355   4.929  -3.797  0.00  0.00     0.065 A 
ATOM     19  C17 <0> d          -2.405   3.570  -3.521  0.00  0.00     0.037 A 
ATOM     20  C16 <0> d          -2.375   3.131  -2.211  0.00  0.00     0.011 A 
BRANCH  18  21
ATOM     21  O3  <0> d          -2.378   5.363  -5.085  0.00  0.00    -0.361 OA
ATOM     22  H22 <0> d          -1.502   5.450  -5.486  0.00  0.00     0.217 HD
ENDBRANCH  18  21
ENDBRANCH   9  15
BRANCH  11  23
ATOM     23  N2  <0> d          -0.048   0.596   0.721  0.00  0.00    -0.379 N 
ATOM     24  H16 <0> d          -0.109  -0.371   0.771  0.00  0.00     0.158 HD
ATOM     25  H17 <0> d           0.814   1.032   0.803  0.00  0.00     0.158 HD
ENDBRANCH  11  23
BRANCH   8  26
ATOM     26  C7  <0> d          -7.130   3.482   1.211  0.00  0.00     0.160 C 
BRANCH  26  27
ATOM     27  C8  <0> d          -7.273   3.836   2.693  0.00  0.00     0.254 C 
BRANCH  27  28
ATOM     28  N4  <0> d          -8.557   4.540   2.893  0.00  0.00    -0.077 N 
ATOM     29  C9  <0> d          -8.823   4.704   4.338  0.00  0.00     0.269 C 
ATOM     30  C10 <0> d          -8.517   5.862   2.233  0.00  0.00     0.269 C 
ATOM     31  H23 <0> d          -9.312   3.982   2.476  0.00  0.00     0.279 HD
ENDBRANCH  27  28
ENDBRANCH  26  27
ENDBRANCH   8  26
TORSDOF 6
