REMARK  2 active torsions:
REMARK  status: ('A' for Active; 'I' for Inactive)
REMARK    1  A    between atoms: C5_7  and  C8_12 
REMARK    2  A    between atoms: C7_10  and  N4_11 
ROOT
ATOM      1  C1  <0> d           0.633   1.476  -0.035  0.00  0.00     0.050 C 
ATOM      2  C2  <0> d           0.487  -0.024  -0.032  0.00  0.00    -0.031 A 
ATOM      3  C3  <0> d           0.264  -0.691  -1.196  0.00  0.00     0.062 A 
ATOM      4  C4  <0> d           0.130  -2.092  -1.174  0.00  0.00     0.158 A 
ATOM      5  N1  <0> d          -0.086  -2.998  -2.118  0.00  0.00    -0.130 NA
ATOM      6  N2  <0> d          -0.129  -4.171  -1.591  0.00  0.00    -0.129 NA
ATOM      7  C5  <0> d           0.056  -4.090  -0.288  0.00  0.00     0.168 A 
ATOM      8  N3  <0> d           0.227  -2.767   0.017  0.00  0.00    -0.285 N 
ATOM      9  C6  <0> d           0.451  -2.092   1.181  0.00  0.00     0.130 A 
ATOM     10  C7  <0> d           0.588  -0.743   1.177  0.00  0.00     0.048 A 
ENDROOT
BRANCH   7  11
ATOM     11  C8  <0> d           0.075  -5.219   0.665  0.00  0.00     0.013 A 
ATOM     12  C13 <0> d           0.299  -6.519   0.209  0.00  0.00     0.034 A 
ATOM     13  C12 <0> d           0.322  -7.568   1.106  0.00  0.00     0.011 A 
ATOM     14  C11 <0> d           0.111  -7.333   2.454  0.00  0.00     0.019 A 
ATOM     15 Br1  <0> d           0.633  -9.329   0.492  0.00  0.00    -0.051 Br
ATOM     16  C10 <0> d          -0.118  -6.048   2.912  0.00  0.00     0.002 A 
ATOM     17  C9  <0> d          -0.137  -4.990   2.027  0.00  0.00     0.015 A 
ENDBRANCH   7  11
BRANCH  10  18
ATOM     18  N4  <0> d           0.823  -0.061   2.377  0.00  0.00    -0.398 N 
ATOM     19  H6  <0> d           0.917   0.905   2.376  0.00  0.00     0.156 HD
ATOM     20  H7  <0> d           0.893  -0.554   3.210  0.00  0.00     0.156 HD
ENDBRANCH  10  18
TORSDOF 2
