REMARK  8 active torsions:
REMARK  status: ('A' for Active; 'I' for Inactive)
REMARK    1  A    between atoms: O1_2  and  C2_3 
REMARK    2  A    between atoms: C2_3  and  C3_4 
REMARK    3  A    between atoms: C3_4  and  N1_5 
REMARK    4  A    between atoms: N1_5  and  S1_6 
REMARK    5  A    between atoms: S1_6  and  C4_9 
REMARK    6  A    between atoms: C7_12  and  C10_16 
REMARK    7  A    between atoms: C11_17  and  C12_18 
REMARK    8  A    between atoms: C12_18  and  N2_19 
ROOT
ATOM      1  C4  <0> d           0.350  -5.062   0.476  0.00  0.00     0.122 A 
ATOM      2  C5  <0> d          -0.290  -5.556  -0.648  0.00  0.00     0.060 A 
ATOM      3  C6  <0> d           0.422  -6.262  -1.597  0.00  0.00     0.046 A 
ATOM      4  C7  <0> d           1.790  -6.477  -1.422  0.00  0.00     0.021 A 
ATOM      5  C8  <0> d           2.429  -5.976  -0.287  0.00  0.00     0.046 A 
ATOM      6  C9  <0> d           1.707  -5.268   0.653  0.00  0.00     0.060 A 
ATOM      7 Cl1  <0> d           2.503  -4.638   2.062  0.00  0.00    -0.083 Cl
ATOM      8 Cl2  <0> d          -1.992  -5.287  -0.864  0.00  0.00    -0.083 Cl
ENDROOT
BRANCH   1   9
ATOM      9  S1  <0> d          -0.566  -4.162   1.683  0.00  0.00     0.262 S 
ATOM     10  O2  <0> d           0.154  -4.271   2.903  0.00  0.00    -0.200 OA
ATOM     11  O3  <0> d          -1.919  -4.575   1.557  0.00  0.00    -0.200 OA
BRANCH   9  12
ATOM     12  N1  <0> d          -0.515  -2.565   1.245  0.00  0.00    -0.313 N 
ATOM     13  H8  <0> d          -0.064  -1.921   1.812  0.00  0.00     0.172 HD
BRANCH  12  14
ATOM     14  C3  <0> d          -1.154  -2.126   0.002  0.00  0.00     0.158 C 
BRANCH  14  15
ATOM     15  C2  <0> d          -1.295  -0.603   0.011  0.00  0.00     0.187 C 
BRANCH  15  16
ATOM     16  O1  <0> d           0.002  -0.004   0.002  0.00  0.00    -0.394 OA
ATOM     17  C1  <0> d          -0.017   1.425   0.010  0.00  0.00     0.201 C 
ENDBRANCH  15  16
ENDBRANCH  14  15
ENDBRANCH  12  14
ENDBRANCH   9  12
ENDBRANCH   1   9
BRANCH   4  18
ATOM     18  C10 <0> d           2.533  -7.209  -2.402  0.00  0.00    -0.065 C 
ATOM     19  C11 <0> d           3.143  -7.809  -3.206  0.00  0.00    -0.074 C 
BRANCH  19  20
ATOM     20  C12 <0> d           3.908  -8.562  -4.214  0.00  0.00     0.323 C 
BRANCH  20  21
ATOM     21  N2  <0> d           5.314  -8.648  -3.797  0.00  0.00    -0.069 N 
ATOM     22  H13 <0> d           5.697  -7.718  -3.710  0.00  0.00     0.275 HD
ATOM     23  H14 <0> d           5.373  -9.121  -2.908  0.00  0.00     0.275 HD
ATOM     24  H15 <0> d           5.838  -9.164  -4.488  0.00  0.00     0.275 HD
ENDBRANCH  20  21
ENDBRANCH  19  20
ENDBRANCH   4  18
TORSDOF 8
