REMARK  5 active torsions:
REMARK  status: ('A' for Active; 'I' for Inactive)
REMARK    1  A    between atoms: C3_3  and  C9_11 
REMARK    2  A    between atoms: C9_11  and  N3_12 
REMARK       I    between atoms: N3_12  and  C11_14 
REMARK    3  A    between atoms: C11_14  and  C12_16 
REMARK    4  A    between atoms: C12_16  and  C13_17 
REMARK    5  A    between atoms: N5_23  and  C17_24 
ROOT
ATOM      1  N3  <0> d           5.565   2.506   1.569  0.00  0.00    -0.351 N 
ATOM      2  C10 <0> d           5.159   3.452   2.611  0.00  0.00     0.153 C 
ATOM      3  C11 <0> d           4.647   2.009   0.716  0.00  0.00     0.222 C 
ATOM      4  O1  <0> d           4.982   1.225  -0.147  0.00  0.00    -0.273 OA
ENDROOT
BRANCH   3   5
ATOM      5  C12 <0> d           3.204   2.426   0.835  0.00  0.00     0.146 C 
BRANCH   5   6
ATOM      6  C13 <0> d           2.357   1.619  -0.151  0.00  0.00     0.288 C 
ATOM      7  N5  <0> d           2.848   1.847  -1.516  0.00  0.00    -0.052 N 
ATOM      8  C16 <0> d           2.201   0.913  -2.451  0.00  0.00     0.256 C 
ATOM      9  H30 <0> d           3.933   1.663  -1.530  0.00  0.00     0.281 HD
ATOM     10  C15 <0> d           2.709  -0.501  -2.162  0.00  0.00     0.150 C 
ATOM     11  N4  <0> d           2.592  -0.793  -0.737  0.00  0.00    -0.358 N 
ATOM     12  C14 <0> d           2.449   0.159   0.191  0.00  0.00     0.249 C 
ATOM     13  H16 <0> d           2.621  -1.835  -0.384  0.00  0.00     0.162 HD
ATOM     14  O2  <0> d           2.390  -0.170   1.357  0.00  0.00    -0.271 OA
BRANCH   7  15
ATOM     15  C17 <0> d           2.630   3.240  -1.929  0.00  0.00     0.189 C 
ATOM     16  C21 <0> d           3.271   3.489  -3.306  0.00  0.00     0.033 C 
ATOM     17  C20 <0> d           2.128   3.904  -4.255  0.00  0.00     0.002 C 
ATOM     18  C19 <0> d           1.034   4.462  -3.311  0.00  0.00     0.002 C 
ATOM     19  C18 <0> d           1.120   3.513  -2.090  0.00  0.00     0.033 C 
ENDBRANCH   7  15
ENDBRANCH   5   6
ENDBRANCH   3   5
BRANCH   1  20
ATOM     20  C9  <0> d           6.968   2.100   1.453  0.00  0.00     0.185 C 
BRANCH  20  21
ATOM     21  C3  <0> d           7.689   3.043   0.525  0.00  0.00     0.060 A 
ATOM     22  C2  <0> d           7.818   2.908  -0.813  0.00  0.00     0.057 A 
ATOM     23  C1  <0> d           7.261   1.778  -1.641  0.00  0.00     0.072 C 
ATOM     24  N2  <0> d           8.521   3.942  -1.280  0.00  0.00    -0.234 NA
ATOM     25  C8  <0> d           8.846   4.739  -0.272  0.00  0.00     0.134 A 
ATOM     26  N1  <0> d           8.329   4.199   0.878  0.00  0.00    -0.307 N 
ATOM     27  C7  <0> d           9.570   5.946  -0.211  0.00  0.00     0.051 A 
ATOM     28  C4  <0> d           8.522   4.818   2.079  0.00  0.00     0.099 A 
ATOM     29  C5  <0> d           9.213   5.975   2.153  0.00  0.00     0.018 A 
ATOM     30  C6  <0> d           9.750   6.555   0.992  0.00  0.00     0.005 A 
ENDBRANCH  20  21
ENDBRANCH   1  20
TORSDOF 5
