REMARK  4 active torsions:
REMARK  status: ('A' for Active; 'I' for Inactive)
REMARK    1  A    between atoms: N1_5  and  C5_7 
REMARK    2  A    between atoms: C8_10  and  N3_13 
REMARK    3  A    between atoms: C13_16  and  N4_19 
REMARK    4  A    between atoms: C18_22  and  N5_24 
ROOT
ATOM      1  N3  <0> d           0.677  -6.491   4.013  0.00  0.00    -0.381 N 
ATOM      2  C11 <0> d           0.236  -7.824   3.580  0.00  0.00     0.125 C 
ATOM      3  C12 <0> d           1.400  -8.807   3.748  0.00  0.00     0.053 C 
ATOM      4  C13 <0> d           1.906  -8.750   5.191  0.00  0.00     0.191 C 
ATOM      5  C14 <0> d           2.416  -7.340   5.500  0.00  0.00     0.053 C 
ATOM      6  C15 <0> d           1.270  -6.343   5.350  0.00  0.00     0.125 C 
ENDROOT
BRANCH   1   7
ATOM      7  C8  <0> d           0.540  -5.386   3.168  0.00  0.00     0.030 A 
ATOM      8  C7  <0> d           1.073  -4.158   3.538  0.00  0.00     0.031 A 
ATOM      9  C6  <0> d           0.938  -3.067   2.703  0.00  0.00     0.034 A 
ATOM     10  C5  <0> d           0.270  -3.198   1.493  0.00  0.00     0.058 A 
ATOM     11  C10 <0> d          -0.268  -4.424   1.125  0.00  0.00     0.034 A 
ATOM     12  C9  <0> d          -0.129  -5.516   1.957  0.00  0.00     0.031 A 
BRANCH  10  13
ATOM     13  N1  <0> d           0.133  -2.089   0.644  0.00  0.00    -0.238 N 
ATOM     14  C4  <0> d           1.094  -1.182   0.358  0.00  0.00     0.035 A 
ATOM     15  C3  <0> d           0.564  -0.275  -0.495  0.00  0.00     0.055 A 
ATOM     16  C20 <0> d           2.503  -1.182   0.893  0.00  0.00     0.070 C 
ATOM     17  C2  <0> d          -0.764  -0.639  -0.739  0.00  0.00     0.053 A 
ATOM     18  C1  <0> d          -1.730   0.095  -1.634  0.00  0.00     0.072 C 
ATOM     19  N2  <0> d          -1.026  -1.722  -0.052  0.00  0.00    -0.172 NA
ENDBRANCH  10  13
ENDBRANCH   1   7
BRANCH   4  20
ATOM     20  N4  <0> d           3.000  -9.715   5.364  0.00  0.00    -0.065 N 
ATOM     21  C19 <0> d           3.491  -9.664   6.753  0.00  0.00     0.270 C 
ATOM     22  C18 <0> d           3.313 -11.075   7.353  0.00  0.00     0.245 C 
ATOM     23  C17 <0> d           3.260 -11.984   6.097  0.00  0.00     0.064 C 
ATOM     24  C16 <0> d           2.507 -11.081   5.089  0.00  0.00     0.237 C 
ATOM     25  H30 <0> d           3.753  -9.493   4.729  0.00  0.00     0.280 HD
BRANCH  22  26
ATOM     26  N5  <0> d           4.457 -11.430   8.203  0.00  0.00     0.084 N 
ATOM     27  H25 <0> d           4.381 -12.381   8.533  0.00  0.00     0.313 HD
ATOM     28  H26 <0> d           5.329 -11.285   7.716  0.00  0.00     0.313 HD
ENDBRANCH  22  26
ENDBRANCH   4  20
TORSDOF 4
