REMARK  3 active torsions:
REMARK  status: ('A' for Active; 'I' for Inactive)
REMARK    1  A    between atoms: C2_2  and  C3_3 
REMARK    2  A    between atoms: C3_3  and  C7_8 
REMARK       I    between atoms: C7_8  and  N2_10 
REMARK    3  A    between atoms: N2_10  and  C8_11 
ROOT
ATOM      1  C7  <0> d           0.207  -0.059  -2.486  0.00  0.00     0.228 C 
ATOM      2  O1  <0> d          -0.323  -0.809  -3.279  0.00  0.00    -0.273 OA
ATOM      3  N2  <0> d           0.314   1.255  -2.769  0.00  0.00    -0.352 N 
ATOM      4  H14 <0> d           0.678   1.865  -2.109  0.00  0.00     0.163 HD
ENDROOT
BRANCH   1   5
ATOM      5  C3  <0> d           0.746  -0.596  -1.185  0.00  0.00     0.066 C 
ATOM      6  C6  <0> d           0.680  -2.137  -1.162  0.00  0.00     0.251 C 
ATOM      7  N1  <0> d           2.006  -2.637  -1.572  0.00  0.00    -0.074 N 
ATOM      8  C5  <0> d           2.875  -1.479  -1.869  0.00  0.00     0.233 C 
ATOM      9  H11 <0> d           1.912  -3.211  -2.397  0.00  0.00     0.277 HD
ATOM     10  H23 <0> d           2.409  -3.182  -0.825  0.00  0.00     0.277 HD
ATOM     11  C4  <0> d           2.265  -0.309  -1.057  0.00  0.00     0.048 C 
BRANCH   5  12
ATOM     12  C2  <0> d          -0.018  -0.004   0.000  0.00  0.00     0.016 C 
ATOM     13  C1  <0> d          -1.475  -0.469  -0.049  0.00  0.00     0.006 C 
ENDBRANCH   5  12
ENDBRANCH   1   5
BRANCH   3  14
ATOM     14  C8  <0> d          -0.119   1.760  -4.074  0.00  0.00     0.120 C 
ATOM     15  C13 <0> d          -1.597   2.050  -4.040  0.00  0.00    -0.004 A 
ATOM     16  C12 <0> d          -2.172   3.157  -4.556  0.00  0.00     0.061 A 
ATOM     17  C14 <0> d          -2.627   1.264  -3.492  0.00  0.00     0.036 A 
ATOM     18  C11 <0> d          -1.406   4.260  -5.244  0.00  0.00     0.066 C 
ATOM     19  O2  <0> d          -3.491   3.082  -4.345  0.00  0.00    -0.326 OA
ATOM     20  C10 <0> d          -0.018   3.727  -5.618  0.00  0.00     0.009 C 
ATOM     21  C9  <0> d           0.622   3.064  -4.395  0.00  0.00     0.030 C 
ATOM     22  C15 <0> d          -3.777   1.934  -3.701  0.00  0.00     0.142 A 
ENDBRANCH   3  14
TORSDOF 3
