REMARK  4 active torsions:
REMARK  status: ('A' for Active; 'I' for Inactive)
REMARK    1  A    between atoms: N1_4  and  S1_8 
REMARK    2  A    between atoms: S1_8  and  C6_11 
REMARK    3  A    between atoms: C6_11  and  C7_12 
REMARK    4  A    between atoms: C12_17  and  C13_18 
ROOT
ATOM      1  C6  <0> d           2.271  -3.033  -3.617  0.00  0.00     0.202 C 
ENDROOT
BRANCH   1   2
ATOM      2  S1  <0> d           1.125  -3.075  -2.212  0.00  0.00     0.232 S 
ATOM      3  O2  <0> d           1.185  -4.341  -1.569  0.00  0.00    -0.205 OA
ATOM      4  O3  <0> d          -0.125  -2.510  -2.583  0.00  0.00    -0.205 OA
BRANCH   2   5
ATOM      5  N1  <0> d           1.760  -2.012  -1.112  0.00  0.00    -0.306 N 
ATOM      6  C3  <0> d           1.381  -0.590  -1.127  0.00  0.00     0.172 C 
ATOM      7  C2  <0> d           0.964  -0.186   0.291  0.00  0.00     0.070 C 
ATOM      8  C1  <0> d           0.751   1.328   0.350  0.00  0.00     0.047 C 
ATOM      9  O1  <0> d           1.994  -0.559   1.210  0.00  0.00    -0.378 OA
ATOM     10  C14 <0> d          -0.337  -0.900   0.666  0.00  0.00     0.047 C 
ATOM     11  C5  <0> d           2.237  -1.967   1.277  0.00  0.00     0.189 C 
ATOM     12  C4  <0> d           2.719  -2.462  -0.091  0.00  0.00     0.161 C 
ENDBRANCH   2   5
ENDBRANCH   1   2
BRANCH   1  13
ATOM     13  C7  <0> d           1.786  -3.974  -4.690  0.00  0.00    -0.029 A 
ATOM     14  C12 <0> d           1.016  -3.489  -5.749  0.00  0.00     0.009 A 
ATOM     15  C11 <0> d           0.575  -4.367  -6.742  0.00  0.00     0.015 A 
ATOM     16  C10 <0> d           0.893  -5.707  -6.664  0.00  0.00     0.001 A 
ATOM     17  C9  <0> d           1.651  -6.181  -5.608  0.00  0.00     0.001 A 
ATOM     18  C8  <0> d           2.096  -5.316  -4.624  0.00  0.00     0.009 A 
BRANCH  14  19
ATOM     19  C13 <0> d           0.675  -2.055  -5.824  0.00  0.00     0.105 C 
ATOM     20  S2  <0> d           1.765  -0.953  -6.552  0.00  0.00    -0.060 SA
ATOM     21  N2  <0> d          -0.493  -1.613  -5.318  0.00  0.00    -0.390 N 
ATOM     22  H16 <0> d          -1.110  -2.237  -4.905  0.00  0.00     0.157 HD
ATOM     23  H17 <0> d          -0.717  -0.670  -5.367  0.00  0.00     0.157 HD
ENDBRANCH  14  19
ENDBRANCH   1  13
TORSDOF 4
