REMARK  5 active torsions:
REMARK  status: ('A' for Active; 'I' for Inactive)
REMARK    1  A    between atoms: C2_2  and  C11_15 
REMARK    2  A    between atoms: C3_3  and  C4_4 
REMARK    3  A    between atoms: C3_3  and  N1_10 
REMARK    4  A    between atoms: C4_4  and  C5_5 
REMARK    5  A    between atoms: C4_4  and  O1_9 
ROOT
ATOM      1  C1  <0> d          -0.560  -0.010   0.227  0.00  0.00     0.051 C 
ATOM      2  C2  <0> d          -0.683   1.482   0.396  0.00  0.00    -0.024 C 
ATOM      3  C3  <0> d          -1.879   2.033   0.615  0.00  0.00     0.073 C 
ENDROOT
BRANCH   3   4
ATOM      4  C4  <0> d          -3.091   1.156   0.793  0.00  0.00     0.178 C 
BRANCH   4   5
ATOM      5  C5  <0> d          -3.597   1.272   2.232  0.00  0.00    -0.020 C 
ATOM      6  C6  <0> d          -4.101   2.695   2.482  0.00  0.00     0.017 C 
ATOM      7  C7  <0> d          -4.741   0.280   2.452  0.00  0.00     0.017 C 
ATOM      8  C8  <0> d          -2.456   0.958   3.201  0.00  0.00     0.017 C 
ENDBRANCH   4   5
BRANCH   4   9
ATOM      9  O1  <0> d          -4.118   1.573  -0.108  0.00  0.00    -0.389 OA
ATOM     10  H14 <0> d          -5.084   1.048  -0.123  0.00  0.00     0.210 HD
ENDBRANCH   4   9
ENDBRANCH   3   4
BRANCH   3  11
ATOM     11  N1  <0> d          -2.006   3.417   0.678  0.00  0.00    -0.227 N 
ATOM     12  N3  <0> d          -1.401   4.277   1.609  0.00  0.00    -0.160 NA
ATOM     13  C10 <0> d          -1.783   5.491   1.307  0.00  0.00     0.256 A 
ATOM     14  N2  <0> d          -2.596   5.440   0.253  0.00  0.00    -0.233 NA
ATOM     15  C9  <0> d          -2.741   4.200  -0.138  0.00  0.00     0.236 A 
ENDBRANCH   3  11
BRANCH   2  16
ATOM     16  C11 <0> d           0.518   2.336   0.312  0.00  0.00    -0.028 A 
ATOM     17  C16 <0> d           1.491   2.277   1.313  0.00  0.00     0.013 A 
ATOM     18  C15 <0> d           2.612   3.077   1.229  0.00  0.00     0.024 A 
ATOM     19  C14 <0> d           2.773   3.937   0.157  0.00  0.00     0.034 A 
ATOM     20  C13 <0> d           1.812   4.001  -0.838  0.00  0.00     0.024 A 
ATOM     21 Cl1  <0> d           4.186   4.941   0.059  0.00  0.00    -0.084 Cl
ATOM     22  C12 <0> d           0.690   3.202  -0.770  0.00  0.00     0.013 A 
ENDBRANCH   2  16
TORSDOF 5
