REMARK  8 active torsions:
REMARK  status: ('A' for Active; 'I' for Inactive)
REMARK    1  A    between atoms: C2_2  and  C3_3 
REMARK    2  A    between atoms: C3_3  and  C4_4 
REMARK    3  A    between atoms: C4_4  and  N1_5 
REMARK    4  A    between atoms: C12_16  and  N3_26 
REMARK    5  A    between atoms: C15_19  and  C16_20 
REMARK    6  A    between atoms: C15_19  and  N3_26 
REMARK    7  A    between atoms: C16_20  and  C19_23 
REMARK    8  A    between atoms: C19_23  and  O2_24 
ROOT
ATOM      1  N1  <0> d           3.547  -1.814  -4.363  0.00  0.00    -0.308 N 
ATOM      2  C5  <0> d           4.655  -1.045  -4.484  0.00  0.00     0.213 A 
ATOM      3  N2  <0> d           4.856   0.041  -3.770  0.00  0.00    -0.235 NA
ATOM      4  C6  <0> d           3.913   0.380  -2.896  0.00  0.00     0.115 A 
ATOM      5  C7  <0> d           2.724  -0.356  -2.696  0.00  0.00     0.075 A 
ATOM      6  C8  <0> d           2.545  -1.535  -3.495  0.00  0.00     0.262 A 
ATOM      7  O1  <0> d           1.555  -2.239  -3.400  0.00  0.00    -0.267 OA
ATOM      8  C9  <0> d           1.808   0.165  -1.697  0.00  0.00    -0.026 A 
ATOM      9  C10 <0> d           2.185   1.300  -1.062  0.00  0.00    -0.006 A 
ATOM     10  S1  <0> d           3.762   1.721  -1.758  0.00  0.00    -0.073 SA
ATOM     11  C11 <0> d           1.429   2.038  -0.001  0.00  0.00     0.080 C 
ATOM     12  C12 <0> d          -0.019   1.527   0.010  0.00  0.00     0.191 C 
ATOM     13  C13 <0> d           0.002  -0.004   0.002  0.00  0.00     0.038 C 
ATOM     14  C14 <0> d           0.481  -0.509  -1.359  0.00  0.00     0.043 C 
ENDROOT
BRANCH  12  15
ATOM     15  N3  <0> d          -0.701   1.999   1.230  0.00  0.00    -0.070 N 
ATOM     16  H29 <0> d          -0.027   2.033   2.004  0.00  0.00     0.277 HD
ATOM     17  H30 <0> d          -1.460   1.349   1.466  0.00  0.00     0.277 HD
BRANCH  15  18
ATOM     18  C15 <0> d          -1.263   3.345   1.014  0.00  0.00     0.243 C 
BRANCH  18  19
ATOM     19  C16 <0> d          -1.964   3.807   2.294  0.00  0.00    -0.003 C 
ATOM     20  C17 <0> d          -3.089   2.830   2.641  0.00  0.00     0.019 C 
ATOM     21  C18 <0> d          -0.953   3.850   3.442  0.00  0.00     0.019 C 
BRANCH  19  22
ATOM     22  C19 <0> d          -2.550   5.204   2.079  0.00  0.00     0.174 C 
BRANCH  22  23
ATOM     23  O2  <0> d          -3.204   5.636   3.274  0.00  0.00    -0.400 OA
ATOM     24  H28 <0> d          -3.600   6.516   3.210  0.00  0.00     0.209 HD
ENDBRANCH  22  23
ENDBRANCH  19  22
ENDBRANCH  18  19
ENDBRANCH  15  18
ENDBRANCH  12  15
BRANCH   1  25
ATOM     25  C4  <0> d           3.426  -3.003  -5.209  0.00  0.00     0.133 C 
BRANCH  25  26
ATOM     26  C3  <0> d           2.726  -2.630  -6.518  0.00  0.00     0.020 C 
BRANCH  26  27
ATOM     27  C2  <0> d           2.600  -3.872  -7.402  0.00  0.00    -0.003 C 
ATOM     28  C1  <0> d           1.901  -3.498  -8.710  0.00  0.00     0.005 C 
ENDBRANCH  26  27
ENDBRANCH  25  26
ENDBRANCH   1  25
TORSDOF 8
