REMARK  5 active torsions:
REMARK  status: ('A' for Active; 'I' for Inactive)
REMARK    1  A    between atoms: N1_11  and  C18_26 
REMARK    2  A    between atoms: C9_12  and  N3_14 
REMARK    3  A    between atoms: N4_17  and  C14_20 
REMARK    4  A    between atoms: C14_20  and  C15_21 
REMARK       I    between atoms: C15_21  and  N5_23 
REMARK    5  A    between atoms: C18_26  and  C19_27 
REMARK       I    between atoms: C19_27  and  N6_29 
ROOT
ATOM      1  C1  <0> d          -0.026   1.595   0.053  0.00  0.00     0.046 C 
ATOM      2  C2  <0> d           0.053   0.069   0.134  0.00  0.00     0.058 C 
ATOM      3  C3  <0> d          -1.362  -0.514   0.117  0.00  0.00     0.078 C 
ATOM      4  C4  <0> d          -2.038  -0.159   1.439  0.00  0.00    -0.021 A 
ATOM      5  C5  <0> d          -1.278   0.226   2.492  0.00  0.00     0.016 A 
ATOM      6  S1  <0> d          -2.427   0.541   3.804  0.00  0.00    -0.071 SA
ATOM      7  C6  <0> d          -3.920   0.158   2.943  0.00  0.00     0.133 A 
ATOM      8  C7  <0> d          -3.473  -0.206   1.651  0.00  0.00     0.076 A 
ATOM      9  C8  <0> d          -4.472  -0.580   0.695  0.00  0.00     0.276 A 
ATOM     10  O1  <0> d          -4.187  -0.910  -0.443  0.00  0.00    -0.266 OA
ATOM     11  N1  <0> d          -5.753  -0.545   1.133  0.00  0.00    -0.136 N 
ATOM     12  C9  <0> d          -6.093  -0.180   2.399  0.00  0.00     0.709 A 
ATOM     13  N2  <0> d          -5.196   0.171   3.309  0.00  0.00    -0.056 NA
ATOM     14  C20 <0> d           0.214   0.348   2.508  0.00  0.00     0.215 C 
ATOM     15  O4  <0> d           0.726  -0.308   1.338  0.00  0.00    -0.376 OA
ATOM     16  C21 <0> d           0.833  -0.462  -1.071  0.00  0.00     0.046 C 
ENDROOT
BRANCH  12  17
ATOM     17  N3  <0> d          -7.421  -0.176   2.748  0.00  0.00    -0.212 N 
ATOM     18  C13 <0> d          -8.250   1.022   2.553  0.00  0.00     0.169 C 
ATOM     19  C12 <0> d          -8.986   1.327   3.857  0.00  0.00     0.256 C 
ATOM     20  N4  <0> d          -9.730   0.138   4.290  0.00  0.00    -0.060 N 
ATOM     21  C11 <0> d          -8.796  -0.949   4.606  0.00  0.00     0.256 C 
ATOM     22  H31 <0> d         -10.350  -0.157   3.550  0.00  0.00     0.280 HD
ATOM     23  C10 <0> d          -8.052  -1.369   3.334  0.00  0.00     0.169 C 
BRANCH  20  24
ATOM     24  C14 <0> d         -10.520   0.465   5.484  0.00  0.00     0.337 C 
BRANCH  24  25
ATOM     25  C15 <0> d         -11.563   1.494   5.131  0.00  0.00     0.245 C 
ATOM     26  O2  <0> d         -11.640   1.914   3.996  0.00  0.00    -0.272 OA
ATOM     27  N5  <0> d         -12.409   1.948   6.076  0.00  0.00    -0.359 N 
ATOM     28  C16 <0> d         -13.423   2.949   5.733  0.00  0.00     0.152 C 
ATOM     29  C17 <0> d         -12.316   1.441   7.448  0.00  0.00     0.152 C 
ENDBRANCH  24  25
ENDBRANCH  20  24
ENDBRANCH  12  17
BRANCH  11  30
ATOM     30  C18 <0> d          -6.821  -0.915   0.201  0.00  0.00     0.253 C 
BRANCH  30  31
ATOM     31  C19 <0> d          -7.014  -2.410   0.228  0.00  0.00     0.234 C 
ATOM     32  O3  <0> d          -6.328  -3.097   0.954  0.00  0.00    -0.272 OA
ATOM     33  N6  <0> d          -7.950  -2.982  -0.555  0.00  0.00    -0.369 N 
ATOM     34  H24 <0> d          -8.499  -2.432  -1.135  0.00  0.00     0.159 HD
ATOM     35  H25 <0> d          -8.075  -3.944  -0.538  0.00  0.00     0.159 HD
ENDBRANCH  30  31
ENDBRANCH  11  30
TORSDOF 5
