REMARK  8 active torsions:
REMARK  status: ('A' for Active; 'I' for Inactive)
REMARK    1  A    between atoms: C2_2  and  C3_3 
REMARK    2  A    between atoms: C3_3  and  C4_4 
REMARK    3  A    between atoms: C4_4  and  C5_5 
REMARK    4  A    between atoms: C5_5  and  N1_6 
REMARK       I    between atoms: N1_6  and  C6_7 
REMARK    5  A    between atoms: C6_7  and  C7_9 
REMARK    6  A    between atoms: N4_22  and  C18_25 
REMARK    7  A    between atoms: C17_23  and  N5_24 
REMARK    8  A    between atoms: C18_25  and  C20_27 
ROOT
ATOM      1  C7  <0> d           0.535  -7.003   5.384  0.00  0.00     0.076 A 
ATOM      2  C8  <0> d          -0.116  -7.597   4.301  0.00  0.00     0.042 A 
ATOM      3  C9  <0> d           0.568  -8.573   3.582  0.00  0.00     0.080 A 
ATOM      4  C10 <0> d           1.889  -8.935   3.961  0.00  0.00     0.150 A 
ATOM      5  N2  <0> d           2.529  -9.874   3.258  0.00  0.00    -0.212 NA
ATOM      6  C11 <0> d           1.971 -10.481   2.217  0.00  0.00     0.139 A 
ATOM      7  C12 <0> d           2.718 -11.463   1.530  0.00  0.00     0.051 A 
ATOM      8  C13 <0> d           2.170 -12.100   0.460  0.00  0.00     0.005 A 
ATOM      9  C14 <0> d           0.868 -11.773   0.051  0.00  0.00     0.018 A 
ATOM     10  C15 <0> d           0.165 -10.832   0.716  0.00  0.00     0.102 A 
ATOM     11  N3  <0> d           0.703 -10.187   1.792  0.00  0.00    -0.273 N 
ATOM     12  C16 <0> d          -0.034  -9.250   2.432  0.00  0.00     0.267 A 
ATOM     13  O2  <0> d          -1.163  -8.978   2.064  0.00  0.00    -0.267 OA
ATOM     14  N4  <0> d           2.471  -8.339   5.005  0.00  0.00    -0.307 N 
ATOM     15  C17 <0> d           1.851  -7.407   5.703  0.00  0.00     0.119 A 
ENDROOT
BRANCH   1  16
ATOM     16  C6  <0> d          -0.139  -5.966   6.181  0.00  0.00     0.255 C 
ATOM     17  N1  <0> d          -1.311  -5.449   5.762  0.00  0.00    -0.357 N 
ATOM     18  H13 <0> d          -1.710  -5.762   4.935  0.00  0.00     0.162 HD
ATOM     19  O1  <0> d           0.362  -5.574   7.218  0.00  0.00    -0.268 OA
BRANCH  17  20
ATOM     20  C5  <0> d          -1.982  -4.417   6.555  0.00  0.00     0.123 C 
BRANCH  20  21
ATOM     21  C4  <0> d          -3.283  -4.006   5.862  0.00  0.00     0.020 C 
BRANCH  21  22
ATOM     22  C3  <0> d          -3.983  -2.928   6.691  0.00  0.00     0.001 C 
BRANCH  22  23
ATOM     23  C2  <0> d          -5.284  -2.517   5.998  0.00  0.00    -0.004 C 
ATOM     24  C1  <0> d          -5.985  -1.438   6.826  0.00  0.00     0.005 C 
ENDBRANCH  22  23
ENDBRANCH  21  22
ENDBRANCH  20  21
ENDBRANCH  17  20
ENDBRANCH   1  16
BRANCH  15  25
ATOM     25  N5  <0> d           2.499  -6.818   6.768  0.00  0.00    -0.384 N 
ATOM     26  H19 <0> d           3.139  -7.328   7.289  0.00  0.00     0.157 HD
ATOM     27  H28 <0> d           2.315  -5.893   6.997  0.00  0.00     0.157 HD
ENDBRANCH  15  25
BRANCH  14  28
ATOM     28  C18 <0> d           3.833  -8.727   5.380  0.00  0.00     0.122 C 
ATOM     29  C19 <0> d           4.015 -10.230   5.161  0.00  0.00     0.038 C 
BRANCH  28  30
ATOM     30  C20 <0> d           4.822  -7.972   4.530  0.00  0.00    -0.035 A 
ATOM     31  C25 <0> d           5.912  -7.357   5.119  0.00  0.00     0.009 A 
ATOM     32  C24 <0> d           6.821  -6.668   4.339  0.00  0.00     0.001 A 
ATOM     33  C23 <0> d           6.637  -6.586   2.971  0.00  0.00     0.000 A 
ATOM     34  C22 <0> d           5.545  -7.197   2.383  0.00  0.00     0.001 A 
ATOM     35  C21 <0> d           4.638  -7.889   3.163  0.00  0.00     0.009 A 
ENDBRANCH  28  30
ENDBRANCH  14  28
TORSDOF 8
