REMARK  2 active torsions:
REMARK  status: ('A' for Active; 'I' for Inactive)
REMARK    1  A    between atoms: N2_14  and  N3_15 
REMARK       I    between atoms: N3_15  and  C11_16 
REMARK    2  A    between atoms: C11_16  and  C12_18 
ROOT
ATOM      1  C1  <0> d          -0.016   1.354   0.009  0.00  0.00     0.237 A 
ATOM      2  N1  <0> d           1.092   2.045   0.003  0.00  0.00    -0.234 NA
ATOM      3  C2  <0> d           2.276   1.439  -0.012  0.00  0.00     0.115 A 
ATOM      4  C3  <0> d           2.396   0.040  -0.021  0.00  0.00     0.077 A 
ATOM      5  C4  <0> d           3.760  -0.486  -0.038  0.00  0.00    -0.026 A 
ATOM      6  C5  <0> d           4.764   0.417  -0.043  0.00  0.00    -0.008 A 
ATOM      7  S1  <0> d           3.960   1.997  -0.026  0.00  0.00    -0.073 SA
ATOM      8  C6  <0> d           6.235   0.137  -0.060  0.00  0.00     0.047 C 
ATOM      9  C7  <0> d           6.452  -1.339   0.302  0.00  0.00     0.005 C 
ATOM     10  C8  <0> d           5.494  -2.195  -0.531  0.00  0.00     0.005 C 
ATOM     11  C9  <0> d           4.058  -1.982  -0.051  0.00  0.00     0.041 C 
ATOM     12  C10 <0> d           1.161  -0.689  -0.013  0.00  0.00     0.281 A 
ATOM     13  O1  <0> d           1.161  -1.907  -0.019  0.00  0.00    -0.265 OA
ATOM     14  N2  <0> d           0.002  -0.004   0.002  0.00  0.00    -0.211 N 
ENDROOT
BRANCH  14  15
ATOM     15  N3  <0> d          -1.210  -0.707   0.010  0.00  0.00    -0.259 N 
ATOM     16  C11 <0> d          -1.955  -0.777  -1.111  0.00  0.00     0.242 C 
ATOM     17  O2  <0> d          -1.577  -0.233  -2.126  0.00  0.00    -0.271 OA
ATOM     18  H11 <0> d          -1.513  -1.143   0.822  0.00  0.00     0.190 HD
BRANCH  16  19
ATOM     19  C12 <0> d          -3.259  -1.533  -1.102  0.00  0.00     0.105 C 
ATOM     20  C15 <0> d          -3.021  -3.036  -0.841  0.00  0.00     0.181 C 
ATOM     21  O3  <0> d          -3.903  -3.767  -1.707  0.00  0.00    -0.390 OA
ATOM     22  C14 <0> d          -4.716  -2.856  -2.463  0.00  0.00     0.168 C 
ATOM     23  C13 <0> d          -3.905  -1.537  -2.514  0.00  0.00     0.042 C 
ENDBRANCH  16  19
ENDBRANCH  14  15
TORSDOF 2
