REMARK  3 active torsions:
REMARK  status: ('A' for Active; 'I' for Inactive)
REMARK    1  A    between atoms: C4_4  and  C7_8 
REMARK    2  A    between atoms: C7_8  and  N1_10 
REMARK       I    between atoms: N1_10  and  C9_11 
REMARK       I    between atoms: C9_11  and  N2_13 
REMARK    3  A    between atoms: N2_13  and  C10_14 
ROOT
ATOM      1  N1  <0> d          -3.103  -2.609   0.585  0.00  0.00    -0.335 N 
ATOM      2  C9  <0> d          -4.000  -3.372   1.240  0.00  0.00     0.322 C 
ATOM      3  O1  <0> d          -3.822  -4.571   1.339  0.00  0.00    -0.247 OA
ATOM      4  N2  <0> d          -5.095  -2.806   1.786  0.00  0.00    -0.287 N 
ATOM      5  H12 <0> d          -3.245  -1.653   0.506  0.00  0.00     0.165 HD
ATOM      6  H13 <0> d          -5.237  -1.850   1.707  0.00  0.00     0.172 HD
ENDROOT
BRANCH   1   7
ATOM      7  C7  <0> d          -1.912  -3.224  -0.008  0.00  0.00     0.116 C 
ATOM      8  C8  <0> d          -2.240  -3.712  -1.420  0.00  0.00     0.037 C 
BRANCH   7   9
ATOM      9  C4  <0> d          -0.801  -2.208  -0.072  0.00  0.00    -0.022 A 
ATOM     10  C3  <0> d          -1.089  -0.859  -0.154  0.00  0.00     0.024 A 
ATOM     11  C2  <0> d          -0.066   0.029  -0.210  0.00  0.00    -0.020 A 
ATOM     12  C1  <0> d          -0.117   1.532  -0.303  0.00  0.00     0.056 C 
ATOM     13  S1  <0> d           1.359  -1.046  -0.153  0.00  0.00    -0.100 SA
ATOM     14  C5  <0> d           0.495  -2.604  -0.049  0.00  0.00    -0.013 A 
ATOM     15  C6  <0> d           1.060  -3.999   0.036  0.00  0.00     0.057 C 
ENDBRANCH   7   9
ENDBRANCH   1   7
BRANCH   4  16
ATOM     16  C10 <0> d          -6.021  -3.593   2.461  0.00  0.00     0.174 A 
ATOM     17  S2  <0> d          -7.447  -3.115   3.216  0.00  0.00    -0.062 SA
ATOM     18  C12 <0> d          -7.971  -4.721   3.793  0.00  0.00     0.072 A 
ATOM     19  C11 <0> d          -6.957  -5.497   3.338  0.00  0.00     0.126 A 
ATOM     20  N3  <0> d          -5.991  -4.891   2.671  0.00  0.00    -0.236 NA
ENDBRANCH   4  16
TORSDOF 3
