REMARK  6 active torsions:
REMARK  status: ('A' for Active; 'I' for Inactive)
REMARK    1  A    between atoms: C2_2  and  C4_4 
REMARK    2  A    between atoms: C2_2  and  N5_22 
REMARK    3  A    between atoms: C4_4  and  N1_5 
REMARK       I    between atoms: N1_5  and  C5_6 
REMARK    4  A    between atoms: C5_6  and  C6_8 
REMARK       I    between atoms: C6_8  and  N2_10 
REMARK    5  A    between atoms: N2_10  and  C7_11 
REMARK    6  A    between atoms: C11_15  and  N3_17 
ROOT
ATOM      1  N1  <0> d          -1.438  -2.118  -0.052  0.00  0.00    -0.350 N 
ATOM      2  C5  <0> d          -2.580  -2.826  -0.155  0.00  0.00     0.309 C 
ATOM      3  O1  <0> d          -3.650  -2.252  -0.173  0.00  0.00    -0.262 OA
ATOM      4  H9  <0> d          -0.583  -2.577  -0.037  0.00  0.00     0.162 HD
ENDROOT
BRANCH   2   5
ATOM      5  C6  <0> d          -2.531  -4.316  -0.247  0.00  0.00     0.313 C 
ATOM      6  O2  <0> d          -1.461  -4.889  -0.229  0.00  0.00    -0.262 OA
ATOM      7  N2  <0> d          -3.674  -5.023  -0.349  0.00  0.00    -0.319 N 
ATOM      8  H10 <0> d          -4.530  -4.570  -0.304  0.00  0.00     0.169 HD
BRANCH   7   9
ATOM      9  C7  <0> d          -3.624  -6.408  -0.522  0.00  0.00     0.037 A 
ATOM     10  C12 <0> d          -2.628  -7.151   0.096  0.00  0.00     0.061 A 
ATOM     11  C11 <0> d          -2.587  -8.527  -0.073  0.00  0.00     0.060 A 
ATOM     12  C10 <0> d          -3.534  -9.156  -0.870  0.00  0.00     0.032 A 
ATOM     13  C9  <0> d          -4.522  -8.414  -1.489  0.00  0.00     0.005 A 
ATOM     14  C8  <0> d          -4.570  -7.044  -1.318  0.00  0.00     0.029 A 
BRANCH  11  15
ATOM     15  N3  <0> d          -1.586  -9.281   0.556  0.00  0.00    -0.245 N 
ATOM     16  N4  <0> d          -0.632  -8.795   1.459  0.00  0.00    -0.180 NA
ATOM     17  C15 <0> d           0.126  -9.795   1.831  0.00  0.00     0.140 A 
ATOM     18  C14 <0> d          -0.314 -10.948   1.171  0.00  0.00     0.040 A 
ATOM     19  C13 <0> d          -1.368 -10.606   0.393  0.00  0.00     0.120 A 
ENDBRANCH  11  15
ENDBRANCH   7   9
ENDBRANCH   2   5
BRANCH   1  20
ATOM     20  C4  <0> d          -1.486  -0.657   0.038  0.00  0.00     0.161 C 
BRANCH  20  21
ATOM     21  C2  <0> d          -0.062  -0.097   0.020  0.00  0.00     0.136 C 
ATOM     22  C1  <0> d           0.622  -0.486  -1.292  0.00  0.00     0.048 C 
ATOM     23  C3  <0> d          -0.112   1.427   0.137  0.00  0.00     0.048 C 
BRANCH  21  24
ATOM     24  N5  <0> d           0.696  -0.651   1.150  0.00  0.00    -0.061 N 
ATOM     25  C20 <0> d           2.027  -0.035   1.193  0.00  0.00     0.236 C 
ATOM     26  C19 <0> d           2.850  -0.666   2.318  0.00  0.00     0.028 C 
ATOM     27  C18 <0> d           2.137  -0.437   3.654  0.00  0.00     0.003 C 
ATOM     28  C17 <0> d           0.723  -1.018   3.573  0.00  0.00     0.028 C 
ATOM     29  C16 <0> d          -0.021  -0.374   2.401  0.00  0.00     0.236 C 
ATOM     30  H28 <0> d           0.791  -1.648   1.033  0.00  0.00     0.280 HD
ENDBRANCH  21  24
ENDBRANCH  20  21
ENDBRANCH   1  20
TORSDOF 6
