REMARK  5 active torsions:
REMARK  status: ('A' for Active; 'I' for Inactive)
REMARK    1  A    between atoms: C5_5  and  C7_7 
REMARK       I    between atoms: C7_7  and  N1_9 
REMARK       I    between atoms: N2_15  and  C21_28 
REMARK    2  A    between atoms: C13_16  and  C15_19 
REMARK       I    between atoms: C15_19  and  N3_21 
REMARK    3  A    between atoms: N3_21  and  C16_22 
REMARK    4  A    between atoms: C16_22  and  C17_23 
REMARK    5  A    between atoms: C21_28  and  C22_30 
ROOT
ATOM      1  C7  <0> d           1.528  -3.658   1.405  0.00  0.00     0.255 C 
ATOM      2  O1  <0> d           2.440  -4.457   1.315  0.00  0.00    -0.267 OA
ATOM      3  N1  <0> d           0.266  -4.043   1.133  0.00  0.00    -0.348 N 
ATOM      4  C8  <0> d          -0.831  -3.064   1.130  0.00  0.00     0.131 C 
ATOM      5  C9  <0> d          -1.568  -3.154  -0.209  0.00  0.00     0.081 C 
ATOM      6  C10 <0> d          -2.008  -4.599  -0.450  0.00  0.00     0.142 C 
ATOM      7  C11 <0> d          -0.786  -5.517  -0.502  0.00  0.00     0.081 C 
ATOM      8  C12 <0> d          -0.040  -5.447   0.829  0.00  0.00     0.131 C 
ATOM      9  N2  <0> d          -2.904  -5.029   0.635  0.00  0.00    -0.298 N 
ATOM     10  C13 <0> d          -4.199  -5.347  -0.006  0.00  0.00     0.206 C 
ATOM     11  C14 <0> d          -4.124  -4.562  -1.339  0.00  0.00     0.206 C 
ATOM     12  O2  <0> d          -2.726  -4.682  -1.691  0.00  0.00    -0.358 OA
ATOM     13  C21 <0> d          -2.605  -5.117   1.946  0.00  0.00     0.280 C 
ATOM     14  O5  <0> d          -1.506  -4.778   2.344  0.00  0.00    -0.265 OA
ENDROOT
BRANCH  10  15
ATOM     15  C15 <0> d          -5.347  -4.861   0.841  0.00  0.00     0.242 C 
ATOM     16  O3  <0> d          -5.153  -4.041   1.713  0.00  0.00    -0.271 OA
ATOM     17  N3  <0> d          -6.590  -5.338   0.629  0.00  0.00    -0.357 N 
ATOM     18  H17 <0> d          -6.746  -5.994  -0.068  0.00  0.00     0.162 HD
BRANCH  17  19
ATOM     19  C16 <0> d          -7.706  -4.865   1.452  0.00  0.00     0.154 C 
BRANCH  19  20
ATOM     20  C17 <0> d          -8.996  -5.559   1.010  0.00  0.00     0.139 C 
ATOM     21  O4  <0> d          -8.921  -6.958   1.305  0.00  0.00    -0.384 OA
ATOM     22  C20 <0> d          -9.951  -7.316   2.243  0.00  0.00     0.168 C 
ATOM     23  C19 <0> d         -11.055  -6.244   2.060  0.00  0.00     0.029 C 
ATOM     24  C18 <0> d         -10.196  -4.979   1.789  0.00  0.00     0.035 C 
ENDBRANCH  19  20
ENDBRANCH  17  19
ENDBRANCH  10  15
BRANCH  13  25
ATOM     25  C22 <0> d          -3.604  -5.622   2.894  0.00  0.00     0.142 A 
ATOM     26  O6  <0> d          -4.811  -6.133   2.575  0.00  0.00    -0.317 OA
ATOM     27  C25 <0> d          -5.451  -6.493   3.696  0.00  0.00     0.143 A 
ATOM     28  C24 <0> d          -4.663  -6.211   4.756  0.00  0.00     0.027 A 
ATOM     29  C23 <0> d          -3.477  -5.652   4.253  0.00  0.00     0.045 A 
ENDBRANCH  13  25
BRANCH   1  30
ATOM     30  C5  <0> d           1.805  -2.265   1.812  0.00  0.00     0.053 A 
ATOM     31  C4  <0> d           2.797  -1.527   1.161  0.00  0.00     0.049 A 
ATOM     32  C3  <0> d           3.050  -0.225   1.547  0.00  0.00     0.025 A 
ATOM     33 Cl1  <0> d           3.708  -2.244  -0.131  0.00  0.00    -0.083 Cl
ATOM     34  C2  <0> d           2.323   0.347   2.575  0.00  0.00     0.002 A 
ATOM     35  C1  <0> d           1.340  -0.378   3.224  0.00  0.00     0.001 A 
ATOM     36  C6  <0> d           1.077  -1.679   2.849  0.00  0.00     0.019 A 
ENDBRANCH   1  30
TORSDOF 5
