REMARK  5 active torsions:
REMARK  status: ('A' for Active; 'I' for Inactive)
REMARK    1  A    between atoms: C2_2  and  N1_3 
REMARK       I    between atoms: N1_3  and  C3_4 
REMARK    2  A    between atoms: C3_4  and  C4_6 
REMARK    3  A    between atoms: C4_6  and  N2_8 
REMARK    4  A    between atoms: N2_8  and  S1_9 
REMARK    5  A    between atoms: S1_9  and  C6_12 
ROOT
ATOM      1  N2  <0> d           1.603  -3.778   2.607  0.00  0.00    -0.301 N 
ATOM      2  H11 <0> d           1.674  -4.257   1.766  0.00  0.00     0.173 HD
ENDROOT
BRANCH   1   3
ATOM      3  C4  <0> d           1.583  -2.313   2.615  0.00  0.00     0.180 C 
ATOM      4  C5  <0> d           3.018  -1.783   2.604  0.00  0.00     0.043 C 
BRANCH   3   5
ATOM      5  C3  <0> d           0.854  -1.814   1.394  0.00  0.00     0.240 C 
ATOM      6  N1  <0> d           0.711  -0.489   1.189  0.00  0.00    -0.360 N 
ATOM      7  H7  <0> d           1.077   0.142   1.827  0.00  0.00     0.162 HD
ATOM      8  O1  <0> d           0.396  -2.604   0.595  0.00  0.00    -0.271 OA
BRANCH   6   9
ATOM      9  C2  <0> d           0.002  -0.004   0.002  0.00  0.00     0.118 C 
ATOM     10  C1  <0> d          -0.019   1.526   0.010  0.00  0.00     0.026 C 
ENDBRANCH   6   9
ENDBRANCH   3   5
ENDBRANCH   1   3
BRANCH   1  11
ATOM     11  S1  <0> d           1.502  -4.615   4.032  0.00  0.00     0.268 S 
ATOM     12  O2  <0> d           1.520  -5.995   3.694  0.00  0.00    -0.200 OA
ATOM     13  O3  <0> d           2.455  -4.034   4.912  0.00  0.00    -0.200 OA
BRANCH  11  14
ATOM     14  C6  <0> d          -0.086  -4.285   4.720  0.00  0.00     0.147 A 
ATOM     15  S2  <0> d          -1.410  -3.264   4.093  0.00  0.00    -0.043 SA
ATOM     16  C8  <0> d          -2.509  -3.517   5.342  0.00  0.00     0.169 A 
ATOM     17  N3  <0> d          -1.862  -4.321   6.151  0.00  0.00    -0.232 NA
ATOM     18 Cl1  <0> d          -4.109  -2.867   5.519  0.00  0.00    -0.054 Cl
ATOM     19  C7  <0> d          -0.639  -4.731   5.875  0.00  0.00     0.063 A 
ATOM     20  C9  <0> d           0.109  -5.655   6.801  0.00  0.00     0.072 C 
ENDBRANCH  11  14
ENDBRANCH   1  11
TORSDOF 5
