REMARK  7 active torsions:
REMARK  status: ('A' for Active; 'I' for Inactive)
REMARK    1  A    between atoms: C3_3  and  C6_7 
REMARK    2  A    between atoms: C6_7  and  N2_8 
REMARK    3  A    between atoms: N2_8  and  C7_9 
REMARK    4  A    between atoms: C8_12  and  S2_14 
REMARK    5  A    between atoms: S2_14  and  C9_15 
REMARK    6  A    between atoms: C9_15  and  C10_16 
REMARK    7  A    between atoms: C10_16  and  N5_17 
ROOT
ATOM      1  C7  <0> d           5.351   2.910   1.601  0.00  0.00     0.190 A 
ATOM      2  N3  <0> d           6.230   3.392   0.744  0.00  0.00    -0.123 NA
ATOM      3  N4  <0> d           7.377   3.994   1.207  0.00  0.00    -0.133 NA
ATOM      4  C8  <0> d           7.592   4.087   2.505  0.00  0.00     0.160 A 
ATOM      5  S1  <0> d           6.126   3.305   3.161  0.00  0.00    -0.022 SA
ENDROOT
BRANCH   1   6
ATOM      6  N2  <0> d           4.141   2.271   1.355  0.00  0.00    -0.363 N 
ATOM      7  H7  <0> d           3.592   1.972   2.096  0.00  0.00     0.162 HD
BRANCH   6   8
ATOM      8  C6  <0> d           3.696   2.049  -0.023  0.00  0.00     0.162 C 
BRANCH   8   9
ATOM      9  C3  <0> d           2.365   1.343  -0.013  0.00  0.00    -0.023 A 
ATOM     10  C2  <0> d           1.185   2.070   0.002  0.00  0.00     0.012 A 
ATOM     11  C1  <0> d          -0.017   1.378   0.010  0.00  0.00     0.020 A 
ATOM     12  C5  <0> d           0.002  -0.004   0.002  0.00  0.00     0.116 A 
ATOM     13  N1  <0> d           1.144  -0.663  -0.013  0.00  0.00    -0.273 NA
ATOM     14  C4  <0> d           2.305  -0.038  -0.020  0.00  0.00     0.124 A 
ENDBRANCH   8   9
ENDBRANCH   6   8
ENDBRANCH   1   6
BRANCH   4  15
ATOM     15  S2  <0> d           8.957   4.799   3.363  0.00  0.00    -0.099 SA
BRANCH  15  16
ATOM     16  C9  <0> d          10.043   5.398   2.039  0.00  0.00     0.108 C 
BRANCH  16  17
ATOM     17  C10 <0> d          11.285   6.048   2.653  0.00  0.00     0.240 C 
BRANCH  17  18
ATOM     18  N5  <0> d          12.164   6.533   1.581  0.00  0.00    -0.079 N 
ATOM     19  H12 <0> d          12.443   5.758   0.999  0.00  0.00     0.274 HD
ATOM     20  H13 <0> d          11.670   7.213   1.023  0.00  0.00     0.274 HD
ATOM     21  H14 <0> d          12.983   6.962   1.986  0.00  0.00     0.274 HD
ENDBRANCH  17  18
ENDBRANCH  16  17
ENDBRANCH  15  16
ENDBRANCH   4  15
TORSDOF 7
