REMARK  7 active torsions:
REMARK  status: ('A' for Active; 'I' for Inactive)
REMARK    1  A    between atoms: N1_2  and  C2_3 
REMARK    2  A    between atoms: C5_6  and  C8_12 
REMARK    3  A    between atoms: C7_8  and  N2_9 
REMARK       I    between atoms: C8_12  and  N3_14 
REMARK    4  A    between atoms: N3_14  and  C9_15 
REMARK    5  A    between atoms: C9_15  and  C10_16 
REMARK    6  A    between atoms: C10_16  and  C11_17 
REMARK    7  A    between atoms: C10_16  and  N4_24 
ROOT
ATOM      1  C8  <0> d           0.669  -2.499   1.334  0.00  0.00     0.251 C 
ATOM      2  O3  <0> d           0.226  -3.264   2.169  0.00  0.00    -0.268 OA
ATOM      3  N3  <0> d           0.558  -1.168   1.514  0.00  0.00    -0.355 N 
ATOM      4  H9  <0> d           0.959  -0.475   0.759  0.00  0.00     0.162 HD
ENDROOT
BRANCH   3   5
ATOM      5  C9  <0> d          -0.097  -0.643   2.715  0.00  0.00     0.161 C 
BRANCH   5   6
ATOM      6  C10 <0> d          -0.241   0.875   2.595  0.00  0.00     0.239 C 
BRANCH   6   7
ATOM      7  C11 <0> d          -0.835   1.425   3.866  0.00  0.00    -0.004 A 
ATOM      8  C16 <0> d          -0.017   1.715   4.944  0.00  0.00     0.042 A 
ATOM      9  C15 <0> d          -0.562   2.225   6.108  0.00  0.00     0.024 A 
ATOM     10 Cl1  <0> d           1.695   1.446   4.831  0.00  0.00    -0.084 Cl
ATOM     11  C14 <0> d          -1.925   2.434   6.199  0.00  0.00     0.002 A 
ATOM     12  C13 <0> d          -2.743   2.139   5.124  0.00  0.00     0.001 A 
ATOM     13  C12 <0> d          -2.198   1.634   3.958  0.00  0.00     0.011 A 
ENDBRANCH   6   7
BRANCH   6  14
ATOM     14  N4  <0> d          -1.122   1.196   1.464  0.00  0.00    -0.069 N 
ATOM     15  C17 <0> d          -2.176   0.184   1.315  0.00  0.00     0.270 C 
ATOM     16  C18 <0> d          -0.352   1.341   0.222  0.00  0.00     0.270 C 
ATOM     17  H22 <0> d          -1.606   2.160   1.676  0.00  0.00     0.279 HD
ENDBRANCH   6  14
ENDBRANCH   5   6
ENDBRANCH   3   5
BRANCH   1  18
ATOM     18  C5  <0> d           1.329  -3.027   0.125  0.00  0.00     0.034 A 
ATOM     19  C4  <0> d           1.833  -2.148  -0.838  0.00  0.00     0.019 A 
ATOM     20  C3  <0> d           2.454  -2.644  -1.962  0.00  0.00     0.032 A 
ATOM     21  C2  <0> d           2.567  -4.019  -2.147  0.00  0.00     0.061 A 
ATOM     22  C7  <0> d           2.061  -4.897  -1.193  0.00  0.00     0.130 A 
ATOM     23  C6  <0> d           1.445  -4.407  -0.063  0.00  0.00     0.055 A 
BRANCH  21  24
ATOM     24  N1  <0> d           3.189  -4.517  -3.287  0.00  0.00    -0.392 N 
ATOM     25  C1  <0> d           3.851  -3.602  -4.219  0.00  0.00     0.146 C 
ATOM     26  H5  <0> d           3.183  -5.599  -3.488  0.00  0.00     0.159 HD
ENDBRANCH  21  24
BRANCH  22  27
ATOM     27  N2  <0> d           2.184  -6.359  -1.392  0.00  0.00    -0.113 N 
ATOM     28  O1  <0> d           1.641  -7.127  -0.619  0.00  0.00    -0.532 OA
ATOM     29  O2  <0> d           2.829  -6.793  -2.330  0.00  0.00    -0.532 OA
ENDBRANCH  22  27
ENDBRANCH   1  18
TORSDOF 7
