REMARK  10 active torsions:
REMARK  status: ('A' for Active; 'I' for Inactive)
REMARK    1  A    between atoms: C2_2  and  C3_3 
REMARK    2  A    between atoms: C3_3  and  C4_4 
REMARK    3  A    between atoms: C3_3  and  N6_40 
REMARK    4  A    between atoms: N4_8  and  C5_9 
REMARK    5  A    between atoms: C5_9  and  C6_10 
REMARK    6  A    between atoms: C9_13  and  O1_16 
REMARK    7  A    between atoms: C13_18  and  C14_19 
REMARK    8  A    between atoms: C13_18  and  N6_40 
REMARK    9  A    between atoms: C20_25  and  C21_26 
REMARK   10  A    between atoms: C20_25  and  N6_40 
ROOT
ATOM      1  N6  <0> d          -5.597   3.585  -2.220  0.00  0.00    -0.052 N 
ATOM      2  H35 <0> d          -5.526   2.628  -2.585  0.00  0.00     0.281 HD
ENDROOT
BRANCH   1   3
ATOM      3  C3  <0> d          -6.996   4.045  -2.350  0.00  0.00     0.261 C 
BRANCH   3   4
ATOM      4  C2  <0> d          -7.303   5.121  -1.306  0.00  0.00     0.037 C 
ATOM      5  C1  <0> d          -6.394   6.330  -1.537  0.00  0.00     0.007 C 
ENDBRANCH   3   4
BRANCH   3   6
ATOM      6  C4  <0> d          -7.911   2.866  -2.142  0.00  0.00     0.179 A 
ATOM      7  N4  <0> d          -9.023   2.578  -2.844  0.00  0.00    -0.228 N 
ATOM      8  N3  <0> d          -9.512   1.490  -2.351  0.00  0.00    -0.044 NA
ATOM      9  N2  <0> d          -8.758   1.098  -1.384  0.00  0.00    -0.023 NA
ATOM     10  N1  <0> d          -7.776   1.920  -1.245  0.00  0.00    -0.112 NA
BRANCH   7  11
ATOM     11  C5  <0> d          -9.573   3.353  -3.958  0.00  0.00     0.193 C 
BRANCH  11  12
ATOM     12  C6  <0> d          -8.987   2.855  -5.254  0.00  0.00    -0.038 A 
ATOM     13  C11 <0> d          -9.615   1.840  -5.952  0.00  0.00     0.011 A 
ATOM     14  C10 <0> d          -9.080   1.382  -7.140  0.00  0.00     0.037 A 
ATOM     15  C9  <0> d          -7.910   1.941  -7.633  0.00  0.00     0.068 A 
ATOM     16  C8  <0> d          -7.281   2.959  -6.932  0.00  0.00     0.037 A 
ATOM     17  C7  <0> d          -7.824   3.418  -5.747  0.00  0.00     0.011 A 
BRANCH  15  18
ATOM     18  O1  <0> d          -7.381   1.492  -8.801  0.00  0.00    -0.356 OA
ATOM     19  C12 <0> d          -6.175   2.114  -9.249  0.00  0.00     0.210 C 
ENDBRANCH  15  18
ENDBRANCH  11  12
ENDBRANCH   7  11
ENDBRANCH   3   6
ENDBRANCH   1   3
BRANCH   1  20
ATOM     20  C13 <0> d          -4.701   4.464  -3.000  0.00  0.00     0.274 C 
BRANCH  20  21
ATOM     21  C14 <0> d          -3.410   3.731  -3.258  0.00  0.00    -0.033 A 
ATOM     22  C19 <0> d          -3.303   2.880  -4.342  0.00  0.00     0.009 A 
ATOM     23  C18 <0> d          -2.119   2.208  -4.579  0.00  0.00     0.001 A 
ATOM     24  C17 <0> d          -1.042   2.386  -3.731  0.00  0.00     0.000 A 
ATOM     25  C16 <0> d          -1.148   3.237  -2.647  0.00  0.00     0.001 A 
ATOM     26  C15 <0> d          -2.331   3.914  -2.414  0.00  0.00     0.009 A 
ENDBRANCH  20  21
ENDBRANCH   1  20
BRANCH   1  27
ATOM     27  C20 <0> d          -5.195   3.587  -0.798  0.00  0.00     0.280 C 
BRANCH  27  28
ATOM     28  C21 <0> d          -5.691   2.318  -0.155  0.00  0.00     0.036 A 
ATOM     29  C29 <0> d          -6.582   2.385   0.938  0.00  0.00     0.253 A 
ATOM     30  N5  <0> d          -7.047   1.275   1.538  0.00  0.00    -0.322 N 
ATOM     31  O2  <0> d          -6.940   3.476   1.346  0.00  0.00    -0.268 OA
ATOM     32  C28 <0> d          -6.667   0.022   1.105  0.00  0.00     0.045 A 
ATOM     33  H2  <0> d          -7.658   1.357   2.287  0.00  0.00     0.169 HD
ATOM     34  C23 <0> d          -5.775  -0.099   0.023  0.00  0.00    -0.008 A 
ATOM     35  C27 <0> d          -7.148  -1.126   1.726  0.00  0.00     0.037 A 
ATOM     36  C22 <0> d          -5.270   1.116  -0.620  0.00  0.00     0.028 A 
ATOM     37  C24 <0> d          -5.391  -1.367  -0.424  0.00  0.00     0.021 A 
ATOM     38  C25 <0> d          -5.880  -2.481   0.197  0.00  0.00    -0.055 A 
ATOM     39  C26 <0> d          -6.756  -2.365   1.268  0.00  0.00    -0.054 A 
ATOM     40  C31 <0> d          -5.466  -3.848  -0.285  0.00  0.00     0.049 C 
ATOM     41  C30 <0> d          -7.283  -3.608   1.938  0.00  0.00     0.049 C 
ENDBRANCH  27  28
ENDBRANCH   1  27
TORSDOF 10
