REMARK  6 active torsions:
REMARK  status: ('A' for Active; 'I' for Inactive)
REMARK    1  A    between atoms: C2_2  and  O2_4 
REMARK    2  A    between atoms: O2_4  and  C3_5 
REMARK    3  A    between atoms: C8_10  and  C9_11 
REMARK       I    between atoms: C9_11  and  N1_13 
REMARK    4  A    between atoms: C11_15  and  C18_23 
REMARK       I    between atoms: C18_23  and  N3_25 
REMARK    5  A    between atoms: N3_25  and  C19_26 
REMARK    6  A    between atoms: C19_26  and  C20_27 
ROOT
ATOM      1  C9  <0> d           0.138  -2.181  -3.483  0.00  0.00     0.256 C 
ATOM      2  O3  <0> d           0.206  -0.972  -3.583  0.00  0.00    -0.267 OA
ATOM      3  N1  <0> d           0.110  -2.949  -4.590  0.00  0.00    -0.346 N 
ATOM      4  C10 <0> d           0.092  -4.429  -4.670  0.00  0.00     0.141 C 
ATOM      5  C11 <0> d          -0.879  -4.745  -5.829  0.00  0.00     0.106 C 
ATOM      6  C12 <0> d          -0.873  -3.479  -6.702  0.00  0.00    -0.007 C 
ATOM      7  C13 <0> d           0.085  -2.504  -6.004  0.00  0.00     0.136 C 
ATOM      8  C14 <0> d          -2.273  -2.877  -6.769  0.00  0.00     0.039 C 
ATOM      9  C15 <0> d          -2.254  -1.653  -7.689  0.00  0.00     0.233 C 
ATOM     10  N2  <0> d          -1.807  -2.052  -9.028  0.00  0.00    -0.075 N 
ATOM     11  C16 <0> d          -0.425  -2.544  -8.970  0.00  0.00     0.233 C 
ATOM     12  C17 <0> d          -0.367  -3.806  -8.104  0.00  0.00     0.039 C 
ATOM     13  H17 <0> d          -2.408  -2.782  -9.378  0.00  0.00     0.277 HD
ATOM     14  H30 <0> d          -1.853  -1.256  -9.648  0.00  0.00     0.277 HD
ENDROOT
BRANCH   5  15
ATOM     15  C18 <0> d          -2.263  -5.012  -5.297  0.00  0.00     0.224 C 
ATOM     16  O4  <0> d          -2.667  -4.407  -4.327  0.00  0.00    -0.273 OA
ATOM     17  N3  <0> d          -3.052  -5.924  -5.899  0.00  0.00    -0.355 N 
ATOM     18  H22 <0> d          -2.729  -6.408  -6.675  0.00  0.00     0.162 HD
BRANCH  17  19
ATOM     19  C19 <0> d          -4.398  -6.183  -5.382  0.00  0.00     0.183 C 
BRANCH  19  20
ATOM     20  C20 <0> d          -5.067  -7.237  -6.227  0.00  0.00     0.070 A 
ATOM     21  N5  <0> d          -5.732  -7.017  -7.363  0.00  0.00    -0.232 NA
ATOM     22  C26 <0> d          -6.183  -8.171  -7.834  0.00  0.00     0.134 A 
ATOM     23  N4  <0> d          -5.800  -9.162  -6.967  0.00  0.00    -0.316 N 
ATOM     24  C25 <0> d          -6.930  -8.501  -8.982  0.00  0.00     0.051 A 
ATOM     25  C21 <0> d          -5.098  -8.560  -5.958  0.00  0.00     0.127 A 
ATOM     26  C22 <0> d          -6.139 -10.461  -7.208  0.00  0.00     0.098 A 
ATOM     27  C23 <0> d          -6.855 -10.793  -8.303  0.00  0.00     0.018 A 
ATOM     28  C24 <0> d          -7.261  -9.801  -9.211  0.00  0.00     0.005 A 
ENDBRANCH  19  20
ENDBRANCH  17  19
ENDBRANCH   5  15
BRANCH   1  29
ATOM     29  C8  <0> d           0.086  -2.809  -2.148  0.00  0.00     0.066 A 
ATOM     30  C3  <0> d          -0.608  -2.186  -1.103  0.00  0.00     0.094 A 
ATOM     31  C4  <0> d          -0.656  -2.788   0.145  0.00  0.00     0.038 A 
ATOM     32  C5  <0> d          -0.017  -3.993   0.358  0.00  0.00     0.003 A 
ATOM     33  C6  <0> d           0.675  -4.610  -0.672  0.00  0.00     0.001 A 
ATOM     34  C7  <0> d           0.732  -4.026  -1.919  0.00  0.00     0.020 A 
BRANCH  30  35
ATOM     35  O2  <0> d          -1.236  -1.001  -1.313  0.00  0.00    -0.278 OA
BRANCH  35  36
ATOM     36  C2  <0> d          -2.502  -1.028  -1.761  0.00  0.00     0.260 C 
ATOM     37  C1  <0> d          -3.279   0.255  -1.902  0.00  0.00     0.126 C 
ATOM     38  O1  <0> d          -3.017  -2.082  -2.052  0.00  0.00    -0.265 OA
ENDBRANCH  35  36
ENDBRANCH  30  35
ENDBRANCH   1  29
TORSDOF 6
