REMARK  4 active torsions:
REMARK  status: ('A' for Active; 'I' for Inactive)
REMARK    1  A    between atoms: N2_16  and  C13_17 
REMARK    2  A    between atoms: C13_17  and  C14_18 
REMARK    3  A    between atoms: C14_18  and  C15_19 
REMARK       I    between atoms: C15_19  and  N3_21 
REMARK    4  A    between atoms: N3_21  and  C16_22 
ROOT
ATOM      1  C1  <0> d          -2.420   5.037  -2.130  0.00  0.00     0.064 C 
ATOM      2  C2  <0> d          -2.397   5.203  -0.609  0.00  0.00     0.115 C 
ATOM      3  C3  <0> d          -3.686   5.888  -0.143  0.00  0.00     0.063 C 
ATOM      4  C4  <0> d          -4.443   4.780   0.613  0.00  0.00     0.107 C 
ATOM      5  C5  <0> d          -3.538   3.573   0.585  0.00  0.00     0.226 C 
ATOM      6  O1  <0> d          -3.840   2.475   1.002  0.00  0.00    -0.273 OA
ATOM      7  N1  <0> d          -2.360   3.879   0.038  0.00  0.00    -0.290 N 
ATOM      8  C6  <0> d          -1.185   3.124   0.047  0.00  0.00     0.055 A 
ATOM      9  C7  <0> d          -1.165   1.747   0.038  0.00  0.00     0.031 A 
ATOM     10  C8  <0> d           0.051   1.085   0.031  0.00  0.00     0.002 A 
ATOM     11  C9  <0> d           1.239   1.798   0.022  0.00  0.00     0.001 A 
ATOM     12  C10 <0> d           1.232   3.179   0.032  0.00  0.00     0.019 A 
ATOM     13  C11 <0> d           0.018   3.858   0.050  0.00  0.00     0.059 A 
ATOM     14  C12 <0> d          -0.058   5.330   0.095  0.00  0.00     0.258 C 
ATOM     15  O2  <0> d           0.922   5.978   0.406  0.00  0.00    -0.267 OA
ATOM     16  N2  <0> d          -1.214   5.962  -0.208  0.00  0.00    -0.320 N 
ENDROOT
BRANCH  16  17
ATOM     17  C13 <0> d          -1.281   7.424  -0.135  0.00  0.00     0.138 C 
BRANCH  17  18
ATOM     18  C14 <0> d          -0.772   8.024  -1.447  0.00  0.00     0.123 C 
BRANCH  18  19
ATOM     19  C15 <0> d          -0.725   9.525  -1.328  0.00  0.00     0.223 C 
ATOM     20  O3  <0> d          -1.065  10.062  -0.295  0.00  0.00    -0.273 OA
ATOM     21  N3  <0> d          -0.305  10.271  -2.369  0.00  0.00    -0.326 N 
ATOM     22  H16 <0> d          -0.084   9.793  -3.334  0.00  0.00     0.169 HD
BRANCH  21  23
ATOM     23  C16 <0> d          -0.151  11.650  -2.222  0.00  0.00     0.047 A 
ATOM     24  C21 <0> d          -0.225  12.499  -3.346  0.00  0.00     0.019 A 
ATOM     25  C20 <0> d          -0.072  13.897  -3.178  0.00  0.00     0.069 A 
ATOM     26  C22 <0> d          -0.465  11.988  -4.633  0.00  0.00     0.017 A 
ATOM     27  C19 <0> d           0.163  14.411  -1.891  0.00  0.00     0.032 A 
ATOM     28  N4  <0> d          -0.147  14.706  -4.240  0.00  0.00    -0.260 NA
ATOM     29  C18 <0> d           0.236  13.570  -0.823  0.00  0.00     0.005 A 
ATOM     30  C17 <0> d           0.081  12.196  -0.977  0.00  0.00     0.030 A 
ATOM     31  C24 <0> d          -0.366  14.233  -5.443  0.00  0.00     0.117 A 
ATOM     32  C23 <0> d          -0.531  12.870  -5.675  0.00  0.00     0.020 A 
ENDBRANCH  21  23
ENDBRANCH  18  19
ENDBRANCH  17  18
ENDBRANCH  16  17
TORSDOF 4
