REMARK  5 active torsions:
REMARK  status: ('A' for Active; 'I' for Inactive)
REMARK    1  A    between atoms: O1_2  and  C2_3 
REMARK    2  A    between atoms: C5_6  and  O4_27 
REMARK    3  A    between atoms: C6_7  and  C8_9 
REMARK    4  A    between atoms: C8_9  and  N1_10 
REMARK       I    between atoms: N1_10  and  C9_11 
REMARK    5  A    between atoms: C9_11  and  C10_13 
ROOT
ATOM      1  C10 <0> d           4.277  -6.371  -1.387  0.00  0.00     0.168 A 
ATOM      2  C11 <0> d           4.677  -7.632  -2.119  0.00  0.00     0.016 A 
ATOM      3  C12 <0> d           4.861  -8.716  -1.341  0.00  0.00     0.048 A 
ATOM      4  C13 <0> d           4.654  -8.552   0.106  0.00  0.00     0.029 A 
ATOM      5  C14 <0> d           4.832  -9.650   0.964  0.00  0.00     0.009 A 
ATOM      6  C15 <0> d           4.641  -9.523   2.349  0.00  0.00     0.015 A 
ATOM      7  C16 <0> d           4.819 -10.603   3.161  0.00  0.00     0.001 A 
ATOM      8  C17 <0> d           5.189 -11.836   2.632  0.00  0.00     0.002 A 
ATOM      9  C18 <0> d           5.382 -11.994   1.292  0.00  0.00     0.030 A 
ATOM     10  C19 <0> d           5.208 -10.905   0.423  0.00  0.00     0.046 A 
ATOM     11  N2  <0> d           5.397 -11.061  -0.894  0.00  0.00    -0.322 N 
ATOM     12  C20 <0> d           5.255 -10.093  -1.778  0.00  0.00     0.257 A 
ATOM     13  O3  <0> d           5.447 -10.322  -2.962  0.00  0.00    -0.267 OA
ATOM     14  S1  <0> d           4.226  -6.955   0.353  0.00  0.00    -0.110 SA
ATOM     15  H19 <0> d           5.653 -11.939  -1.217  0.00  0.00     0.169 HD
ENDROOT
BRANCH   1  16
ATOM     16  C9  <0> d           2.921  -5.892  -1.836  0.00  0.00     0.235 C 
ATOM     17  N1  <0> d           2.642  -4.574  -1.848  0.00  0.00    -0.355 N 
ATOM     18  H10 <0> d           3.314  -3.933  -1.568  0.00  0.00     0.162 HD
ATOM     19  O2  <0> d           2.081  -6.693  -2.187  0.00  0.00    -0.272 OA
BRANCH  17  20
ATOM     20  C8  <0> d           1.323  -4.108  -2.285  0.00  0.00     0.164 C 
BRANCH  20  21
ATOM     21  C6  <0> d           1.269  -2.604  -2.205  0.00  0.00    -0.004 A 
ATOM     22  C5  <0> d           1.835  -1.836  -3.211  0.00  0.00     0.076 A 
ATOM     23  C4  <0> d           1.786  -0.452  -3.138  0.00  0.00     0.040 A 
ATOM     24  C3  <0> d           1.173   0.161  -2.062  0.00  0.00     0.039 A 
ATOM     25  C2  <0> d           0.606  -0.608  -1.056  0.00  0.00     0.069 A 
ATOM     26  C7  <0> d           0.661  -1.991  -1.127  0.00  0.00     0.048 A 
BRANCH  22  27
ATOM     27  O4  <0> d           2.439  -2.439  -4.270  0.00  0.00    -0.355 OA
ATOM     28  C21 <0> d           3.000  -1.586  -5.269  0.00  0.00     0.210 C 
ENDBRANCH  22  27
BRANCH  25  29
ATOM     29  O1  <0> d           0.002  -0.004   0.002  0.00  0.00    -0.356 OA
ATOM     30  C1  <0> d          -0.017   1.425   0.010  0.00  0.00     0.210 C 
ENDBRANCH  25  29
ENDBRANCH  20  21
ENDBRANCH  17  20
ENDBRANCH   1  16
TORSDOF 5
