REMARK  2 active torsions:
REMARK  status: ('A' for Active; 'I' for Inactive)
REMARK    1  A    between atoms: C3_3  and  C12_16 
REMARK    2  A    between atoms: C4_4  and  C6_9 
REMARK       I    between atoms: C12_16  and  N3_18 
ROOT
ATOM      1  C1  <0> d           3.511   5.814  -3.185  0.00  0.00     0.069 C 
ATOM      2  C2  <0> d           3.020   5.484  -1.799  0.00  0.00     0.021 A 
ATOM      3  C3  <0> d           2.768   4.198  -1.474  0.00  0.00     0.059 A 
ATOM      4  C4  <0> d           2.275   3.910  -0.070  0.00  0.00     0.158 A 
ATOM      5  N1  <0> d           2.111   5.065   0.829  0.00  0.00    -0.354 N 
ATOM      6  C5  <0> d           2.406   6.292   0.358  0.00  0.00     0.172 A 
ATOM      7  S1  <0> d           2.220   7.643   1.393  0.00  0.00    -0.041 SA
ATOM      8  N2  <0> d           2.838   6.489  -0.894  0.00  0.00    -0.337 N 
ATOM      9  H5  <0> d           1.756   4.913   1.859  0.00  0.00     0.163 HD
ATOM     10  H6  <0> d           3.050   7.530  -1.178  0.00  0.00     0.168 HD
ENDROOT
BRANCH   4  11
ATOM     11  C6  <0> d           0.943   3.213  -0.179  0.00  0.00    -0.029 A 
ATOM     12  C11 <0> d          -0.198   3.943  -0.453  0.00  0.00     0.028 A 
ATOM     13  C10 <0> d          -1.420   3.303  -0.553  0.00  0.00     0.011 A 
ATOM     14  C9  <0> d          -1.499   1.933  -0.383  0.00  0.00     0.019 A 
ATOM     15 Br1  <0> d          -2.982   4.301  -0.929  0.00  0.00    -0.051 Br
ATOM     16  C8  <0> d          -0.358   1.204  -0.103  0.00  0.00     0.002 A 
ATOM     17  C7  <0> d           0.863   1.844  -0.004  0.00  0.00     0.009 A 
ENDBRANCH   4  11
BRANCH   3  18
ATOM     18  C12 <0> d           2.957   3.154  -2.412  0.00  0.00     0.253 C 
ATOM     19  O1  <0> d           2.007   2.716  -3.035  0.00  0.00    -0.268 OA
ATOM     20  N3  <0> d           4.188   2.647  -2.616  0.00  0.00    -0.357 N 
ATOM     21  C13 <0> d           4.368   1.495  -3.504  0.00  0.00     0.152 C 
ATOM     22  C14 <0> d           5.347   3.246  -1.951  0.00  0.00     0.152 C 
ENDBRANCH   3  18
TORSDOF 2
