REMARK  6 active torsions:
REMARK  status: ('A' for Active; 'I' for Inactive)
REMARK    1  A    between atoms: C3_4  and  C5_7 
REMARK    2  A    between atoms: C5_7  and  N3_8 
REMARK       I    between atoms: N3_8  and  C7_10 
REMARK    3  A    between atoms: C7_10  and  C8_12 
REMARK    4  A    between atoms: C8_12  and  C9_13 
REMARK    5  A    between atoms: C9_13  and  N4_14 
REMARK    6  A    between atoms: N4_14  and  C10_15 
ROOT
ATOM      1  C9  <0> d           3.936  -2.834  -4.507  0.00  0.00     0.130 C 
ENDROOT
BRANCH   1   2
ATOM      2  C8  <0> d           3.471  -3.550  -3.237  0.00  0.00     0.122 C 
BRANCH   2   3
ATOM      3  C7  <0> d           2.047  -3.163  -2.935  0.00  0.00     0.221 C 
ATOM      4  N3  <0> d           1.424  -3.675  -1.855  0.00  0.00    -0.352 N 
ATOM      5  C6  <0> d           2.132  -4.609  -0.976  0.00  0.00     0.152 C 
ATOM      6  O1  <0> d           1.461  -2.390  -3.663  0.00  0.00    -0.273 OA
BRANCH   4   7
ATOM      7  C5  <0> d           0.039  -3.298  -1.561  0.00  0.00     0.166 C 
BRANCH   7   8
ATOM      8  C3  <0> d           0.027  -2.079  -0.676  0.00  0.00    -0.004 A 
ATOM      9  C2  <0> d           0.008  -0.792  -1.094  0.00  0.00     0.122 A 
ATOM     10  N1  <0> d           0.002  -0.004   0.002  0.00  0.00    -0.285 N 
ATOM     11  C1  <0> d          -0.018   1.461   0.010  0.00  0.00     0.179 C 
ATOM     12  N2  <0> d           0.025  -0.834   1.130  0.00  0.00    -0.185 NA
ATOM     13  C4  <0> d           0.034  -2.078   0.723  0.00  0.00     0.149 A 
ENDBRANCH   7   8
ENDBRANCH   4   7
ENDBRANCH   2   3
ENDBRANCH   1   2
BRANCH   1  14
ATOM     14  N4  <0> d           5.321  -3.210  -4.801  0.00  0.00    -0.373 N 
ATOM     15  H15 <0> d           5.790  -3.829  -4.219  0.00  0.00     0.161 HD
BRANCH  14  16
ATOM     16  C10 <0> d           5.958  -2.687  -5.905  0.00  0.00     0.148 A 
ATOM     17  C12 <0> d           7.349  -3.059  -6.208  0.00  0.00     0.034 A 
ATOM     18  C11 <0> d           7.823  -2.431  -7.368  0.00  0.00     0.095 A 
ATOM     19  C13 <0> d           8.229  -3.919  -5.533  0.00  0.00     0.017 A 
ATOM     20  S1  <0> d           6.436  -1.458  -7.886  0.00  0.00     0.286 S 
ATOM     21  C16 <0> d           9.087  -2.634  -7.840  0.00  0.00     0.026 A 
ATOM     22  N5  <0> d           5.341  -1.856  -6.684  0.00  0.00    -0.141 NA
ATOM     23  O2  <0> d           5.956  -2.004  -9.107  0.00  0.00    -0.198 OA
ATOM     24  O3  <0> d           6.780  -0.089  -7.722  0.00  0.00    -0.198 OA
ATOM     25  C15 <0> d           9.947  -3.481  -7.154  0.00  0.00     0.002 A 
ATOM     26  C14 <0> d           9.505  -4.119  -6.009  0.00  0.00     0.001 A 
ENDBRANCH  14  16
ENDBRANCH   1  14
TORSDOF 6
