REMARK  6 active torsions:
REMARK  status: ('A' for Active; 'I' for Inactive)
REMARK    1  A    between atoms: C9_10  and  C14_17 
REMARK    2  A    between atoms: C14_17  and  C15_18 
REMARK       I    between atoms: C15_18  and  N1_20 
REMARK    3  A    between atoms: N1_20  and  C16_21 
REMARK    4  A    between atoms: C16_21  and  C17_22 
REMARK       I    between atoms: C17_22  and  N2_24 
REMARK    5  A    between atoms: N2_24  and  C18_25 
REMARK    6  A    between atoms: C18_25  and  C19_26 
ROOT
ATOM      1  C1  <0> d          -6.407  -2.463  -4.695  0.00  0.00     0.051 C 
ATOM      2  C2  <0> d          -6.512  -2.570  -3.196  0.00  0.00    -0.027 A 
ATOM      3  C3  <0> d          -7.369  -3.328  -2.502  0.00  0.00     0.150 A 
ATOM      4  O1  <0> d          -7.170  -3.168  -1.181  0.00  0.00    -0.321 OA
ATOM      5  C4  <0> d          -6.170  -2.294  -0.947  0.00  0.00     0.094 A 
ATOM      6  C5  <0> d          -5.693  -1.863  -2.201  0.00  0.00     0.007 A 
ATOM      7  C6  <0> d          -4.652  -0.949  -2.282  0.00  0.00     0.029 A 
ATOM      8  C7  <0> d          -4.080  -0.460  -1.107  0.00  0.00     0.006 A 
ATOM      9  C8  <0> d          -2.982   0.511  -1.155  0.00  0.00    -0.036 A 
ATOM     10  C9  <0> d          -2.462   0.950   0.019  0.00  0.00     0.033 A 
ATOM     11  C10 <0> d          -2.987   0.476   1.240  0.00  0.00     0.295 A 
ATOM     12  O2  <0> d          -2.514   0.881   2.286  0.00  0.00    -0.259 OA
ATOM     13  O3  <0> d          -3.995  -0.409   1.279  0.00  0.00    -0.274 OA
ATOM     14  C11 <0> d          -4.557  -0.891   0.148  0.00  0.00     0.099 A 
ATOM     15  C12 <0> d          -5.596  -1.803   0.217  0.00  0.00     0.008 A 
ATOM     16  C13 <0> d          -6.105  -2.263   1.559  0.00  0.00     0.054 C 
ATOM     17  C20 <0> d          -2.443   1.005  -2.473  0.00  0.00     0.050 C 
ENDROOT
BRANCH  10  18
ATOM     18  C14 <0> d          -1.330   1.944   0.019  0.00  0.00     0.148 C 
BRANCH  18  19
ATOM     19  C15 <0> d          -0.014   1.209   0.009  0.00  0.00     0.222 C 
ATOM     20  O4  <0> d           0.002  -0.004   0.002  0.00  0.00    -0.273 OA
ATOM     21  N1  <0> d           1.143   1.898   0.001  0.00  0.00    -0.352 N 
ATOM     22  H11 <0> d           1.130   2.868   0.007  0.00  0.00     0.162 HD
BRANCH  21  23
ATOM     23  C16 <0> d           2.422   1.183  -0.015  0.00  0.00     0.225 C 
BRANCH  23  24
ATOM     24  C17 <0> d           3.554   2.178  -0.020  0.00  0.00     0.235 C 
ATOM     25  O5  <0> d           3.316   3.367  -0.011  0.00  0.00    -0.272 OA
ATOM     26  N2  <0> d           4.831   1.746  -0.035  0.00  0.00    -0.350 N 
ATOM     27  H14 <0> d           5.021   0.795  -0.042  0.00  0.00     0.163 HD
BRANCH  26  28
ATOM     28  C18 <0> d           5.931   2.713  -0.040  0.00  0.00     0.235 C 
BRANCH  28  29
ATOM     29  C19 <0> d           7.246   1.977  -0.057  0.00  0.00     0.191 C 
ATOM     30  O6  <0> d           7.263   0.769  -0.063  0.00  0.00    -0.647 OA
ATOM     31  O7  <0> d           8.399   2.664  -0.064  0.00  0.00    -0.647 OA
ENDBRANCH  28  29
ENDBRANCH  26  28
ENDBRANCH  23  24
ENDBRANCH  21  23
ENDBRANCH  18  19
ENDBRANCH  10  18
TORSDOF 6
