REMARK  6 active torsions:
REMARK  status: ('A' for Active; 'I' for Inactive)
REMARK    1  A    between atoms: O1_2  and  C2_3 
REMARK    2  A    between atoms: C5_6  and  N1_9 
REMARK    3  A    between atoms: C10_13  and  C16_25 
REMARK    4  A    between atoms: C18_27  and  O7_34 
REMARK    5  A    between atoms: C19_28  and  O6_33 
REMARK    6  A    between atoms: C20_29  and  O5_31 
ROOT
ATOM      1  N1  <0> d           2.540  -2.504   4.233  0.00  0.00    -0.251 N 
ATOM      2  C8  <0> d           2.642  -3.855   4.347  0.00  0.00     0.238 C 
ATOM      3  O2  <0> d           2.047  -4.688   3.697  0.00  0.00    -0.272 OA
ATOM      4  C9  <0> d           3.637  -4.105   5.436  0.00  0.00     0.115 C 
ATOM      5  C10 <0> d           3.481  -5.324   6.310  0.00  0.00     0.076 C 
ATOM      6  C11 <0> d           4.535  -5.282   7.380  0.00  0.00     0.031 A 
ATOM      7  C12 <0> d           5.249  -4.232   7.841  0.00  0.00     0.087 A 
ATOM      8  N2  <0> d           6.159  -4.534   8.823  0.00  0.00    -0.311 N 
ATOM      9  H3  <0> d           6.718  -3.836   9.199  0.00  0.00     0.170 HD
ATOM     10  C13 <0> d           6.275  -5.801   9.266  0.00  0.00     0.289 A 
ATOM     11  O3  <0> d           7.021  -6.236  10.126  0.00  0.00    -0.260 OA
ATOM     12  S1  <0> d           5.141  -6.639   8.348  0.00  0.00    -0.030 SA
ATOM     13  S2  <0> d           4.984  -2.584   7.201  0.00  0.00    -0.096 SA
ATOM     14  C14 <0> d           3.408  -2.846   6.326  0.00  0.00     0.161 C 
ATOM     15  C15 <0> d           3.126  -1.827   5.254  0.00  0.00     0.246 C 
ATOM     16  O4  <0> d           3.370  -0.640   5.295  0.00  0.00    -0.271 OA
ENDROOT
BRANCH   5  17
ATOM     17  C16 <0> d           3.648  -6.569   5.478  0.00  0.00    -0.043 A 
ATOM     18  C21 <0> d           2.616  -7.484   5.390  0.00  0.00     0.047 A 
ATOM     19  C20 <0> d           2.764  -8.628   4.621  0.00  0.00     0.104 A 
ATOM     20  C19 <0> d           3.956  -8.859   3.945  0.00  0.00     0.132 A 
ATOM     21  C18 <0> d           4.994  -7.940   4.040  0.00  0.00     0.104 A 
ATOM     22  C17 <0> d           4.836  -6.796   4.808  0.00  0.00     0.047 A 
BRANCH  19  23
ATOM     23  O5  <0> d           1.746  -9.525   4.531  0.00  0.00    -0.353 OA
ATOM     24  C22 <0> d           0.549  -9.223   5.252  0.00  0.00     0.210 C 
ENDBRANCH  19  23
BRANCH  20  25
ATOM     25  O6  <0> d           4.107  -9.983   3.192  0.00  0.00    -0.356 OA
ATOM     26  H17 <0> d           4.467 -10.737   3.679  0.00  0.00     0.218 HD
ENDBRANCH  20  25
BRANCH  21  27
ATOM     27  O7  <0> d           6.163  -8.161   3.381  0.00  0.00    -0.353 OA
ATOM     28  C23 <0> d           7.185  -7.173   3.523  0.00  0.00     0.210 C 
ENDBRANCH  21  27
ENDBRANCH   5  17
BRANCH   1  29
ATOM     29  C5  <0> d           1.896  -1.870   3.160  0.00  0.00     0.045 A 
ATOM     30  C4  <0> d           1.835  -0.484   3.107  0.00  0.00     0.033 A 
ATOM     31  C3  <0> d           1.202   0.140   2.051  0.00  0.00     0.039 A 
ATOM     32  C2  <0> d           0.626  -0.619   1.042  0.00  0.00     0.068 A 
ATOM     33  C7  <0> d           0.682  -2.004   1.097  0.00  0.00     0.039 A 
ATOM     34  C6  <0> d           1.319  -2.628   2.150  0.00  0.00     0.033 A 
BRANCH  32  35
ATOM     35  O1  <0> d           0.002  -0.004   0.002  0.00  0.00    -0.356 OA
ATOM     36  C1  <0> d          -0.017   1.425   0.010  0.00  0.00     0.210 C 
ENDBRANCH  32  35
ENDBRANCH   1  29
TORSDOF 6
