REMARK  3 active torsions:
REMARK  status: ('A' for Active; 'I' for Inactive)
REMARK    1  A    between atoms: C4_4  and  C7_7 
REMARK    2  A    between atoms: C10_10  and  N3_16 
REMARK    3  A    between atoms: N3_16  and  C13_17 
ROOT
ATOM      1  C7  <0> d          -2.848   3.717   4.646  0.00  0.00     0.018 A 
ATOM      2  C8  <0> d          -2.163   3.067   3.674  0.00  0.00     0.038 A 
ATOM      3  C9  <0> d          -1.981   3.715   2.391  0.00  0.00     0.047 A 
ATOM      4  C10 <0> d          -1.309   3.249   1.226  0.00  0.00     0.138 A 
ATOM      5  N1  <0> d          -1.262   4.025   0.155  0.00  0.00    -0.224 NA
ATOM      6  C11 <0> d          -1.830   5.217   0.125  0.00  0.00     0.236 A 
ATOM      7  N2  <0> d          -2.466   5.704   1.173  0.00  0.00    -0.234 NA
ATOM      8  C12 <0> d          -2.556   5.002   2.284  0.00  0.00     0.113 A 
ATOM      9  S1  <0> d          -3.293   5.263   3.876  0.00  0.00    -0.069 SA
ENDROOT
BRANCH   4  10
ATOM     10  N3  <0> d          -0.708   2.004   1.215  0.00  0.00    -0.368 N 
ATOM     11  H9  <0> d          -0.742   1.442   2.005  0.00  0.00     0.161 HD
BRANCH  10  12
ATOM     12  C13 <0> d          -0.019   1.534   0.011  0.00  0.00     0.098 C 
ATOM     13  C16 <0> d           1.429   2.081  -0.000  0.00  0.00     0.165 C 
ATOM     14  S2  <0> d           2.358   0.748  -0.862  0.00  0.00     0.146 S 
ATOM     15  C15 <0> d           0.996  -0.469  -1.101  0.00  0.00     0.142 C 
ATOM     16  O1  <0> d           3.316   0.199   0.034  0.00  0.00    -0.228 OA
ATOM     17  O2  <0> d           2.781   1.224  -2.132  0.00  0.00    -0.228 OA
ATOM     18  C14 <0> d           0.002  -0.004   0.002  0.00  0.00     0.041 C 
ENDBRANCH  10  12
ENDBRANCH   4  10
BRANCH   1  19
ATOM     19  C4  <0> d          -3.153   3.256   6.017  0.00  0.00    -0.019 A 
ATOM     20  C3  <0> d          -3.878   4.073   6.887  0.00  0.00     0.013 A 
ATOM     21  C2  <0> d          -4.159   3.636   8.165  0.00  0.00     0.001 A 
ATOM     22  C1  <0> d          -3.724   2.392   8.585  0.00  0.00     0.000 A 
ATOM     23  C6  <0> d          -3.006   1.577   7.728  0.00  0.00     0.001 A 
ATOM     24  C5  <0> d          -2.723   1.999   6.446  0.00  0.00     0.013 A 
ENDBRANCH   1  19
TORSDOF 3
