REMARK  5 active torsions:
REMARK  status: ('A' for Active; 'I' for Inactive)
REMARK    1  A    between atoms: C4_4  and  C7_7 
REMARK    2  A    between atoms: C7_7  and  N1_8 
REMARK    3  A    between atoms: N1_8  and  C8_9 
REMARK    4  A    between atoms: C8_9  and  C9_10 
REMARK    5  A    between atoms: C8_9  and  P1_20 
ROOT
ATOM      1  C8  <0> d          -0.225   4.155   0.027  0.00  0.00     0.309 C 
ENDROOT
BRANCH   1   2
ATOM      2  N1  <0> d          -0.006   5.564  -0.325  0.00  0.00    -0.054 N 
ATOM      3  H10 <0> d           1.000   5.667  -0.760  0.00  0.00     0.279 HD
ATOM      4  H17 <0> d          -0.073   6.171   0.590  0.00  0.00     0.279 HD
BRANCH   2   5
ATOM      5  C7  <0> d          -1.008   6.027  -1.294  0.00  0.00     0.272 C 
BRANCH   5   6
ATOM      6  C4  <0> d          -0.751   7.473  -1.631  0.00  0.00    -0.033 A 
ATOM      7  C3  <0> d           0.081   7.801  -2.685  0.00  0.00     0.009 A 
ATOM      8  C2  <0> d           0.317   9.127  -2.994  0.00  0.00     0.001 A 
ATOM      9  C1  <0> d          -0.281  10.127  -2.248  0.00  0.00     0.000 A 
ATOM     10  C6  <0> d          -1.113   9.800  -1.194  0.00  0.00     0.001 A 
ATOM     11  C5  <0> d          -1.353   8.473  -0.889  0.00  0.00     0.009 A 
ENDBRANCH   5   6
ENDBRANCH   2   5
ENDBRANCH   1   2
BRANCH   1  12
ATOM     12  C9  <0> d           1.092   3.422   0.010  0.00  0.00     0.012 A 
ATOM     13  C14 <0> d           1.117   2.017   0.002  0.00  0.00     0.075 A 
ATOM     14  C13 <0> d           2.367   1.350  -0.013  0.00  0.00    -0.007 A 
ATOM     15  N2  <0> d          -0.016   1.307   0.009  0.00  0.00    -0.260 NA
ATOM     16  C12 <0> d           3.554   2.101  -0.020  0.00  0.00     0.014 A 
ATOM     17  C17 <0> d           2.390  -0.057  -0.021  0.00  0.00     0.015 A 
ATOM     18  C11 <0> d           3.489   3.461  -0.012  0.00  0.00     0.002 A 
ATOM     19  C10 <0> d           2.261   4.119   0.003  0.00  0.00     0.012 A 
ATOM     20  C16 <0> d           1.197  -0.721  -0.013  0.00  0.00     0.020 A 
ATOM     21  C15 <0> d           0.002  -0.004   0.002  0.00  0.00     0.117 A 
ENDBRANCH   1  12
BRANCH   1  22
ATOM     22  P1  <0> d          -1.359   3.396  -1.182  0.00  0.00     0.133 P 
ATOM     23  H2  <0> d          -2.223   3.981  -1.530  0.00  0.00     0.133 HD
ATOM     24  O1  <0> d          -0.635   3.150  -2.450  0.00  0.00    -0.668 OA
ATOM     25  O2  <0> d          -1.909   2.000  -0.599  0.00  0.00    -0.668 OA
ENDBRANCH   1  22
TORSDOF 5
