REMARK  5 active torsions:
REMARK  status: ('A' for Active; 'I' for Inactive)
REMARK    1  A    between atoms: C3_3  and  C6_7 
REMARK    2  A    between atoms: C7_10  and  S1_13 
REMARK    3  A    between atoms: N3_11  and  N4_12 
REMARK    4  A    between atoms: S1_13  and  C8_14 
REMARK    5  A    between atoms: C8_14  and  C9_15 
REMARK       I    between atoms: C9_15  and  N5_17 
ROOT
ATOM      1  C8  <0> d          -7.304   0.655   0.066  0.00  0.00     0.186 C 
ENDROOT
BRANCH   1   2
ATOM      2  S1  <0> d          -6.395  -0.873   0.425  0.00  0.00    -0.080 SA
BRANCH   2   3
ATOM      3  C7  <0> d          -4.704  -0.379   0.401  0.00  0.00     0.206 A 
ATOM      4  N2  <0> d          -4.250   0.832   0.171  0.00  0.00    -0.121 NA
ATOM      5  N1  <0> d          -2.966   0.840   0.229  0.00  0.00    -0.127 NA
ATOM      6  C6  <0> d          -2.522  -0.365   0.499  0.00  0.00     0.181 A 
ATOM      7  N3  <0> d          -3.620  -1.185   0.612  0.00  0.00    -0.235 N 
BRANCH   6   8
ATOM      8  C3  <0> d          -1.106  -0.767   0.649  0.00  0.00     0.044 A 
ATOM      9  C2  <0> d          -0.010   0.030   0.540  0.00  0.00     0.062 A 
ATOM     10  C1  <0> d          -0.021   1.507   0.240  0.00  0.00     0.077 C 
ATOM     11  O1  <0> d           1.083  -0.721   0.740  0.00  0.00    -0.326 OA
ATOM     12  C5  <0> d           0.745  -1.996   0.987  0.00  0.00     0.143 A 
ATOM     13  C4  <0> d          -0.593  -2.111   0.945  0.00  0.00     0.042 A 
ENDBRANCH   6   8
BRANCH   7  14
ATOM     14  N4  <0> d          -3.627  -2.524   0.882  0.00  0.00    -0.239 NA
ATOM     15  H6  <0> d          -3.674  -2.692   1.875  0.00  0.00     0.143 HD
ATOM     16  H7  <0> d          -4.385  -2.986   0.401  0.00  0.00     0.143 HD
ENDBRANCH   7  14
ENDBRANCH   2   3
ENDBRANCH   1   2
BRANCH   1  17
ATOM     17  C9  <0> d          -8.784   0.369   0.057  0.00  0.00     0.238 C 
ATOM     18  O2  <0> d          -9.180  -0.772  -0.048  0.00  0.00    -0.272 OA
ATOM     19  N5  <0> d          -9.667   1.382   0.166  0.00  0.00    -0.279 N 
ATOM     20  C17 <0> d          -9.194   2.701   0.162  0.00  0.00     0.059 A 
ATOM     21  C10 <0> d         -11.030   1.087   0.286  0.00  0.00     0.059 A 
ATOM     22  C16 <0> d          -9.785   3.668   0.974  0.00  0.00     0.033 A 
ATOM     23  C18 <0> d          -8.134   3.062  -0.655  0.00  0.00     0.031 A 
ATOM     24  S2  <0> d         -11.130   3.194   2.016  0.00  0.00    -0.086 SA
ATOM     25  C21 <0> d          -9.323   4.971   0.965  0.00  0.00     0.021 A 
ATOM     26  C15 <0> d         -11.848   1.853   1.120  0.00  0.00     0.033 A 
ATOM     27  C14 <0> d         -13.195   1.564   1.239  0.00  0.00     0.021 A 
ATOM     28  C13 <0> d         -13.736   0.508   0.525  0.00  0.00     0.002 A 
ATOM     29  C12 <0> d         -12.931  -0.254  -0.301  0.00  0.00     0.002 A 
ATOM     30  C11 <0> d         -11.582   0.031  -0.423  0.00  0.00     0.031 A 
ATOM     31  C20 <0> d          -8.265   5.317   0.155  0.00  0.00     0.002 A 
ATOM     32  C19 <0> d          -7.675   4.366  -0.655  0.00  0.00     0.002 A 
ENDBRANCH   1  17
TORSDOF 5
