REMARK  6 active torsions:
REMARK  status: ('A' for Active; 'I' for Inactive)
REMARK    1  A    between atoms: N2_10  and  C9_11 
REMARK    2  A    between atoms: C9_11  and  C10_12 
REMARK    3  A    between atoms: C10_12  and  N3_13 
REMARK       I    between atoms: N3_13  and  C11_14 
REMARK       I    between atoms: C11_14  and  N4_16 
REMARK    4  A    between atoms: N4_16  and  C12_17 
REMARK    5  A    between atoms: C12_17  and  C13_18 
REMARK    6  A    between atoms: C13_18  and  O2_28 
ROOT
ATOM      1  N3  <0> d          -1.417   0.803   4.266  0.00  0.00    -0.342 N 
ATOM      2  C11 <0> d          -2.577   0.859   4.950  0.00  0.00     0.316 C 
ATOM      3  O1  <0> d          -3.635   0.737   4.364  0.00  0.00    -0.247 OA
ATOM      4  N4  <0> d          -2.563   1.051   6.284  0.00  0.00    -0.340 N 
ATOM      5  H12 <0> d          -0.573   0.901   4.733  0.00  0.00     0.164 HD
ATOM      6  H13 <0> d          -1.719   1.148   6.752  0.00  0.00     0.164 HD
ENDROOT
BRANCH   1   7
ATOM      7  C10 <0> d          -1.432   0.595   2.816  0.00  0.00     0.144 C 
BRANCH   7   8
ATOM      8  C9  <0> d           0.005   0.571   2.289  0.00  0.00     0.150 C 
BRANCH   8   9
ATOM      9  N2  <0> d          -0.010   0.363   0.839  0.00  0.00    -0.332 N 
ATOM     10  C2  <0> d          -0.057   1.332  -0.114  0.00  0.00     0.103 A 
ATOM     11  C1  <0> d          -0.103   2.813   0.162  0.00  0.00     0.091 C 
ATOM     12  N1  <0> d          -0.051   0.794  -1.299  0.00  0.00    -0.234 NA
ATOM     13  C3  <0> d          -0.005  -0.558  -1.186  0.00  0.00     0.085 A 
ATOM     14  C8  <0> d           0.018  -0.854   0.187  0.00  0.00     0.065 A 
ATOM     15  C4  <0> d           0.020  -1.602  -2.115  0.00  0.00     0.034 A 
ATOM     16  C7  <0> d           0.065  -2.176   0.608  0.00  0.00     0.032 A 
ATOM     17  C6  <0> d           0.088  -3.189  -0.326  0.00  0.00     0.002 A 
ATOM     18  C5  <0> d           0.067  -2.897  -1.682  0.00  0.00     0.002 A 
ENDBRANCH   8   9
ENDBRANCH   7   8
ENDBRANCH   1   7
BRANCH   4  19
ATOM     19  C12 <0> d          -3.824   1.112   7.029  0.00  0.00     0.167 C 
BRANCH  19  20
ATOM     20  C13 <0> d          -3.537   1.470   8.488  0.00  0.00     0.101 C 
ATOM     21  C18 <0> d          -4.839   1.567   9.240  0.00  0.00    -0.016 A 
ATOM     22  C17 <0> d          -5.095   2.567  10.152  0.00  0.00    -0.049 A 
ATOM     23  C19 <0> d          -5.805   0.602   8.990  0.00  0.00     0.011 A 
ATOM     24  C16 <0> d          -4.097   3.651  10.468  0.00  0.00     0.039 C 
ATOM     25  C22 <0> d          -6.314   2.596  10.817  0.00  0.00     0.007 A 
ATOM     26  C15 <0> d          -2.699   3.245  10.007  0.00  0.00     0.008 C 
ATOM     27  C14 <0> d          -2.784   2.797   8.543  0.00  0.00     0.045 C 
ATOM     28  C21 <0> d          -7.271   1.634  10.568  0.00  0.00     0.001 A 
ATOM     29  C20 <0> d          -7.016   0.633   9.650  0.00  0.00     0.001 A 
BRANCH  20  30
ATOM     30  O2  <0> d          -2.731   0.446   9.075  0.00  0.00    -0.383 OA
ATOM     31  H26 <0> d          -3.140  -0.430   9.068  0.00  0.00     0.211 HD
ENDBRANCH  20  30
ENDBRANCH  19  20
ENDBRANCH   4  19
TORSDOF 6
