REMARK  7 active torsions:
REMARK  status: ('A' for Active; 'I' for Inactive)
REMARK    1  A    between atoms: N1_2  and  C2_3 
REMARK    2  A    between atoms: N1_2  and  C8_10 
REMARK    3  A    between atoms: C5_6  and  O1_9 
REMARK    4  A    between atoms: C8_10  and  C9_11 
REMARK    5  A    between atoms: C8_10  and  C10_13 
REMARK    6  A    between atoms: C9_11  and  N2_12 
REMARK    7  A    between atoms: C15_18  and  C16_19 
ROOT
ATOM      1  C8  <0> d          -0.980   3.266  -1.431  0.00  0.00     0.143 C 
ENDROOT
BRANCH   1   2
ATOM      2  N1  <0> d          -1.294   3.577  -0.034  0.00  0.00    -0.375 N 
ATOM      3  C1  <0> d          -2.530   3.074   0.569  0.00  0.00     0.150 C 
BRANCH   2   4
ATOM      4  C2  <0> d          -0.411   4.355   0.724  0.00  0.00     0.030 A 
ATOM      5  C7  <0> d          -0.747   4.721   2.020  0.00  0.00     0.032 A 
ATOM      6  C6  <0> d           0.125   5.489   2.768  0.00  0.00     0.039 A 
ATOM      7  C5  <0> d           1.335   5.894   2.224  0.00  0.00     0.065 A 
ATOM      8  C4  <0> d           1.671   5.527   0.929  0.00  0.00     0.039 A 
ATOM      9  C3  <0> d           0.803   4.755   0.182  0.00  0.00     0.032 A 
BRANCH   7  10
ATOM     10  O1  <0> d           2.192   6.649   2.961  0.00  0.00    -0.361 OA
ATOM     11  H9  <0> d           1.926   6.940   3.988  0.00  0.00     0.217 HD
ENDBRANCH   7  10
ENDBRANCH   2   4
ENDBRANCH   1   2
BRANCH   1  12
ATOM     12  C9  <0> d          -0.736   1.762  -1.576  0.00  0.00     0.259 C 
BRANCH  12  13
ATOM     13  N2  <0> d           0.345   1.353  -0.670  0.00  0.00    -0.077 N 
ATOM     14  H12 <0> d           0.521   0.272  -0.774  0.00  0.00     0.274 HD
ATOM     15  H13 <0> d           0.060   1.579   0.368  0.00  0.00     0.274 HD
ATOM     16  H18 <0> d           1.265   1.900  -0.925  0.00  0.00     0.274 HD
ENDBRANCH  12  13
ENDBRANCH   1  12
BRANCH   1  17
ATOM     17  C10 <0> d          -2.136   3.674  -2.308  0.00  0.00    -0.019 A 
ATOM     18  C15 <0> d          -2.321   5.004  -2.634  0.00  0.00     0.056 A 
ATOM     19  C14 <0> d          -3.379   5.378  -3.442  0.00  0.00     0.017 A 
ATOM     20  C13 <0> d          -4.257   4.422  -3.916  0.00  0.00     0.001 A 
ATOM     21  C12 <0> d          -4.075   3.091  -3.586  0.00  0.00     0.001 A 
ATOM     22  C11 <0> d          -3.015   2.717  -2.782  0.00  0.00     0.010 A 
BRANCH  18  23
ATOM     23  C16 <0> d          -1.366   6.047  -2.112  0.00  0.00     0.418 C 
ATOM     24  F1  <0> d          -1.694   7.293  -2.656  0.00  0.00    -0.166 F 
ATOM     25  F2  <0> d          -1.459   6.108  -0.718  0.00  0.00    -0.166 F 
ATOM     26  F3  <0> d          -0.059   5.708  -2.478  0.00  0.00    -0.166 F 
ENDBRANCH  18  23
ENDBRANCH   1  17
TORSDOF 7
