REMARK  4 active torsions:
REMARK  status: ('A' for Active; 'I' for Inactive)
REMARK    1  A    between atoms: C2_2  and  C9_13 
REMARK    2  A    between atoms: N1_3  and  N2_4 
REMARK       I    between atoms: N2_4  and  C3_5 
REMARK    3  A    between atoms: C3_5  and  C4_7 
REMARK    4  A    between atoms: C24_28  and  O2_30 
ROOT
ATOM      1  C9  <0> d           2.872  -0.244   1.063  0.00  0.00     0.043 C 
ATOM      2  C10 <0> d           2.499  -1.279  -0.018  0.00  0.00     0.011 C 
ATOM      3  C11 <0> d           1.047  -1.716   0.276  0.00  0.00     0.006 C 
ATOM      4  C12 <0> d           0.449  -0.516   1.069  0.00  0.00    -0.001 C 
ATOM      5  C13 <0> d           1.625  -0.105   1.974  0.00  0.00    -0.031 C 
ATOM      6  C14 <0> d           1.462   1.277   2.564  0.00  0.00     0.011 C 
ATOM      7  C15 <0> d           1.209   2.302   1.484  0.00  0.00     0.006 C 
ATOM      8  C16 <0> d          -0.073   1.922   0.735  0.00  0.00    -0.002 C 
ATOM      9  C17 <0> d           0.148   0.578   0.044  0.00  0.00    -0.005 C 
ATOM     10  C18 <0> d           1.329   0.689  -0.923  0.00  0.00     0.006 C 
ATOM     11  C19 <0> d           1.027   1.759  -1.974  0.00  0.00     0.006 C 
ATOM     12  C20 <0> d           0.801   3.105  -1.284  0.00  0.00    -0.004 C 
ATOM     13  C21 <0> d          -0.379   2.992  -0.316  0.00  0.00    -0.036 C 
ATOM     14  C22 <0> d          -1.638   2.599  -1.091  0.00  0.00     0.012 C 
ATOM     15  C23 <0> d          -1.943   3.666  -2.144  0.00  0.00     0.032 C 
ATOM     16  C24 <0> d          -0.763   3.781  -3.111  0.00  0.00     0.118 C 
ATOM     17  C25 <0> d           0.496   4.173  -2.336  0.00  0.00     0.037 C 
ATOM     18  C26 <0> d          -0.602   4.338   0.376  0.00  0.00     0.016 C 
ATOM     19  C27 <0> d           1.739  -1.106   3.124  0.00  0.00     0.016 C 
ENDROOT
BRANCH   1  20
ATOM     20  C2  <0> d           4.049  -0.733   1.867  0.00  0.00     0.033 C 
ATOM     21  C1  <0> d           4.141  -2.184   2.261  0.00  0.00     0.068 C 
ATOM     22  N1  <0> d           4.971   0.085   2.214  0.00  0.00    -0.181 NA
BRANCH  22  23
ATOM     23  N2  <0> d           4.791   1.462   2.030  0.00  0.00    -0.243 N 
ATOM     24  C3  <0> d           5.779   2.319   2.354  0.00  0.00     0.271 C 
ATOM     25  O1  <0> d           6.867   1.894   2.691  0.00  0.00    -0.266 OA
ATOM     26  H10 <0> d           3.956   1.798   1.670  0.00  0.00     0.192 HD
BRANCH  24  27
ATOM     27  C4  <0> d           5.540   3.780   2.300  0.00  0.00     0.036 A 
ATOM     28  C8  <0> d           6.574   4.687   2.548  0.00  0.00     0.036 A 
ATOM     29  C7  <0> d           6.306   6.041   2.487  0.00  0.00     0.117 A 
ATOM     30  N3  <0> d           5.097   6.479   2.199  0.00  0.00    -0.273 NA
ATOM     31  C6  <0> d           4.094   5.659   1.958  0.00  0.00     0.117 A 
ATOM     32  C5  <0> d           4.274   4.289   1.994  0.00  0.00     0.036 A 
ENDBRANCH  24  27
ENDBRANCH  22  23
ENDBRANCH   1  20
BRANCH  16  33
ATOM     33  O2  <0> d          -0.553   2.523  -3.756  0.00  0.00    -0.396 OA
ATOM     34  H33 <0> d          -1.312   2.211  -4.268  0.00  0.00     0.210 HD
ENDBRANCH  16  33
TORSDOF 4
