REMARK  7 active torsions:
REMARK  status: ('A' for Active; 'I' for Inactive)
REMARK    1  A    between atoms: S1_2  and  C2_3 
REMARK    2  A    between atoms: C5_6  and  C8_9 
REMARK    3  A    between atoms: C8_9  and  N1_10 
REMARK    4  A    between atoms: C14_17  and  C18_21 
REMARK    5  A    between atoms: C18_21  and  N2_22 
REMARK    6  A    between atoms: C23_27  and  C24_28 
REMARK    7  A    between atoms: C24_28  and  O2_29 
ROOT
ATOM      1  N1  <0> d          -6.652  -2.511  -2.131  0.00  0.00     0.099 N 
ATOM      2  C9  <0> d          -6.144  -3.586  -2.978  0.00  0.00     0.299 C 
ATOM      3  C10 <0> d          -6.445  -3.393  -4.449  0.00  0.00     0.206 C 
ATOM      4  O1  <0> d          -7.857  -3.447  -4.689  0.00  0.00    -0.349 OA
ATOM      5  C11 <0> d          -8.522  -2.272  -4.519  0.00  0.00     0.076 A 
ATOM      6  C12 <0> d          -9.064  -1.612  -5.614  0.00  0.00     0.038 A 
ATOM      7  C13 <0> d          -9.718  -0.409  -5.431  0.00  0.00     0.011 A 
ATOM      8  C14 <0> d          -9.831   0.138  -4.166  0.00  0.00    -0.032 A 
ATOM      9  C15 <0> d          -9.299  -0.525  -3.074  0.00  0.00     0.020 A 
ATOM     10  C16 <0> d          -8.656  -1.732  -3.254  0.00  0.00     0.004 A 
ATOM     11  C17 <0> d          -8.117  -2.495  -2.059  0.00  0.00     0.314 C 
ENDROOT
BRANCH   8  12
ATOM     12  C18 <0> d         -10.535   1.456  -3.976  0.00  0.00     0.274 C 
BRANCH  12  13
ATOM     13  N2  <0> d         -11.964   1.218  -3.734  0.00  0.00    -0.061 N 
ATOM     14  C23 <0> d         -12.668   2.504  -3.658  0.00  0.00     0.211 C 
ATOM     15  C22 <0> d         -14.168   2.260  -3.487  0.00  0.00     0.035 C 
ATOM     16  C21 <0> d         -14.407   1.469  -2.198  0.00  0.00     0.004 C 
ATOM     17  C20 <0> d         -13.610   0.163  -2.257  0.00  0.00     0.028 C 
ATOM     18  C19 <0> d         -12.130   0.485  -2.473  0.00  0.00     0.236 C 
ATOM     19  H33 <0> d         -12.346   0.671  -4.491  0.00  0.00     0.280 HD
BRANCH  14  20
ATOM     20  C24 <0> d         -12.424   3.295  -4.945  0.00  0.00     0.197 C 
BRANCH  20  21
ATOM     21  O2  <0> d         -12.984   2.587  -6.053  0.00  0.00    -0.399 OA
ATOM     22  H32 <0> d         -12.866   3.030  -6.904  0.00  0.00     0.209 HD
ENDBRANCH  20  21
ENDBRANCH  14  20
ENDBRANCH  12  13
ENDBRANCH   8  12
BRANCH   1  23
ATOM     23  C8  <0> d          -6.060  -2.575  -0.787  0.00  0.00     0.311 C 
BRANCH  23  24
ATOM     24  C5  <0> d          -4.574  -2.344  -0.881  0.00  0.00    -0.030 A 
ATOM     25  C4  <0> d          -4.069  -1.060  -0.791  0.00  0.00     0.010 A 
ATOM     26  C3  <0> d          -2.708  -0.844  -0.876  0.00  0.00     0.019 A 
ATOM     27  C2  <0> d          -1.845  -1.919  -1.054  0.00  0.00    -0.000 A 
ATOM     28  C7  <0> d          -2.357  -3.208  -1.150  0.00  0.00     0.019 A 
ATOM     29  C6  <0> d          -3.719  -3.416  -1.058  0.00  0.00     0.010 A 
BRANCH  27  30
ATOM     30  S1  <0> d          -0.108  -1.648  -1.164  0.00  0.00    -0.134 SA
ATOM     31  C1  <0> d           0.069   0.148  -0.987  0.00  0.00     0.095 C 
ENDBRANCH  27  30
ENDBRANCH  23  24
ENDBRANCH   1  23
TORSDOF 7
