REMARK  6 active torsions:
REMARK  status: ('A' for Active; 'I' for Inactive)
REMARK    1  A    between atoms: C2_2  and  C3_4 
REMARK    2  A    between atoms: C4_5  and  C8_16 
REMARK    3  A    between atoms: C6_10  and  C7_11 
REMARK    4  A    between atoms: C6_10  and  O3_15 
REMARK    5  A    between atoms: N3_18  and  C15_26 
REMARK    6  A    between atoms: C10_20  and  C11_21 
ROOT
ATOM      1  C3  <0> d           0.331  -2.688  -2.665  0.00  0.00     0.147 C 
ATOM      2  C4  <0> d           0.408  -2.813  -1.139  0.00  0.00     0.139 C 
ATOM      3  N1  <0> d           0.081  -4.187  -0.753  0.00  0.00    -0.333 N 
ATOM      4  C5  <0> d          -0.744  -4.942  -1.494  0.00  0.00     0.319 C 
ATOM      5  O2  <0> d          -0.991  -6.073  -1.122  0.00  0.00    -0.247 OA
ATOM      6  N2  <0> d          -1.307  -4.500  -2.628  0.00  0.00    -0.303 N 
ATOM      7  C6  <0> d          -1.057  -3.146  -3.126  0.00  0.00     0.248 C 
ATOM      8  H6  <0> d           0.468  -4.558   0.055  0.00  0.00     0.165 HD
ATOM      9  H7  <0> d          -1.889  -5.090  -3.131  0.00  0.00     0.167 HD
ENDROOT
BRANCH   2  10
ATOM     10  C8  <0> d           1.802  -2.477  -0.676  0.00  0.00     0.015 A 
ATOM     11  C10 <0> d           2.195  -2.219   0.654  0.00  0.00     0.104 A 
ATOM     12  N4  <0> d           3.489  -1.967   0.655  0.00  0.00    -0.166 NA
ATOM     13  N3  <0> d           3.950  -2.050  -0.665  0.00  0.00    -0.244 N 
ATOM     14  C9  <0> d           2.894  -2.364  -1.461  0.00  0.00     0.130 A 
BRANCH  11  15
ATOM     15  C11 <0> d           1.311  -2.231   1.839  0.00  0.00     0.035 A 
ATOM     16  S1  <0> d          -0.338  -1.570   2.020  0.00  0.00    -0.100 SA
ATOM     17  C14 <0> d          -0.608  -2.028   3.724  0.00  0.00     0.050 A 
ATOM     18  C13 <0> d           0.561  -2.639   4.043  0.00  0.00     0.008 A 
ATOM     19  C12 <0> d           1.547  -2.746   3.086  0.00  0.00     0.022 A 
ENDBRANCH  11  15
BRANCH  13  20
ATOM     20  C15 <0> d           5.269  -1.845  -1.091  0.00  0.00     0.058 A 
ATOM     21  C20 <0> d           6.256  -1.527  -0.167  0.00  0.00     0.031 A 
ATOM     22  C19 <0> d           7.557  -1.331  -0.589  0.00  0.00     0.002 A 
ATOM     23  C18 <0> d           7.874  -1.440  -1.931  0.00  0.00     0.000 A 
ATOM     24  C17 <0> d           6.892  -1.750  -2.853  0.00  0.00     0.002 A 
ATOM     25  C16 <0> d           5.590  -1.953  -2.437  0.00  0.00     0.031 A 
ENDBRANCH  13  20
ENDBRANCH   2  10
BRANCH   1  26
ATOM     26  C2  <0> d           0.550  -1.252  -3.066  0.00  0.00     0.134 C 
ATOM     27  C1  <0> d           1.516  -0.919  -4.173  0.00  0.00     0.091 C 
ATOM     28  O1  <0> d          -0.049  -0.369  -2.501  0.00  0.00    -0.298 OA
ENDBRANCH   1  26
BRANCH   7  29
ATOM     29  C7  <0> d          -1.115  -3.140  -4.655  0.00  0.00     0.438 C 
ATOM     30  F1  <0> d          -0.051  -3.891  -5.165  0.00  0.00    -0.166 F 
ATOM     31  F2  <0> d          -2.326  -3.700  -5.078  0.00  0.00    -0.166 F 
ATOM     32  F3  <0> d          -1.022  -1.824  -5.120  0.00  0.00    -0.166 F 
ENDBRANCH   7  29
BRANCH   7  33
ATOM     33  O3  <0> d          -2.050  -2.259  -2.606  0.00  0.00    -0.363 OA
ATOM     34  H8  <0> d          -2.954  -2.489  -2.859  0.00  0.00     0.213 HD
ENDBRANCH   7  33
TORSDOF 6
