REMARK  6 active torsions:
REMARK  status: ('A' for Active; 'I' for Inactive)
REMARK    1  A    between atoms: N1_2  and  C3_4 
REMARK    2  A    between atoms: C3_4  and  C4_5 
REMARK    3  A    between atoms: C3_4  and  C15_21 
REMARK    4  A    between atoms: C4_5  and  N2_6 
REMARK       I    between atoms: N2_6  and  C5_7 
REMARK    5  A    between atoms: C5_7  and  C6_9 
REMARK    6  A    between atoms: C20_26  and  O3_27 
ROOT
ATOM      1  N2  <0> d           3.424  -3.082  -1.311  0.00  0.00    -0.353 N 
ATOM      2  C5  <0> d           3.292  -1.938  -2.011  0.00  0.00     0.268 C 
ATOM      3  O1  <0> d           4.186  -1.113  -2.001  0.00  0.00    -0.266 OA
ATOM      4  H11 <0> d           2.616  -3.828  -1.321  0.00  0.00     0.162 HD
ENDROOT
BRANCH   1   5
ATOM      5  C4  <0> d           4.643  -3.332  -0.538  0.00  0.00     0.161 C 
BRANCH   5   6
ATOM      6  C3  <0> d           4.443  -4.564   0.346  0.00  0.00     0.240 C 
BRANCH   6   7
ATOM      7  N1  <0> d           3.406  -4.285   1.347  0.00  0.00    -0.069 N 
ATOM      8  C1  <0> d           3.513  -2.908   1.847  0.00  0.00     0.270 C 
ATOM      9  C2  <0> d           2.066  -4.546   0.804  0.00  0.00     0.270 C 
ATOM     10  H24 <0> d           3.565  -4.966   2.197  0.00  0.00     0.279 HD
ENDBRANCH   6   7
BRANCH   6  11
ATOM     11  C15 <0> d           5.737  -4.898   1.042  0.00  0.00     0.007 A 
ATOM     12  C20 <0> d           6.766  -5.509   0.340  0.00  0.00     0.076 A 
ATOM     13  C19 <0> d           7.956  -5.815   0.984  0.00  0.00     0.037 A 
ATOM     14  C18 <0> d           8.114  -5.511   2.322  0.00  0.00     0.003 A 
ATOM     15  C17 <0> d           7.088  -4.901   3.020  0.00  0.00     0.001 A 
ATOM     16  C16 <0> d           5.902  -4.591   2.379  0.00  0.00     0.012 A 
BRANCH  12  17
ATOM     17  O3  <0> d           6.608  -5.808  -0.976  0.00  0.00    -0.355 OA
ATOM     18  C21 <0> d           7.709  -6.437  -1.635  0.00  0.00     0.210 C 
ENDBRANCH  12  17
ENDBRANCH   6  11
ENDBRANCH   5   6
ENDBRANCH   1   5
BRANCH   2  19
ATOM     19  C6  <0> d           2.065  -1.686  -2.789  0.00  0.00     0.104 A 
ATOM     20  N3  <0> d           1.067  -2.636  -2.786  0.00  0.00    -0.318 N 
ATOM     21  C14 <0> d          -0.080  -2.471  -3.474  0.00  0.00     0.257 A 
ATOM     22  H2  <0> d           1.192  -3.564  -2.208  0.00  0.00     0.169 HD
ATOM     23  C13 <0> d          -0.283  -1.244  -4.257  0.00  0.00     0.042 A 
ATOM     24  O2  <0> d          -0.940  -3.332  -3.449  0.00  0.00    -0.267 OA
ATOM     25  C8  <0> d           0.741  -0.269  -4.261  0.00  0.00    -0.018 A 
ATOM     26  C12 <0> d          -1.451  -1.021  -4.982  0.00  0.00     0.018 A 
ATOM     27  C7  <0> d           1.954  -0.528  -3.485  0.00  0.00     0.048 A 
ATOM     28  C9  <0> d           0.575   0.906  -4.995  0.00  0.00     0.012 A 
ATOM     29  C10 <0> d          -0.587   1.103  -5.709  0.00  0.00     0.001 A 
ATOM     30  C11 <0> d          -1.592   0.144  -5.705  0.00  0.00     0.001 A 
ENDBRANCH   2  19
TORSDOF 6
