REMARK  4 active torsions:
REMARK  status: ('A' for Active; 'I' for Inactive)
REMARK    1  A    between atoms: C5_5  and  O1_8 
REMARK    2  A    between atoms: O1_8  and  C8_9 
REMARK    3  A    between atoms: C11_12  and  S1_16 
REMARK    4  A    between atoms: C13_14  and  N1_15 
ROOT
ATOM      1  C8  <0> d           0.176  -4.772   1.172  0.00  0.00     0.102 A 
ATOM      2  C9  <0> d           0.165  -4.050   2.354  0.00  0.00     0.041 A 
ATOM      3  C10 <0> d           0.286  -4.705   3.566  0.00  0.00     0.026 A 
ATOM      4  C11 <0> d           0.419  -6.081   3.602  0.00  0.00     0.061 A 
ATOM      5  C12 <0> d           0.431  -6.809   2.426  0.00  0.00     0.055 A 
ATOM      6  C13 <0> d           0.303  -6.159   1.207  0.00  0.00     0.061 A 
ENDROOT
BRANCH   1   7
ATOM      7  O1  <0> d           0.057  -4.129  -0.021  0.00  0.00    -0.309 OA
BRANCH   7   8
ATOM      8  C5  <0> d           0.059  -2.770  -0.016  0.00  0.00     0.076 A 
ATOM      9  C4  <0> d          -1.091  -2.072  -0.356  0.00  0.00     0.038 A 
ATOM     10  C3  <0> d          -1.086  -0.691  -0.350  0.00  0.00     0.009 A 
ATOM     11  C2  <0> d           0.063  -0.004  -0.004  0.00  0.00    -0.062 A 
ATOM     12  C1  <0> d           0.065   1.503   0.003  0.00  0.00     0.048 C 
ATOM     13  C7  <0> d           1.211  -0.697   0.331  0.00  0.00     0.009 A 
ATOM     14  C6  <0> d           1.211  -2.078   0.331  0.00  0.00     0.038 A 
ENDBRANCH   7   8
ENDBRANCH   1   7
BRANCH   6  15
ATOM     15  N1  <0> d           0.308  -6.894   0.017  0.00  0.00    -0.397 N 
ATOM     16  H11 <0> d           0.223  -6.438  -0.835  0.00  0.00     0.156 HD
ATOM     17  H12 <0> d           0.397  -7.860   0.043  0.00  0.00     0.156 HD
ENDBRANCH   6  15
BRANCH   4  18
ATOM     18  S1  <0> d           0.573  -6.909   5.149  0.00  0.00     0.172 S 
ATOM     19  O2  <0> d           1.279  -8.106   4.851  0.00  0.00    -0.223 OA
ATOM     20  O3  <0> d           1.130  -5.939   6.025  0.00  0.00    -0.223 OA
ATOM     21  C14 <0> d          -1.129  -7.294   5.644  0.00  0.00     0.167 C 
ENDBRANCH   4  18
TORSDOF 4
