REMARK  2 active torsions:
REMARK  status: ('A' for Active; 'I' for Inactive)
REMARK    1  A    between atoms: C5_5  and  N1_9 
REMARK    2  A    between atoms: C19_24  and  N2_29 
ROOT
ATOM      1  N1  <0> d           0.108  -4.148   0.101  0.00  0.00    -0.251 N 
ATOM      2  C8  <0> d           0.222  -4.919   1.191  0.00  0.00     0.238 A 
ATOM      3  O1  <0> d           0.352  -4.518   2.327  0.00  0.00    -0.272 OA
ATOM      4  C9  <0> d           0.163  -6.372   0.772  0.00  0.00     0.115 A 
ATOM      5  C10 <0> d           1.386  -7.118   1.272  0.00  0.00     0.078 C 
ATOM      6  C11 <0> d           1.371  -7.119   2.781  0.00  0.00    -0.014 A 
ATOM      7  C12 <0> d           0.219  -7.542   3.426  0.00  0.00     0.011 A 
ATOM      8  C13 <0> d           0.156  -7.559   4.805  0.00  0.00     0.001 A 
ATOM      9  C14 <0> d           1.248  -7.151   5.550  0.00  0.00     0.003 A 
ATOM     10  C15 <0> d           2.396  -6.729   4.914  0.00  0.00     0.038 A 
ATOM     11  C16 <0> d           2.463  -6.712   3.523  0.00  0.00     0.086 A 
ATOM     12  O2  <0> d           3.614  -6.295   2.941  0.00  0.00    -0.275 OA
ATOM     13  C17 <0> d           3.675  -6.091   1.616  0.00  0.00     0.298 C 
ATOM     14  O3  <0> d           4.650  -5.530   1.148  0.00  0.00    -0.259 OA
ATOM     15  C18 <0> d           2.659  -6.491   0.778  0.00  0.00     0.060 C 
ATOM     16  C19 <0> d           2.823  -6.372  -0.599  0.00  0.00     0.077 C 
ATOM     17  S1  <0> d           1.483  -7.001  -1.574  0.00  0.00    -0.097 SA
ATOM     18  C20 <0> d           0.035  -6.312  -0.750  0.00  0.00     0.161 A 
ATOM     19  C21 <0> d          -0.019  -4.827  -1.047  0.00  0.00     0.246 A 
ATOM     20  O4  <0> d          -0.153  -4.333  -2.146  0.00  0.00    -0.271 OA
ENDROOT
BRANCH   1  21
ATOM     21  C5  <0> d           0.114  -2.747   0.158  0.00  0.00     0.047 A 
ATOM     22  C4  <0> d          -0.937  -2.071   0.763  0.00  0.00     0.031 A 
ATOM     23  C3  <0> d          -0.929  -0.691   0.818  0.00  0.00     0.011 A 
ATOM     24  C2  <0> d           0.125   0.018   0.272  0.00  0.00    -0.040 A 
ATOM     25  C1  <0> d           0.131   1.524   0.333  0.00  0.00     0.050 C 
ATOM     26  C7  <0> d           1.171  -0.652  -0.337  0.00  0.00     0.042 A 
ATOM     27  C6  <0> d           1.170  -2.034  -0.391  0.00  0.00     0.054 A 
ATOM     28 Cl1  <0> d           2.490   0.242  -1.028  0.00  0.00    -0.084 Cl
ENDBRANCH   1  21
BRANCH  16  29
ATOM     29  N2  <0> d           3.941  -5.809  -1.161  0.00  0.00    -0.393 N 
ATOM     30  H14 <0> d           4.224  -6.076  -2.049  0.00  0.00     0.156 HD
ATOM     31  H15 <0> d           4.448  -5.144  -0.669  0.00  0.00     0.156 HD
ENDBRANCH  16  29
TORSDOF 2
