REMARK  6 active torsions:
REMARK  status: ('A' for Active; 'I' for Inactive)
REMARK    1  A    between atoms: C7_7  and  C12_15 
REMARK    2  A    between atoms: C12_15  and  C13_16 
REMARK    3  A    between atoms: C12_15  and  N6_35 
REMARK    4  A    between atoms: N5_20  and  C14_21 
REMARK    5  A    between atoms: C14_21  and  C15_22 
REMARK    6  A    between atoms: C23_30  and  O2_33 
ROOT
ATOM      1  C12 <0> d           4.959   1.184  -0.038  0.00  0.00     0.299 C 
ENDROOT
BRANCH   1   2
ATOM      2  C7  <0> d           3.634   1.901   0.007  0.00  0.00     0.049 A 
ATOM      3  C6  <0> d           2.486   1.192   0.144  0.00  0.00     0.029 A 
ATOM      4  C5  <0> d           1.216   1.919   0.184  0.00  0.00    -0.008 A 
ATOM      5  C4  <0> d          -0.000   1.243   0.324  0.00  0.00     0.014 A 
ATOM      6  C9  <0> d           1.230   3.323   0.080  0.00  0.00     0.051 A 
ATOM      7  C3  <0> d          -1.169   1.950   0.352  0.00  0.00     0.008 A 
ATOM      8  C2  <0> d          -1.159   3.335   0.255  0.00  0.00    -0.054 A 
ATOM      9  C1  <0> d          -2.460   4.095   0.294  0.00  0.00     0.049 C 
ATOM     10  C10 <0> d           0.028   4.022   0.117  0.00  0.00    -0.028 A 
ATOM     11  C11 <0> d           0.023   5.525   0.007  0.00  0.00     0.051 C 
ATOM     12  N1  <0> d           2.431   3.985  -0.058  0.00  0.00    -0.322 N 
ATOM     13  C8  <0> d           3.593   3.308  -0.093  0.00  0.00     0.254 A 
ATOM     14  H1  <0> d           2.439   4.952  -0.130  0.00  0.00     0.169 HD
ATOM     15  O1  <0> d           4.637   3.926  -0.215  0.00  0.00    -0.268 OA
ENDBRANCH   1   2
BRANCH   1  16
ATOM     16  C13 <0> d           5.763   1.537   1.186  0.00  0.00     0.184 A 
ATOM     17  N5  <0> d           5.976   0.755   2.261  0.00  0.00    -0.228 N 
ATOM     18  N4  <0> d           6.714   1.427   3.079  0.00  0.00    -0.044 NA
ATOM     19  N3  <0> d           6.958   2.582   2.566  0.00  0.00    -0.023 NA
ATOM     20  N2  <0> d           6.388   2.667   1.413  0.00  0.00    -0.111 NA
BRANCH  17  21
ATOM     21  C14 <0> d           5.467  -0.604   2.463  0.00  0.00     0.193 C 
BRANCH  21  22
ATOM     22  C15 <0> d           6.460  -1.598   1.918  0.00  0.00    -0.038 A 
ATOM     23  C20 <0> d           7.457  -2.098   2.735  0.00  0.00     0.009 A 
ATOM     24  C19 <0> d           8.368  -3.010   2.235  0.00  0.00     0.001 A 
ATOM     25  C18 <0> d           8.281  -3.422   0.918  0.00  0.00     0.000 A 
ATOM     26  C17 <0> d           7.284  -2.922   0.101  0.00  0.00     0.001 A 
ATOM     27  C16 <0> d           6.371  -2.014   0.603  0.00  0.00     0.009 A 
ENDBRANCH  21  22
ENDBRANCH  17  21
ENDBRANCH   1  16
BRANCH   1  28
ATOM     28  N6  <0> d           5.697   1.621  -1.241  0.00  0.00    -0.055 N 
ATOM     29  C21 <0> d           7.053   1.032  -1.243  0.00  0.00     0.238 C 
ATOM     30  C22 <0> d           7.836   1.592  -2.432  0.00  0.00     0.059 C 
ATOM     31  C23 <0> d           7.113   1.226  -3.731  0.00  0.00     0.121 C 
ATOM     32  C24 <0> d           5.686   1.779  -3.684  0.00  0.00     0.059 C 
ATOM     33  C25 <0> d           4.965   1.213  -2.459  0.00  0.00     0.238 C 
ATOM     34  H29 <0> d           5.779   2.644  -1.228  0.00  0.00     0.281 HD
BRANCH  31  35
ATOM     35  O2  <0> d           7.809   1.795  -4.842  0.00  0.00    -0.395 OA
ATOM     36  H28 <0> d           8.722   1.488  -4.933  0.00  0.00     0.210 HD
ENDBRANCH  31  35
ENDBRANCH   1  28
TORSDOF 6
