REMARK  7 active torsions:
REMARK  status: ('A' for Active; 'I' for Inactive)
REMARK    1  A    between atoms: N1_2  and  C3_4 
REMARK    2  A    between atoms: C3_4  and  C4_5 
REMARK    3  A    between atoms: C3_4  and  C17_24 
REMARK    4  A    between atoms: C4_5  and  N2_6 
REMARK       I    between atoms: N2_6  and  C5_7 
REMARK    5  A    between atoms: C5_7  and  C6_9 
REMARK       I    between atoms: C6_9  and  N3_11 
REMARK    6  A    between atoms: N3_11  and  C7_12 
REMARK    7  A    between atoms: C11_16  and  N4_18 
ROOT
ATOM      1  N2  <0> d          -1.223  -2.536   1.161  0.00  0.00    -0.351 N 
ATOM      2  C5  <0> d          -1.404  -3.854   1.381  0.00  0.00     0.309 C 
ATOM      3  O1  <0> d          -2.032  -4.521   0.585  0.00  0.00    -0.262 OA
ATOM      4  H10 <0> d          -0.722  -2.003   1.797  0.00  0.00     0.162 HD
ENDROOT
BRANCH   2   5
ATOM      5  C6  <0> d          -0.832  -4.492   2.603  0.00  0.00     0.313 C 
ATOM      6  O2  <0> d          -0.204  -3.825   3.399  0.00  0.00    -0.262 OA
ATOM      7  N3  <0> d          -1.012  -5.810   2.823  0.00  0.00    -0.319 N 
ATOM      8  H11 <0> d          -1.449  -6.358   2.152  0.00  0.00     0.169 HD
BRANCH   7   9
ATOM      9  C7  <0> d          -0.570  -6.386   4.017  0.00  0.00     0.037 A 
ATOM     10  C12 <0> d          -0.081  -7.685   4.022  0.00  0.00     0.059 A 
ATOM     11  C11 <0> d           0.362  -8.251   5.209  0.00  0.00     0.039 A 
ATOM     12  C10 <0> d           0.305  -7.521   6.389  0.00  0.00     0.030 A 
ATOM     13  C9  <0> d          -0.189  -6.230   6.382  0.00  0.00     0.004 A 
ATOM     14  C8  <0> d          -0.625  -5.661   5.202  0.00  0.00     0.029 A 
BRANCH  11  15
ATOM     15  N4  <0> d           0.862  -9.558   5.217  0.00  0.00    -0.318 N 
ATOM     16  C16 <0> d           1.060 -10.301   4.115  0.00  0.00     0.224 C 
ATOM     17  C15 <0> d           1.603 -11.661   4.495  0.00  0.00     0.105 C 
ATOM     18  O3  <0> d           0.838  -9.934   2.980  0.00  0.00    -0.273 OA
ATOM     19  C14 <0> d           1.301 -11.779   6.007  0.00  0.00     0.029 C 
ATOM     20  C13 <0> d           1.232 -10.295   6.431  0.00  0.00     0.133 C 
ENDBRANCH  11  15
ENDBRANCH   7   9
ENDBRANCH   2   5
BRANCH   1  21
ATOM     21  C4  <0> d          -1.785  -1.910  -0.039  0.00  0.00     0.161 C 
BRANCH  21  22
ATOM     22  C3  <0> d          -1.547  -0.400   0.016  0.00  0.00     0.239 C 
BRANCH  22  23
ATOM     23  N1  <0> d          -2.080   0.135   1.276  0.00  0.00    -0.069 N 
ATOM     24  C1  <0> d          -1.955   1.598   1.279  0.00  0.00     0.270 C 
ATOM     25  C2  <0> d          -3.495  -0.236   1.406  0.00  0.00     0.270 C 
ATOM     26  H26 <0> d          -1.559  -0.249   2.051  0.00  0.00     0.279 HD
ENDBRANCH  22  23
BRANCH  22  27
ATOM     27  C17 <0> d          -0.068  -0.121  -0.063  0.00  0.00    -0.004 A 
ATOM     28  C22 <0> d           0.556  -0.041  -1.295  0.00  0.00     0.042 A 
ATOM     29  C21 <0> d           1.913   0.221  -1.366  0.00  0.00     0.024 A 
ATOM     30 Cl1  <0> d          -0.364  -0.261  -2.750  0.00  0.00    -0.084 Cl
ATOM     31  C20 <0> d           2.646   0.391  -0.207  0.00  0.00     0.002 A 
ATOM     32  C19 <0> d           2.022   0.305   1.024  0.00  0.00     0.001 A 
ATOM     33  C18 <0> d           0.666   0.050   1.096  0.00  0.00     0.011 A 
ENDBRANCH  22  27
ENDBRANCH  21  22
ENDBRANCH   1  21
TORSDOF 7
