REMARK  1 active torsions:
REMARK  status: ('A' for Active; 'I' for Inactive)
REMARK       I    between atoms: N1_14  and  C13_15 
REMARK    1  A    between atoms: C13_15  and  C14_17 
ROOT
ATOM      1  C1  <0> d          -0.017   1.378   0.014  0.00  0.00     0.005 A 
ATOM      2  C2  <0> d           1.165   2.088   0.005  0.00  0.00     0.030 A 
ATOM      3  C3  <0> d           2.390   1.420  -0.012  0.00  0.00     0.047 A 
ATOM      4  C4  <0> d           2.401   0.032  -0.021  0.00  0.00     0.018 A 
ATOM      5  C5  <0> d           1.213  -0.676  -0.013  0.00  0.00     0.125 A 
ATOM      6  C6  <0> d           0.002  -0.004   0.005  0.00  0.00     0.043 A 
ATOM      7  F1  <0> d           1.234  -2.027  -0.022  0.00  0.00    -0.205 F 
ATOM      8  C7  <0> d           3.835  -0.426  -0.039  0.00  0.00     0.009 A 
ATOM      9  C8  <0> d           4.153  -1.286   1.192  0.00  0.00     0.016 C 
ATOM     10  C9  <0> d           4.042  -2.743   0.672  0.00  0.00     0.001 C 
ATOM     11  C10 <0> d           4.628  -2.643  -0.759  0.00  0.00     0.001 C 
ATOM     12  C11 <0> d           4.129  -1.276  -1.279  0.00  0.00     0.016 C 
ATOM     13  C12 <0> d           4.670   0.856  -0.039  0.00  0.00     0.147 A 
ATOM     14  N1  <0> d           3.687   1.946  -0.022  0.00  0.00    -0.311 N 
ATOM     15  C13 <0> d           3.988   3.259  -0.018  0.00  0.00     0.278 C 
ATOM     16  O1  <0> d           3.101   4.087  -0.097  0.00  0.00    -0.265 OA
ENDROOT
BRANCH  15  17
ATOM     17  C14 <0> d           5.396   3.693   0.083  0.00  0.00     0.146 A 
ATOM     18  N3  <0> d           6.459   2.913   0.083  0.00  0.00    -0.170 NA
ATOM     19  N2  <0> d           7.526   3.623   0.182  0.00  0.00    -0.289 N 
ATOM     20  C16 <0> d           7.210   4.933   0.264  0.00  0.00     0.112 A 
ATOM     21  H1  <0> d           8.428   3.267   0.200  0.00  0.00     0.188 HD
ATOM     22  C15 <0> d           5.861   5.024   0.205  0.00  0.00     0.058 A 
ENDBRANCH  15  17
TORSDOF 1
