REMARK  1 active torsions:
REMARK  status: ('A' for Active; 'I' for Inactive)
REMARK    1  A    between atoms: C8_9  and  C10_12 
ROOT
ATOM      1  C10 <0> d           2.883  -2.774  -1.813  0.00  0.00     0.039 C 
ATOM      2  C11 <0> d           4.285  -3.324  -2.103  0.00  0.00     0.113 C 
ATOM      3  C12 <0> d           4.403  -3.748  -3.535  0.00  0.00     0.219 C 
ATOM      4  O3  <0> d           5.521  -3.853  -3.992  0.00  0.00    -0.274 OA
ATOM      5  N1  <0> d           3.385  -4.020  -4.350  0.00  0.00    -0.349 N 
ATOM      6  C13 <0> d           1.989  -3.807  -4.010  0.00  0.00     0.139 C 
ATOM      7  C14 <0> d           1.893  -3.675  -2.510  0.00  0.00    -0.047 C 
ATOM      8  C15 <0> d           0.964  -4.344  -1.841  0.00  0.00     0.021 C 
ATOM      9  C16 <0> d           0.056  -5.251  -2.550  0.00  0.00     0.014 A 
ATOM     10  C17 <0> d          -1.013  -6.034  -2.172  0.00  0.00     0.154 A 
ATOM     11  N2  <0> d          -1.444  -6.684  -3.253  0.00  0.00    -0.161 NA
ATOM     12  N3  <0> d          -0.768  -6.395  -4.307  0.00  0.00    -0.150 NA
ATOM     13  C18 <0> d           0.191  -5.487  -4.002  0.00  0.00     0.089 A 
ATOM     14  C19 <0> d           1.132  -4.832  -4.706  0.00  0.00     0.037 C 
ATOM     15  H12 <0> d           3.588  -4.384  -5.226  0.00  0.00     0.163 HD
ENDROOT
BRANCH   1  16
ATOM     16  C8  <0> d           2.623  -2.783  -0.305  0.00  0.00     0.093 C 
ATOM     17  C7  <0> d           1.299  -2.103  -0.005  0.00  0.00     0.169 C 
ATOM     18  C5  <0> d           1.303  -0.629   0.001  0.00  0.00     0.043 A 
ATOM     19  O1  <0> d           0.290  -2.739   0.218  0.00  0.00    -0.292 OA
ATOM     20  C4  <0> d           2.532   0.048  -0.008  0.00  0.00     0.082 A 
ATOM     21  C6  <0> d           0.105   0.087   0.020  0.00  0.00     0.018 A 
ATOM     22  C3  <0> d           2.540   1.437   0.011  0.00  0.00     0.038 A 
ATOM     23  O2  <0> d           3.700  -0.635  -0.037  0.00  0.00    -0.349 OA
ATOM     24  C2  <0> d           1.350   2.135   0.033  0.00  0.00     0.003 A 
ATOM     25  C1  <0> d           0.136   1.465   0.036  0.00  0.00     0.001 A 
ATOM     26  C9  <0> d           3.716  -1.986   0.421  0.00  0.00     0.189 C 
ENDBRANCH   1  16
TORSDOF 1
