REMARK  7 active torsions:
REMARK  status: ('A' for Active; 'I' for Inactive)
REMARK    1  A    between atoms: C5_5  and  C9_9 
REMARK    2  A    between atoms: C9_9  and  N1_11 
REMARK       I    between atoms: N1_11  and  C11_12 
REMARK    3  A    between atoms: C11_12  and  C12_14 
REMARK    4  A    between atoms: C12_14  and  N2_15 
REMARK    5  A    between atoms: N2_15  and  C14_17 
REMARK    6  A    between atoms: C14_17  and  C15_18 
REMARK    7  A    between atoms: C18_21  and  C21_24 
REMARK       I    between atoms: C21_24  and  N3_26 
ROOT
ATOM      1  C12 <0> d           2.437  -6.446  -2.092  0.00  0.00     0.336 C 
ENDROOT
BRANCH   1   2
ATOM      2  C11 <0> d           1.524  -5.962  -0.996  0.00  0.00     0.244 C 
ATOM      3  N1  <0> d           0.948  -4.746  -1.087  0.00  0.00    -0.351 N 
ATOM      4  H14 <0> d           1.121  -4.184  -1.858  0.00  0.00     0.163 HD
ATOM      5  O1  <0> d           1.306  -6.665  -0.033  0.00  0.00    -0.272 OA
BRANCH   3   6
ATOM      6  C9  <0> d           0.059  -4.275  -0.021  0.00  0.00     0.113 C 
ATOM      7  C10 <0> d          -1.356  -4.802  -0.267  0.00  0.00     0.037 C 
BRANCH   6   8
ATOM      8  C5  <0> d           0.040  -2.768  -0.013  0.00  0.00    -0.035 A 
ATOM      9  C4  <0> d           0.025  -2.071  -1.207  0.00  0.00     0.010 A 
ATOM     10  C3  <0> d           0.006  -0.689  -1.199  0.00  0.00     0.008 A 
ATOM     11  C2  <0> d           0.002  -0.004   0.002  0.00  0.00    -0.056 A 
ATOM     12  C1  <0> d          -0.018   1.503   0.010  0.00  0.00     0.049 C 
ATOM     13  C7  <0> d           0.023  -0.702   1.195  0.00  0.00    -0.056 A 
ATOM     14  C6  <0> d           0.037  -2.084   1.188  0.00  0.00     0.016 A 
ATOM     15  C8  <0> d           0.025   0.045   2.504  0.00  0.00     0.049 C 
ENDBRANCH   6   8
ENDBRANCH   3   6
ENDBRANCH   1   2
BRANCH   1  16
ATOM     16  N2  <0> d           2.933  -7.788  -1.759  0.00  0.00    -0.063 N 
ATOM     17  C13 <0> d           3.773  -7.716  -0.557  0.00  0.00     0.270 C 
ATOM     18  H30 <0> d           2.151  -8.402  -1.587  0.00  0.00     0.280 HD
BRANCH  16  19
ATOM     19  C14 <0> d           3.726  -8.310  -2.881  0.00  0.00     0.273 C 
BRANCH  19  20
ATOM     20  C15 <0> d           4.131  -9.732  -2.591  0.00  0.00    -0.033 A 
ATOM     21  C20 <0> d           3.313 -10.775  -2.986  0.00  0.00     0.010 A 
ATOM     22  C19 <0> d           3.680 -12.080  -2.728  0.00  0.00     0.017 A 
ATOM     23  C18 <0> d           4.876 -12.345  -2.058  0.00  0.00     0.032 A 
ATOM     24  C17 <0> d           5.694 -11.288  -1.657  0.00  0.00     0.017 A 
ATOM     25  C16 <0> d           5.317  -9.988  -1.926  0.00  0.00     0.010 A 
BRANCH  23  26
ATOM     26  C21 <0> d           5.273 -13.741  -1.774  0.00  0.00     0.251 C 
ATOM     27  O2  <0> d           6.315 -13.969  -1.191  0.00  0.00    -0.268 OA
ATOM     28  N3  <0> d           4.481 -14.760  -2.162  0.00  0.00    -0.361 N 
ATOM     29  C22 <0> d           4.875 -16.142  -1.881  0.00  0.00     0.149 C 
ATOM     30  H26 <0> d           3.650 -14.577  -2.628  0.00  0.00     0.162 HD
ENDBRANCH  23  26
ENDBRANCH  19  20
ENDBRANCH  16  19
ENDBRANCH   1  16
TORSDOF 7
