REMARK  6 active torsions:
REMARK  status: ('A' for Active; 'I' for Inactive)
REMARK    1  A    between atoms: C4_4  and  C7_7 
REMARK    2  A    between atoms: C7_7  and  C8_8 
REMARK    3  A    between atoms: C8_8  and  N1_9 
REMARK    4  A    between atoms: C11_13  and  C22_28 
REMARK    5  A    between atoms: C22_28  and  C23_29 
REMARK    6  A    between atoms: C26_32  and  O4_35 
ROOT
ATOM      1  N1  <0> d          -3.049   3.070   1.476  0.00  0.00    -0.287 N 
ATOM      2  C9  <0> d          -4.229   2.441   1.478  0.00  0.00     0.233 A 
ATOM      3  O1  <0> d          -4.383   1.238   1.474  0.00  0.00    -0.272 OA
ATOM      4  C10 <0> d          -5.343   3.463   1.488  0.00  0.00     0.126 A 
ATOM      5  C11 <0> d          -6.085   3.417   0.135  0.00  0.00     0.206 C 
ATOM      6  C12 <0> d          -4.950   5.478   0.162  0.00  0.00     0.248 A 
ATOM      7  C13 <0> d          -4.584   4.820   1.497  0.00  0.00     0.144 A 
ATOM      8  C14 <0> d          -3.130   4.406   1.489  0.00  0.00     0.234 A 
ATOM      9  O2  <0> d          -2.186   5.165   1.491  0.00  0.00    -0.272 OA
ATOM     10  C15 <0> d          -3.873   5.285  -0.867  0.00  0.00     0.017 A 
ATOM     11  C16 <0> d          -3.286   4.173  -1.428  0.00  0.00     0.012 A 
ATOM     12  C17 <0> d          -2.291   4.319  -2.378  0.00  0.00     0.002 A 
ATOM     13  C18 <0> d          -1.887   5.584  -2.762  0.00  0.00     0.026 A 
ATOM     14  C19 <0> d          -2.471   6.702  -2.202  0.00  0.00     0.061 A 
ATOM     15  C20 <0> d          -3.474   6.564  -1.244  0.00  0.00     0.066 A 
ATOM     16  N2  <0> d          -4.205   7.525  -0.542  0.00  0.00    -0.323 N 
ATOM     17  C21 <0> d          -5.093   6.969   0.305  0.00  0.00     0.264 A 
ATOM     18  O3  <0> d          -5.858   7.556   1.040  0.00  0.00    -0.270 OA
ATOM     19 Cl1  <0> d          -1.955   8.286  -2.692  0.00  0.00    -0.082 Cl
ATOM     20  H16 <0> d          -4.086   8.482  -0.651  0.00  0.00     0.169 HD
ATOM     21  N3  <0> d          -6.193   4.841  -0.247  0.00  0.00    -0.047 N 
ATOM     22  H24 <0> d          -6.989   5.277   0.234  0.00  0.00     0.279 HD
ATOM     23  H25 <0> d          -6.317   4.927  -1.262  0.00  0.00     0.279 HD
ENDROOT
BRANCH   5  24
ATOM     24  C22 <0> d          -7.459   2.765   0.303  0.00  0.00     0.072 C 
BRANCH  24  25
ATOM     25  C23 <0> d          -8.114   2.619  -1.046  0.00  0.00    -0.056 A 
ATOM     26  C28 <0> d          -7.916   1.469  -1.788  0.00  0.00     0.010 A 
ATOM     27  C27 <0> d          -8.515   1.332  -3.026  0.00  0.00     0.037 A 
ATOM     28  C26 <0> d          -9.316   2.350  -3.523  0.00  0.00     0.065 A 
ATOM     29  C25 <0> d          -9.514   3.502  -2.776  0.00  0.00     0.037 A 
ATOM     30  C24 <0> d          -8.917   3.632  -1.537  0.00  0.00     0.010 A 
BRANCH  28  31
ATOM     31  O4  <0> d          -9.907   2.218  -4.740  0.00  0.00    -0.361 OA
ATOM     32  H23 <0> d         -10.783   1.811  -4.710  0.00  0.00     0.217 HD
ENDBRANCH  28  31
ENDBRANCH  24  25
ENDBRANCH   5  24
BRANCH   1  33
ATOM     33  C8  <0> d          -1.770   2.355   1.466  0.00  0.00     0.139 C 
BRANCH  33  34
ATOM     34  C7  <0> d          -1.332   2.114   0.020  0.00  0.00     0.059 C 
BRANCH  34  35
ATOM     35  C4  <0> d          -0.017   1.378   0.010  0.00  0.00    -0.057 A 
ATOM     36  C3  <0> d           0.002  -0.004   0.002  0.00  0.00     0.007 A 
ATOM     37  C2  <0> d           1.208  -0.679  -0.013  0.00  0.00     0.001 A 
ATOM     38  C1  <0> d           2.396   0.029  -0.021  0.00  0.00     0.000 A 
ATOM     39  C6  <0> d           2.377   1.411  -0.015  0.00  0.00     0.001 A 
ATOM     40  C5  <0> d           1.171   2.086   0.002  0.00  0.00     0.007 A 
ENDBRANCH  34  35
ENDBRANCH  33  34
ENDBRANCH   1  33
TORSDOF 6
