REMARK  7 active torsions:
REMARK  status: ('A' for Active; 'I' for Inactive)
REMARK    1  A    between atoms: C4_4  and  O1_10 
REMARK    2  A    between atoms: C5_5  and  C7_7 
REMARK    3  A    between atoms: C7_7  and  C8_8 
REMARK    4  A    between atoms: C8_8  and  N1_9 
REMARK    5  A    between atoms: O1_10  and  C9_11 
REMARK    6  A    between atoms: C9_11  and  C10_12 
REMARK       I    between atoms: C10_12  and  N2_14 
REMARK    7  A    between atoms: N2_14  and  C11_15 
ROOT
ATOM      1  O1  <0> d           3.585  -0.632  -0.040  0.00  0.00    -0.342 OA
ENDROOT
BRANCH   1   2
ATOM      2  C4  <0> d           2.399   0.031  -0.031  0.00  0.00     0.075 A 
ATOM      3  C3  <0> d           2.377   1.418  -0.033  0.00  0.00     0.037 A 
ATOM      4  C2  <0> d           1.170   2.089  -0.025  0.00  0.00     0.003 A 
ATOM      5  C1  <0> d          -0.017   1.379  -0.014  0.00  0.00     0.001 A 
ATOM      6  C6  <0> d           0.002  -0.003  -0.012  0.00  0.00     0.010 A 
ATOM      7  C5  <0> d           1.207  -0.679  -0.020  0.00  0.00    -0.023 A 
BRANCH   7   8
ATOM      8  C7  <0> d           1.227  -2.186  -0.018  0.00  0.00     0.068 C 
BRANCH   8   9
ATOM      9  C8  <0> d           1.371  -2.692   1.419  0.00  0.00     0.234 C 
BRANCH   9  10
ATOM     10  N1  <0> d           1.390  -4.161   1.421  0.00  0.00    -0.079 N 
ATOM     11  H9  <0> d           0.529  -4.509   1.027  0.00  0.00     0.274 HD
ATOM     12  H10 <0> d           2.169  -4.488   0.869  0.00  0.00     0.274 HD
ATOM     13  H18 <0> d           1.486  -4.495   2.369  0.00  0.00     0.274 HD
ENDBRANCH   9  10
ENDBRANCH   8   9
ENDBRANCH   7   8
ENDBRANCH   1   2
BRANCH   1  14
ATOM     14  C9  <0> d           4.772   0.164  -0.052  0.00  0.00     0.278 C 
BRANCH  14  15
ATOM     15  C10 <0> d           5.981  -0.737  -0.060  0.00  0.00     0.246 C 
ATOM     16  O2  <0> d           5.839  -1.941  -0.057  0.00  0.00    -0.271 OA
ATOM     17  N2  <0> d           7.218  -0.204  -0.072  0.00  0.00    -0.325 N 
ATOM     18  H13 <0> d           7.332   0.757  -0.142  0.00  0.00     0.169 HD
BRANCH  17  19
ATOM     19  C11 <0> d           8.340  -1.036   0.018  0.00  0.00     0.034 A 
ATOM     20  C16 <0> d           8.325  -2.289  -0.580  0.00  0.00     0.031 A 
ATOM     21  C15 <0> d           9.435  -3.107  -0.494  0.00  0.00     0.021 A 
ATOM     22  C14 <0> d          10.557  -2.683   0.196  0.00  0.00     0.011 A 
ATOM     23  C13 <0> d          10.572  -1.437   0.797  0.00  0.00     0.021 A 
ATOM     24 Br1  <0> d          12.072  -3.808   0.317  0.00  0.00    -0.051 Br
ATOM     25  C12 <0> d           9.467  -0.613   0.710  0.00  0.00     0.031 A 
ENDBRANCH  17  19
ENDBRANCH  14  15
ENDBRANCH   1  14
TORSDOF 7
