REMARK  2 active torsions:
REMARK  status: ('A' for Active; 'I' for Inactive)
REMARK    1  A    between atoms: C7_7  and  N2_11 
REMARK    2  A    between atoms: N2_11  and  C9_12 
ROOT
ATOM      1  N2  <0> d          -2.814   0.402  -0.932  0.00  0.00    -0.050 N 
ATOM      2  H8  <0> d          -2.145   0.557  -1.792  0.00  0.00     0.279 HD
ATOM      3  H17 <0> d          -3.860   0.431  -1.271  0.00  0.00     0.279 HD
ENDROOT
BRANCH   1   4
ATOM      4  C7  <0> d          -2.532  -0.904  -0.322  0.00  0.00     0.313 A 
ATOM      5  C5  <0> d          -2.246  -1.936  -1.389  0.00  0.00     0.008 A 
ATOM      6  C4  <0> d          -3.225  -2.913  -1.260  0.00  0.00     0.043 A 
ATOM      7  C6  <0> d          -1.272  -2.037  -2.357  0.00  0.00     0.012 A 
ATOM      8  C3  <0> d          -3.208  -4.004  -2.128  0.00  0.00     0.030 A 
ATOM      9  N1  <0> d          -4.093  -2.592  -0.216  0.00  0.00    -0.325 N 
ATOM     10  C2  <0> d          -2.231  -4.103  -3.096  0.00  0.00     0.002 A 
ATOM     11  C1  <0> d          -1.262  -3.123  -3.215  0.00  0.00     0.001 A 
ATOM     12  C8  <0> d          -3.761  -1.436   0.384  0.00  0.00     0.257 A 
ATOM     13  H7  <0> d          -4.932  -3.260   0.027  0.00  0.00     0.169 HD
ATOM     14  O1  <0> d          -4.338  -0.916   1.315  0.00  0.00    -0.270 OA
ENDBRANCH   1   4
BRANCH   1  15
ATOM     15  C9  <0> d          -2.601   1.490   0.032  0.00  0.00     0.222 C 
ATOM     16  C14 <0> d          -1.152   1.901   0.017  0.00  0.00     0.004 A 
ATOM     17  C13 <0> d          -0.718   3.178   0.027  0.00  0.00     0.061 A 
ATOM     18  C15 <0> d          -0.013   1.076   0.008  0.00  0.00     0.036 A 
ATOM     19  C12 <0> d          -1.634   4.378   0.046  0.00  0.00     0.066 C 
ATOM     20  O2  <0> d           0.620   3.168   0.013  0.00  0.00    -0.326 OA
ATOM     21  C11 <0> d          -3.031   3.914   0.476  0.00  0.00     0.009 C 
ATOM     22  C10 <0> d          -3.450   2.705  -0.364  0.00  0.00     0.038 C 
ATOM     23  C16 <0> d           1.057   1.895   0.002  0.00  0.00     0.142 A 
ENDBRANCH   1  15
TORSDOF 2
