REMARK  4 active torsions:
REMARK  status: ('A' for Active; 'I' for Inactive)
REMARK    1  A    between atoms: C4_4  and  C7_7 
REMARK    2  A    between atoms: C8_8  and  C10_12 
REMARK    3  A    between atoms: C8_8  and  N2_16 
REMARK    4  A    between atoms: N2_16  and  C11_17 
ROOT
ATOM      1  C7  <0> d           1.109   1.764   0.001  0.00  0.00     0.116 A 
ATOM      2  C8  <0> d          -0.642   3.154   0.025  0.00  0.00     0.290 A 
ATOM      3  C9  <0> d          -1.131   1.719   0.016  0.00  0.00     0.282 A 
ATOM      4  O1  <0> d          -2.280   1.332   0.019  0.00  0.00    -0.268 OA
ATOM      5  N1  <0> d          -0.011   0.966   0.007  0.00  0.00    -0.309 N 
ATOM      6  H6  <0> d           0.002  -0.004   0.002  0.00  0.00     0.170 HD
ATOM      7  N4  <0> d           0.816   3.020   0.011  0.00  0.00    -0.334 N 
ATOM      8  H10 <0> d           1.490   3.794   0.008  0.00  0.00     0.164 HD
ENDROOT
BRANCH   2   9
ATOM      9  C10 <0> d          -1.106   3.876   1.291  0.00  0.00     0.441 C 
ATOM     10  F1  <0> d          -0.568   5.167   1.316  0.00  0.00    -0.166 F 
ATOM     11  F2  <0> d          -2.503   3.954   1.298  0.00  0.00    -0.166 F 
ATOM     12  F3  <0> d          -0.673   3.169   2.418  0.00  0.00    -0.166 F 
ENDBRANCH   2   9
BRANCH   2  13
ATOM     13  N2  <0> d          -1.109   3.862  -1.169  0.00  0.00    -0.327 N 
ATOM     14  H7  <0> d          -0.469   4.190  -1.820  0.00  0.00     0.165 HD
BRANCH  13  15
ATOM     15  C11 <0> d          -2.466   4.062  -1.370  0.00  0.00     0.168 A 
ATOM     16  S1  <0> d          -3.268   4.860  -2.687  0.00  0.00    -0.063 SA
ATOM     17  C13 <0> d          -4.944   4.637  -2.108  0.00  0.00     0.072 A 
ATOM     18  C12 <0> d          -4.725   3.967  -0.952  0.00  0.00     0.126 A 
ATOM     19  N3  <0> d          -3.480   3.689  -0.612  0.00  0.00    -0.236 NA
ENDBRANCH  13  15
ENDBRANCH   2  13
BRANCH   1  20
ATOM     20  C4  <0> d           2.492   1.236  -0.015  0.00  0.00     0.008 A 
ATOM     21  C3  <0> d           2.716  -0.141  -0.024  0.00  0.00     0.015 A 
ATOM     22  C2  <0> d           4.007  -0.627  -0.039  0.00  0.00     0.001 A 
ATOM     23  C1  <0> d           5.078   0.248  -0.044  0.00  0.00     0.000 A 
ATOM     24  C6  <0> d           4.863   1.614  -0.034  0.00  0.00     0.001 A 
ATOM     25  C5  <0> d           3.576   2.113  -0.026  0.00  0.00     0.015 A 
ENDBRANCH   1  20
TORSDOF 4
