REMARK  6 active torsions:
REMARK  status: ('A' for Active; 'I' for Inactive)
REMARK    1  A    between atoms: C3_3  and  C18_27 
REMARK    2  A    between atoms: C4_4  and  C9_15 
REMARK    3  A    between atoms: C11_17  and  O4_25 
REMARK    4  A    between atoms: C12_18  and  O3_23 
REMARK    5  A    between atoms: C13_19  and  O2_21 
REMARK    6  A    between atoms: C18_27  and  O6_29 
ROOT
ATOM      1  C1  <0> d          -3.687  -1.824   0.263  0.00  0.00     0.069 C 
ATOM      2  C2  <0> d          -2.438  -2.655   0.119  0.00  0.00     0.020 C 
ATOM      3  C3  <0> d          -1.247  -2.046  -0.003  0.00  0.00     0.052 C 
ATOM      4  C4  <0> d           0.028  -2.827  -0.134  0.00  0.00     0.102 C 
ATOM      5  C5  <0> d          -0.253  -4.254  -0.511  0.00  0.00     0.069 A 
ATOM      6  C6  <0> d          -1.500  -4.785  -0.372  0.00  0.00     0.143 A 
ATOM      7  N1  <0> d          -1.721  -6.096  -0.722  0.00  0.00    -0.202 NA
ATOM      8  C7  <0> d          -0.715  -6.850  -1.203  0.00  0.00     0.202 A 
ATOM      9  S1  <0> d          -1.014  -8.480  -1.632  0.00  0.00    -0.038 SA
ATOM     10  N2  <0> d           0.522  -6.342  -1.350  0.00  0.00    -0.298 N 
ATOM     11  H2  <0> d           1.332  -6.973  -1.746  0.00  0.00     0.171 HD
ATOM     12  C8  <0> d           0.781  -5.062  -1.017  0.00  0.00     0.258 A 
ATOM     13  O1  <0> d           1.905  -4.609  -1.153  0.00  0.00    -0.267 OA
ATOM     14  N3  <0> d          -2.534  -4.020   0.109  0.00  0.00    -0.343 N 
ATOM     15  H6  <0> d          -3.443  -4.510   0.489  0.00  0.00     0.167 HD
ENDROOT
BRANCH   4  16
ATOM     16  C9  <0> d           0.763  -2.799   1.181  0.00  0.00    -0.039 A 
ATOM     17  C14 <0> d           2.034  -2.259   1.250  0.00  0.00     0.048 A 
ATOM     18  C13 <0> d           2.714  -2.231   2.458  0.00  0.00     0.104 A 
ATOM     19  C12 <0> d           2.116  -2.748   3.601  0.00  0.00     0.135 A 
ATOM     20  C11 <0> d           0.839  -3.290   3.528  0.00  0.00     0.104 A 
ATOM     21  C10 <0> d           0.163  -3.309   2.317  0.00  0.00     0.048 A 
BRANCH  18  22
ATOM     22  O2  <0> d           3.964  -1.700   2.524  0.00  0.00    -0.353 OA
ATOM     23  C15 <0> d           4.516  -1.187   1.310  0.00  0.00     0.210 C 
ENDBRANCH  18  22
BRANCH  19  24
ATOM     24  O3  <0> d           2.780  -2.724   4.789  0.00  0.00    -0.351 OA
ATOM     25  C16 <0> d           2.598  -1.569   5.611  0.00  0.00     0.210 C 
ENDBRANCH  19  24
BRANCH  20  26
ATOM     26  O4  <0> d           0.249  -3.796   4.644  0.00  0.00    -0.353 OA
ATOM     27  C17 <0> d          -1.065  -4.338   4.495  0.00  0.00     0.210 C 
ENDBRANCH  20  26
ENDBRANCH   4  16
BRANCH   3  28
ATOM     28  C18 <0> d          -1.193  -0.633  -0.002  0.00  0.00     0.291 C 
ATOM     29  O5  <0> d          -2.223   0.015   0.001  0.00  0.00    -0.260 OA
BRANCH  28  30
ATOM     30  O6  <0> d           0.001  -0.003  -0.005  0.00  0.00    -0.323 OA
ATOM     31  C19 <0> d          -0.020   1.425  -0.004  0.00  0.00     0.213 C 
ENDBRANCH  28  30
ENDBRANCH   3  28
TORSDOF 6
