REMARK  1 active torsions:
REMARK  status: ('A' for Active; 'I' for Inactive)
REMARK    1  A    between atoms: C6_6  and  O5_23 
ROOT
ATOM      1  C1  <0> d          -0.018   1.503   0.010  0.00  0.00     0.036 C 
ATOM      2  C2  <0> d           0.002  -0.004   0.002  0.00  0.00    -0.018 C 
ATOM      3  C3  <0> d          -1.144  -0.687   0.009  0.00  0.00     0.013 C 
ATOM      4  C4  <0> d          -1.121  -2.191  -0.019  0.00  0.00     0.052 C 
ATOM      5  C5  <0> d          -0.941  -2.767   1.378  0.00  0.00     0.030 C 
ATOM      6  C6  <0> d          -1.562  -4.157   1.489  0.00  0.00     0.145 C 
ATOM      7  C7  <0> d          -3.021  -4.151   1.130  0.00  0.00     0.293 C 
ATOM      8  O1  <0> d          -3.676  -5.158   1.320  0.00  0.00    -0.262 OA
ATOM      9  O2  <0> d          -3.626  -3.080   0.604  0.00  0.00    -0.315 OA
ATOM     10  C8  <0> d          -4.814  -2.607   1.241  0.00  0.00     0.215 C 
ATOM     11  C9  <0> d          -5.814  -2.159   0.208  0.00  0.00    -0.025 C 
ATOM     12  C10 <0> d          -7.119  -2.233   0.365  0.00  0.00     0.008 C 
ATOM     13  C11 <0> d          -7.769  -1.706  -0.889  0.00  0.00     0.263 C 
ATOM     14  N1  <0> d          -6.754  -0.922  -1.606  0.00  0.00    -0.057 N 
ATOM     15  C12 <0> d          -5.507  -1.564  -1.140  0.00  0.00     0.248 C 
ATOM     16  C13 <0> d          -4.483  -0.432  -1.037  0.00  0.00     0.169 C 
ATOM     17  C14 <0> d          -5.293   0.856  -0.832  0.00  0.00     0.062 C 
ATOM     18  C15 <0> d          -6.747   0.468  -1.126  0.00  0.00     0.238 C 
ATOM     19  O3  <0> d          -3.587  -0.632   0.052  0.00  0.00    -0.310 OA
ATOM     20  C16 <0> d          -2.419   0.041   0.025  0.00  0.00     0.289 C 
ATOM     21  O4  <0> d          -2.421   1.257   0.015  0.00  0.00    -0.260 OA
ATOM     22  C17 <0> d          -0.816  -5.126   0.567  0.00  0.00     0.057 C 
ATOM     23  C18 <0> d          -1.533  -1.846   2.443  0.00  0.00     0.014 C 
ATOM     24  H26 <0> d          -6.857  -0.980  -2.601  0.00  0.00     0.281 HD
ENDROOT
BRANCH   6  25
ATOM     25  O5  <0> d          -1.423  -4.618   2.841  0.00  0.00    -0.380 OA
ATOM     26  H22 <0> d          -1.794  -5.497   2.997  0.00  0.00     0.211 HD
ENDBRANCH   6  25
TORSDOF 1
