REMARK  6 active torsions:
REMARK  status: ('A' for Active; 'I' for Inactive)
REMARK    1  A    between atoms: N1_2  and  C3_4 
REMARK    2  A    between atoms: C3_4  and  C4_5 
REMARK    3  A    between atoms: C4_5  and  N2_6 
REMARK    4  A    between atoms: C7_9  and  N3_24 
REMARK    5  A    between atoms: C11_14  and  C13_17 
REMARK    6  A    between atoms: C13_17  and  C14_18 
ROOT
ATOM      1  N2  <0> d           0.637  -0.589   3.635  0.00  0.00    -0.311 N 
ATOM      2  C5  <0> d           0.373  -1.867   4.145  0.00  0.00     0.073 A 
ATOM      3  C6  <0> d          -0.382  -2.772   3.417  0.00  0.00     0.061 A 
ATOM      4  C7  <0> d          -0.625  -4.039   3.930  0.00  0.00     0.028 A 
ATOM      5  C8  <0> d          -0.110  -4.397   5.170  0.00  0.00     0.032 A 
ATOM      6  C9  <0> d           0.640  -3.492   5.898  0.00  0.00     0.041 A 
ATOM      7  C10 <0> d           0.878  -2.225   5.393  0.00  0.00     0.097 A 
ATOM      8  O1  <0> d           1.589  -1.318   6.118  0.00  0.00    -0.334 OA
ATOM      9  C11 <0> d           2.370  -0.371   5.386  0.00  0.00     0.225 C 
ATOM     10  C12 <0> d           1.556   0.188   4.246  0.00  0.00     0.254 C 
ATOM     11  O2  <0> d           1.725   1.333   3.883  0.00  0.00    -0.270 OA
ENDROOT
BRANCH   9  12
ATOM     12  C13 <0> d           3.613  -1.063   4.824  0.00  0.00     0.080 C 
BRANCH  12  13
ATOM     13  C14 <0> d           4.494  -1.513   5.961  0.00  0.00    -0.055 A 
ATOM     14  C19 <0> d           4.326  -2.771   6.510  0.00  0.00     0.007 A 
ATOM     15  C18 <0> d           5.137  -3.185   7.550  0.00  0.00     0.001 A 
ATOM     16  C17 <0> d           6.111  -2.338   8.047  0.00  0.00     0.000 A 
ATOM     17  C16 <0> d           6.275  -1.079   7.501  0.00  0.00     0.001 A 
ATOM     18  C15 <0> d           5.467  -0.666   6.458  0.00  0.00     0.007 A 
ENDBRANCH  12  13
ENDBRANCH   9  12
BRANCH   1  19
ATOM     19  C4  <0> d          -0.071  -0.103   2.448  0.00  0.00     0.160 C 
BRANCH  19  20
ATOM     20  C3  <0> d           0.713  -0.491   1.192  0.00  0.00     0.254 C 
BRANCH  20  21
ATOM     21  N1  <0> d           0.002  -0.004   0.002  0.00  0.00    -0.077 N 
ATOM     22  C1  <0> d          -0.018   1.465   0.010  0.00  0.00     0.269 C 
ATOM     23  C2  <0> d           0.690  -0.478  -1.207  0.00  0.00     0.269 C 
ATOM     24  H24 <0> d          -0.945  -0.353   0.009  0.00  0.00     0.279 HD
ENDBRANCH  20  21
ENDBRANCH  19  20
ENDBRANCH   1  19
BRANCH   4  25
ATOM     25  N3  <0> d          -1.388  -4.956   3.199  0.00  0.00    -0.399 N 
ATOM     26  H22 <0> d          -1.748  -4.706   2.334  0.00  0.00     0.156 HD
ATOM     27  H23 <0> d          -1.557  -5.841   3.558  0.00  0.00     0.156 HD
ENDBRANCH   4  25
TORSDOF 6
