REMARK  7 active torsions:
REMARK  status: ('A' for Active; 'I' for Inactive)
REMARK    1  A    between atoms: C5_5  and  C6_7 
REMARK    2  A    between atoms: C6_7  and  N1_8 
REMARK    3  A    between atoms: N2_11  and  C13_17 
REMARK    4  A    between atoms: C10_13  and  C11_14 
REMARK    5  A    between atoms: C11_14  and  C12_15 
REMARK    6  A    between atoms: C12_15  and  O2_16 
REMARK    7  A    between atoms: N3_20  and  C18_23 
ROOT
ATOM      1  N1  <0> d           1.849  -3.637  -1.750  0.00  0.00     0.102 N 
ATOM      2  C7  <0> d           2.400  -2.454  -2.426  0.00  0.00     0.301 C 
ATOM      3  C8  <0> d           2.738  -2.809  -3.875  0.00  0.00     0.265 C 
ATOM      4  N2  <0> d           3.715  -3.905  -3.896  0.00  0.00    -0.063 N 
ATOM      5  C9  <0> d           3.142  -5.088  -3.239  0.00  0.00     0.271 C 
ATOM      6  C10 <0> d           2.807  -4.751  -1.784  0.00  0.00     0.251 C 
ATOM      7  H34 <0> d           4.550  -3.621  -3.406  0.00  0.00     0.280 HD
ENDROOT
BRANCH   4   8
ATOM      8  C13 <0> d           4.053  -4.234  -5.287  0.00  0.00     0.191 C 
ATOM      9  C17 <0> d           4.652  -3.003  -5.971  0.00  0.00     0.053 C 
ATOM     10  C16 <0> d           4.971  -3.339  -7.431  0.00  0.00     0.125 C 
ATOM     11  N3  <0> d           5.834  -4.528  -7.465  0.00  0.00    -0.381 N 
ATOM     12  C15 <0> d           5.394  -5.741  -6.761  0.00  0.00     0.125 C 
ATOM     13  C14 <0> d           5.070  -5.378  -5.309  0.00  0.00     0.053 C 
BRANCH  11  14
ATOM     14  C18 <0> d           7.051  -4.506  -8.154  0.00  0.00     0.033 A 
ATOM     15  C23 <0> d           7.399  -3.398  -8.915  0.00  0.00     0.069 A 
ATOM     16  C22 <0> d           8.606  -3.375  -9.593  0.00  0.00     0.107 A 
ATOM     17  C21 <0> d           9.465  -4.469  -9.518  0.00  0.00     0.105 A 
ATOM     18  O3  <0> d           9.177  -2.426 -10.391  0.00  0.00    -0.323 OA
ATOM     19  C20 <0> d           9.113  -5.575  -8.762  0.00  0.00     0.042 A 
ATOM     20  O4  <0> d          10.575  -4.204 -10.270  0.00  0.00    -0.323 OA
ATOM     21  C19 <0> d           7.910  -5.595  -8.082  0.00  0.00     0.032 A 
ATOM     22  C24 <0> d          10.570  -2.778 -10.472  0.00  0.00     0.352 C 
ENDBRANCH  11  14
ENDBRANCH   4   8
BRANCH   6  23
ATOM     23  C11 <0> d           2.190  -5.976  -1.106  0.00  0.00     0.063 C 
BRANCH  23  24
ATOM     24  C12 <0> d           3.223  -7.104  -1.054  0.00  0.00     0.166 C 
BRANCH  24  25
ATOM     25  O2  <0> d           2.614  -8.282  -0.522  0.00  0.00    -0.401 OA
ATOM     26  H19 <0> d           3.212  -9.040  -0.460  0.00  0.00     0.209 HD
ENDBRANCH  24  25
ENDBRANCH  23  24
ENDBRANCH   6  23
BRANCH   1  27
ATOM     27  C6  <0> d           1.459  -3.321  -0.370  0.00  0.00     0.337 C 
BRANCH  27  28
ATOM     28  C5  <0> d           0.386  -2.262  -0.381  0.00  0.00     0.081 A 
ATOM     29  C4  <0> d          -0.940  -2.486  -0.425  0.00  0.00     0.037 A 
ATOM     30  C3  <0> d          -1.569  -1.221  -0.418  0.00  0.00     0.035 A 
ATOM     31  C2  <0> d          -0.591  -0.299  -0.370  0.00  0.00     0.049 A 
ATOM     32  C1  <0> d          -0.788   1.195  -0.345  0.00  0.00     0.076 C 
ATOM     33  O1  <0> d           0.592  -0.935  -0.353  0.00  0.00    -0.318 OA
ENDBRANCH  27  28
ENDBRANCH   1  27
TORSDOF 7
