REMARK  4 active torsions:
REMARK  status: ('A' for Active; 'I' for Inactive)
REMARK    1  A    between atoms: C5_5  and  O1_9 
REMARK    2  A    between atoms: C6_6  and  N2_8 
REMARK    3  A    between atoms: O1_9  and  C7_10 
REMARK    4  A    between atoms: C7_10  and  C8_11 
ROOT
ATOM      1  C1  <0> d          -0.018   1.503   0.010  0.00  0.00     0.068 C 
ATOM      2  C2  <0> d           0.002  -0.004   0.002  0.00  0.00     0.007 A 
ATOM      3  C3  <0> d           0.005  -0.677  -1.203  0.00  0.00     0.027 A 
ATOM      4  C4  <0> d           0.024  -2.066  -1.206  0.00  0.00     0.042 A 
ATOM      5  C5  <0> d           0.039  -2.730   0.011  0.00  0.00     0.112 A 
ATOM      6  C6  <0> d           0.035  -1.983   1.190  0.00  0.00     0.133 A 
ATOM      7  N1  <0> d           0.022  -0.661   1.147  0.00  0.00    -0.344 N 
ATOM      8  H17 <0> d           0.023  -0.161   1.979  0.00  0.00     0.167 HD
ENDROOT
BRANCH   5   9
ATOM      9  O1  <0> d           0.057  -4.089   0.056  0.00  0.00    -0.347 OA
BRANCH   9  10
ATOM     10  C7  <0> d           0.060  -4.780  -1.196  0.00  0.00     0.182 C 
BRANCH  10  11
ATOM     11  C8  <0> d           0.082  -6.289  -0.946  0.00  0.00     0.036 C 
ATOM     12  C11 <0> d          -1.250  -6.751  -0.323  0.00  0.00     0.174 C 
ATOM     13  O2  <0> d          -1.868  -7.652  -1.263  0.00  0.00    -0.391 OA
ATOM     14  C10 <0> d          -0.805  -8.243  -2.041  0.00  0.00     0.168 C 
ATOM     15  C9  <0> d           0.165  -7.059  -2.286  0.00  0.00     0.035 C 
ENDBRANCH  10  11
ENDBRANCH   9  10
ENDBRANCH   5   9
BRANCH   6  16
ATOM     16  N2  <0> d           0.049  -2.634   2.420  0.00  0.00    -0.383 N 
ATOM     17  H7  <0> d           0.062  -3.603   2.456  0.00  0.00     0.157 HD
ATOM     18  H8  <0> d           0.046  -2.119   3.242  0.00  0.00     0.157 HD
ENDBRANCH   6  16
TORSDOF 4
