REMARK  3 active torsions:
REMARK  status: ('A' for Active; 'I' for Inactive)
REMARK    1  A    between atoms: C2_2  and  N1_3 
REMARK    2  A    between atoms: C13_16  and  C14_17 
REMARK    3  A    between atoms: N4_21  and  C18_24 
ROOT
ATOM      1  N1  <0> d           0.636  -0.332   0.953  0.00  0.00    -0.057 N 
ATOM      2  C3  <0> d          -0.149   0.146   2.099  0.00  0.00     0.241 C 
ATOM      3  C4  <0> d           0.691   0.032   3.379  0.00  0.00     0.069 C 
ATOM      4  C5  <0> d           1.269  -1.360   3.429  0.00  0.00    -0.019 A 
ATOM      5  C6  <0> d           1.867  -2.069   4.537  0.00  0.00    -0.001 A 
ATOM      6  C7  <0> d           2.103  -1.723   5.871  0.00  0.00     0.014 A 
ATOM      7  C8  <0> d           2.708  -2.670   6.661  0.00  0.00     0.001 A 
ATOM      8  C9  <0> d           3.072  -3.913   6.171  0.00  0.00     0.002 A 
ATOM      9  C10 <0> d           2.850  -4.283   4.855  0.00  0.00     0.030 A 
ATOM     10  C11 <0> d           2.238  -3.342   4.030  0.00  0.00     0.043 A 
ATOM     11  N2  <0> d           1.879  -3.376   2.712  0.00  0.00    -0.356 N 
ATOM     12  H1  <0> d           2.014  -4.130   2.117  0.00  0.00     0.166 HD
ATOM     13  C12 <0> d           1.301  -2.188   2.359  0.00  0.00     0.053 A 
ATOM     14  C13 <0> d           0.766  -1.796   1.002  0.00  0.00     0.281 C 
ATOM     15  H26 <0> d           1.554   0.086   0.981  0.00  0.00     0.281 HD
ENDROOT
BRANCH  14  16
ATOM     16  C14 <0> d           1.720  -2.256  -0.070  0.00  0.00     0.101 A 
ATOM     17  C17 <0> d           3.021  -1.725  -0.142  0.00  0.00     0.265 A 
ATOM     18  N4  <0> d           3.861  -2.154  -1.104  0.00  0.00    -0.257 N 
ATOM     19  O1  <0> d           3.387  -0.888   0.664  0.00  0.00    -0.267 OA
ATOM     20  C16 <0> d           3.460  -3.075  -2.001  0.00  0.00     0.332 A 
ATOM     21  N3  <0> d           2.218  -3.591  -1.954  0.00  0.00    -0.286 N 
ATOM     22  O2  <0> d           4.231  -3.445  -2.865  0.00  0.00    -0.246 OA
ATOM     23  C15 <0> d           1.333  -3.188  -0.987  0.00  0.00     0.197 A 
ATOM     24  H25 <0> d           1.948  -4.254  -2.609  0.00  0.00     0.172 HD
ATOM     25  O3  <0> d           0.089  -3.709  -0.943  0.00  0.00    -0.171 OA
BRANCH  18  26
ATOM     26  C18 <0> d           5.219  -1.610  -1.179  0.00  0.00     0.034 C 
ATOM     27  C19 <0> d           5.421  -0.928  -2.534  0.00  0.00     0.038 C 
ATOM     28  C20 <0> d           5.422  -0.589  -0.058  0.00  0.00     0.038 C 
ATOM     29  C21 <0> d           6.233  -2.746  -1.024  0.00  0.00     0.038 C 
ENDBRANCH  18  26
ENDBRANCH  14  16
BRANCH   1  30
ATOM     30  C2  <0> d          -0.038   0.055  -0.294  0.00  0.00     0.231 C 
ATOM     31  C1  <0> d          -0.064   1.581  -0.407  0.00  0.00     0.034 C 
ENDBRANCH   1  30
TORSDOF 3
