REMARK  7 active torsions:
REMARK  status: ('A' for Active; 'I' for Inactive)
REMARK    1  A    between atoms: C4_4  and  C19_25 
REMARK    2  A    between atoms: C7_7  and  N1_8 
REMARK       I    between atoms: N1_8  and  C8_9 
REMARK    3  A    between atoms: C8_9  and  C9_11 
REMARK       I    between atoms: C9_11  and  N2_13 
REMARK    4  A    between atoms: N2_13  and  C10_14 
REMARK    5  A    between atoms: C10_14  and  C11_15 
REMARK    6  A    between atoms: C15_20  and  O3_21 
REMARK    7  A    between atoms: O3_21  and  C16_22 
REMARK       I    between atoms: C19_25  and  N4_27 
ROOT
ATOM      1  N1  <0> d           0.025  -0.013   2.412  0.00  0.00    -0.319 N 
ATOM      2  C8  <0> d          -0.057  -0.689   3.576  0.00  0.00     0.314 C 
ATOM      3  O1  <0> d          -0.040  -1.903   3.575  0.00  0.00    -0.262 OA
ATOM      4  H7  <0> d           0.078   0.955   2.417  0.00  0.00     0.169 HD
ENDROOT
BRANCH   2   5
ATOM      5  C9  <0> d          -0.168   0.056   4.866  0.00  0.00     0.309 C 
ATOM      6  O2  <0> d          -0.185   1.269   4.866  0.00  0.00    -0.262 OA
ATOM      7  N2  <0> d          -0.249  -0.620   6.029  0.00  0.00    -0.349 N 
ATOM      8  H8  <0> d          -0.236  -1.590   6.029  0.00  0.00     0.163 HD
BRANCH   7   9
ATOM      9  C10 <0> d          -0.358   0.111   7.294  0.00  0.00     0.166 C 
BRANCH   9  10
ATOM     10  C11 <0> d          -0.434  -0.870   8.436  0.00  0.00     0.012 A 
ATOM     11  C15 <0> d           0.719  -1.470   8.926  0.00  0.00     0.172 A 
ATOM     12  N3  <0> d           0.658  -2.327   9.932  0.00  0.00    -0.237 NA
ATOM     13  C14 <0> d          -0.490  -2.651  10.495  0.00  0.00     0.119 A 
ATOM     14  C13 <0> d          -1.676  -2.098  10.055  0.00  0.00     0.020 A 
ATOM     15  C12 <0> d          -1.654  -1.190   9.006  0.00  0.00     0.014 A 
BRANCH  11  16
ATOM     16  O3  <0> d           1.920  -1.169   8.371  0.00  0.00    -0.329 OA
BRANCH  16  17
ATOM     17  C16 <0> d           3.069  -1.819   8.920  0.00  0.00     0.122 C 
ATOM     18  C17 <0> d           4.127  -1.992   7.828  0.00  0.00     0.040 C 
ATOM     19  C18 <0> d           3.642  -0.969  10.056  0.00  0.00     0.040 C 
ENDBRANCH  16  17
ENDBRANCH  11  16
ENDBRANCH   9  10
ENDBRANCH   7   9
ENDBRANCH   2   5
BRANCH   1  20
ATOM     20  C7  <0> d           0.033  -0.706   1.204  0.00  0.00     0.041 A 
ATOM     21  C2  <0> d          -0.589  -0.159   0.086  0.00  0.00    -0.034 A 
ATOM     22  C1  <0> d          -1.270   1.182   0.184  0.00  0.00     0.050 C 
ATOM     23  C3  <0> d          -0.579  -0.839  -1.111  0.00  0.00     0.026 A 
ATOM     24  C4  <0> d           0.053  -2.082  -1.202  0.00  0.00     0.032 A 
ATOM     25  C5  <0> d           0.672  -2.631  -0.075  0.00  0.00     0.019 A 
ATOM     26  C6  <0> d           0.658  -1.947   1.119  0.00  0.00     0.031 A 
BRANCH  24  27
ATOM     27  C19 <0> d           0.066  -2.813  -2.483  0.00  0.00     0.251 C 
ATOM     28  O4  <0> d          -0.473  -2.334  -3.462  0.00  0.00    -0.268 OA
ATOM     29  N4  <0> d           0.675  -4.012  -2.569  0.00  0.00    -0.361 N 
ATOM     30  C20 <0> d           0.688  -4.739  -3.841  0.00  0.00     0.149 C 
ATOM     31  H21 <0> d           1.106  -4.394  -1.788  0.00  0.00     0.162 HD
ENDBRANCH  24  27
ENDBRANCH   1  20
TORSDOF 7
