REMARK  6 active torsions:
REMARK  status: ('A' for Active; 'I' for Inactive)
REMARK    1  A    between atoms: N1_7  and  C13_15 
REMARK    2  A    between atoms: C13_15  and  C14_16 
REMARK    3  A    between atoms: C14_16  and  C15_17 
REMARK    4  A    between atoms: C15_17  and  N2_18 
REMARK       I    between atoms: N2_18  and  C16_19 
REMARK    5  A    between atoms: C16_19  and  C17_21 
REMARK    6  A    between atoms: C17_21  and  N3_22 
ROOT
ATOM      1  C14 <0> d           0.083  -3.866   3.029  0.00  0.00     0.040 C 
ENDROOT
BRANCH   1   2
ATOM      2  C13 <0> d           0.104  -4.383   4.469  0.00  0.00     0.131 C 
BRANCH   2   3
ATOM      3  N1  <0> d           0.124  -5.848   4.460  0.00  0.00    -0.345 N 
ATOM      4  C5  <0> d           1.356  -6.511   4.445  0.00  0.00     0.052 A 
ATOM      5  C4  <0> d           1.517  -7.684   3.703  0.00  0.00     0.032 A 
ATOM      6  C6  <0> d           2.429  -6.011   5.167  0.00  0.00     0.031 A 
ATOM      7  C3  <0> d           2.733  -8.341   3.688  0.00  0.00     0.021 A 
ATOM      8  S1  <0> d           0.141  -8.307   2.789  0.00  0.00    -0.086 SA
ATOM      9  C2  <0> d           3.798  -7.833   4.413  0.00  0.00     0.002 A 
ATOM     10  C1  <0> d           3.644  -6.673   5.148  0.00  0.00     0.002 A 
ATOM     11  C12 <0> d          -1.233  -7.721   3.729  0.00  0.00     0.032 A 
ATOM     12  C7  <0> d          -1.089  -6.545   4.474  0.00  0.00     0.052 A 
ATOM     13  C11 <0> d          -2.430  -8.412   3.737  0.00  0.00     0.021 A 
ATOM     14  C8  <0> d          -2.158  -6.074   5.221  0.00  0.00     0.031 A 
ATOM     15  C9  <0> d          -3.355  -6.769   5.231  0.00  0.00     0.002 A 
ATOM     16  C10 <0> d          -3.494  -7.933   4.500  0.00  0.00     0.002 A 
ENDBRANCH   2   3
ENDBRANCH   1   2
BRANCH   1  17
ATOM     17  C15 <0> d           0.063  -2.336   3.037  0.00  0.00     0.124 C 
BRANCH  17  18
ATOM     18  N2  <0> d           0.043  -1.840   1.659  0.00  0.00    -0.360 N 
ATOM     19  C16 <0> d           0.022  -0.514   1.420  0.00  0.00     0.235 C 
ATOM     20  O1  <0> d           0.021   0.269   2.346  0.00  0.00    -0.272 OA
ATOM     21  H16 <0> d           0.044  -2.550   0.819  0.00  0.00     0.162 HD
BRANCH  19  22
ATOM     22  C17 <0> d           0.002  -0.004   0.002  0.00  0.00     0.235 C 
BRANCH  22  23
ATOM     23  N3  <0> d          -0.018   1.461   0.010  0.00  0.00    -0.301 N 
ATOM     24  C21 <0> d           1.142   2.143   0.003  0.00  0.00     0.329 A 
ATOM     25  N4  <0> d           1.153   3.489   0.009  0.00  0.00    -0.275 N 
ATOM     26  O3  <0> d           2.195   1.535  -0.010  0.00  0.00    -0.246 OA
ATOM     27  C20 <0> d          -0.006   4.178   0.024  0.00  0.00     0.250 A 
ATOM     28  H1  <0> d           2.112   4.027   0.002  0.00  0.00     0.173 HD
ATOM     29  C19 <0> d          -1.234   3.472   0.032  0.00  0.00     0.092 A 
ATOM     30  O2  <0> d           0.003   5.396   0.030  0.00  0.00    -0.268 OA
ATOM     31  C18 <0> d          -1.216   2.122   0.019  0.00  0.00     0.102 A 
ENDBRANCH  22  23
ENDBRANCH  19  22
ENDBRANCH  17  18
ENDBRANCH   1  17
TORSDOF 6
