REMARK  4 active torsions:
REMARK  status: ('A' for Active; 'I' for Inactive)
REMARK    1  A    between atoms: C5_5  and  C8_12 
REMARK       I    between atoms: C8_12  and  N4_14 
REMARK    2  A    between atoms: N4_14  and  C9_15 
REMARK    3  A    between atoms: C9_15  and  C10_16 
REMARK    4  A    between atoms: C13_20  and  N6_22 
ROOT
ATOM      1  C8  <0> d          -5.685   2.026   0.008  0.00  0.00     0.253 C 
ATOM      2  O1  <0> d          -5.549   1.647   1.155  0.00  0.00    -0.268 OA
ATOM      3  N4  <0> d          -6.906   2.370  -0.447  0.00  0.00    -0.353 N 
ATOM      4  H7  <0> d          -7.015   2.673  -1.363  0.00  0.00     0.163 HD
ENDROOT
BRANCH   1   5
ATOM      5  C5  <0> d          -4.513   2.110  -0.886  0.00  0.00     0.050 A 
ATOM      6  C4  <0> d          -3.245   1.756  -0.424  0.00  0.00     0.036 A 
ATOM      7  C3  <0> d          -2.173   1.854  -1.313  0.00  0.00     0.038 A 
ATOM      8  C2  <0> d          -0.742   1.585  -1.213  0.00  0.00     0.065 A 
ATOM      9  C7  <0> d          -2.404   2.301  -2.631  0.00  0.00     0.155 A 
ATOM     10  C1  <0> d          -0.013   1.086   0.008  0.00  0.00     0.073 C 
ATOM     11  N3  <0> d          -0.208   1.860  -2.368  0.00  0.00    -0.177 NA
ATOM     12  N2  <0> d          -1.192   2.295  -3.261  0.00  0.00    -0.260 N 
ATOM     13  H1  <0> d          -1.037   2.555  -4.183  0.00  0.00     0.191 HD
ATOM     14  N1  <0> d          -3.632   2.626  -3.021  0.00  0.00    -0.240 NA
ATOM     15  C6  <0> d          -4.660   2.545  -2.210  0.00  0.00     0.136 A 
ENDBRANCH   1   5
BRANCH   3  16
ATOM     16  C9  <0> d          -8.069   2.288   0.440  0.00  0.00     0.161 C 
BRANCH  16  17
ATOM     17  C10 <0> d          -9.303   2.724  -0.307  0.00  0.00    -0.036 A 
ATOM     18  C14 <0> d         -10.068   1.808  -1.006  0.00  0.00     0.057 A 
ATOM     19  C13 <0> d         -11.203   2.248  -1.679  0.00  0.00     0.102 A 
ATOM     20  N5  <0> d         -11.543   3.527  -1.662  0.00  0.00    -0.352 N 
ATOM     21  C12 <0> d         -10.829   4.424  -1.008  0.00  0.00     0.090 A 
ATOM     22  H19 <0> d         -12.336   3.812  -2.142  0.00  0.00     0.166 HD
ATOM     23  C11 <0> d          -9.694   4.057  -0.314  0.00  0.00     0.026 A 
BRANCH  19  24
ATOM     24  N6  <0> d         -11.984   1.337  -2.381  0.00  0.00    -0.376 N 
ATOM     25  C15 <0> d         -13.177   1.794  -3.097  0.00  0.00     0.150 C 
ATOM     26  C16 <0> d         -11.614  -0.080  -2.404  0.00  0.00     0.150 C 
ENDBRANCH  19  24
ENDBRANCH  16  17
ENDBRANCH   3  16
TORSDOF 4
