REMARK  8 active torsions:
REMARK  status: ('A' for Active; 'I' for Inactive)
REMARK    1  A    between atoms: C2_2  and  C3_3 
REMARK    2  A    between atoms: C3_3  and  C4_4 
REMARK    3  A    between atoms: C4_4  and  C5_5 
REMARK    4  A    between atoms: C5_5  and  C6_6 
REMARK    5  A    between atoms: C5_5  and  N3_22 
REMARK    6  A    between atoms: C7_8  and  C9_11 
REMARK       I    between atoms: C9_11  and  N2_13 
REMARK    7  A    between atoms: N2_13  and  C10_14 
REMARK    8  A    between atoms: C10_14  and  C11_15 
ROOT
ATOM      1  C6  <0> d           1.369  -4.024  -2.595  0.00  0.00     0.106 A 
ATOM      2  N1  <0> d           0.616  -4.751  -3.375  0.00  0.00    -0.238 NA
ATOM      3  C7  <0> d           0.696  -6.081  -3.273  0.00  0.00     0.131 A 
ATOM      4  C8  <0> d           1.577  -6.562  -2.343  0.00  0.00     0.089 A 
ATOM      5  S1  <0> d           2.223  -5.154  -1.694  0.00  0.00    -0.082 SA
ENDROOT
BRANCH   3   6
ATOM      6  C9  <0> d          -0.117  -6.977  -4.114  0.00  0.00     0.271 C 
ATOM      7  O1  <0> d          -0.015  -8.183  -3.992  0.00  0.00    -0.266 OA
ATOM      8  N2  <0> d          -0.973  -6.461  -5.017  0.00  0.00    -0.351 N 
ATOM      9  H12 <0> d          -1.054  -5.499  -5.115  0.00  0.00     0.163 HD
BRANCH   8  10
ATOM     10  C10 <0> d          -1.781  -7.352  -5.853  0.00  0.00     0.161 C 
BRANCH  10  11
ATOM     11  C11 <0> d          -2.648  -6.530  -6.772  0.00  0.00    -0.040 A 
ATOM     12  C16 <0> d          -2.179  -6.164  -8.020  0.00  0.00     0.010 A 
ATOM     13  C15 <0> d          -2.976  -5.414  -8.865  0.00  0.00     0.019 A 
ATOM     14  C14 <0> d          -4.238  -5.021  -8.457  0.00  0.00     0.011 A 
ATOM     15  C13 <0> d          -4.705  -5.383  -7.207  0.00  0.00     0.019 A 
ATOM     16 Br1  <0> d          -5.325  -3.990  -9.610  0.00  0.00    -0.051 Br
ATOM     17  C12 <0> d          -3.909  -6.138  -6.364  0.00  0.00     0.010 A 
ENDBRANCH  10  11
ENDBRANCH   8  10
ENDBRANCH   3   6
BRANCH   1  18
ATOM     18  C5  <0> d           1.455  -2.521  -2.524  0.00  0.00     0.242 C 
BRANCH  18  19
ATOM     19  C4  <0> d           0.739  -2.027  -1.265  0.00  0.00     0.040 C 
BRANCH  19  20
ATOM     20  C3  <0> d           0.718  -0.497  -1.257  0.00  0.00     0.002 C 
BRANCH  20  21
ATOM     21  C2  <0> d           0.002  -0.004   0.002  0.00  0.00    -0.004 C 
ATOM     22  C1  <0> d          -0.019   1.526   0.010  0.00  0.00     0.005 C 
ENDBRANCH  20  21
ENDBRANCH  19  20
ENDBRANCH  18  19
BRANCH  18  23
ATOM     23  N3  <0> d           2.866  -2.113  -2.476  0.00  0.00    -0.069 N 
ATOM     24  H19 <0> d           3.304  -2.514  -1.661  0.00  0.00     0.275 HD
ATOM     25  H20 <0> d           3.338  -2.439  -3.307  0.00  0.00     0.275 HD
ATOM     26  H21 <0> d           2.924  -1.107  -2.429  0.00  0.00     0.275 HD
ENDBRANCH  18  23
ENDBRANCH   1  18
TORSDOF 8
