REMARK  4 active torsions:
REMARK  status: ('A' for Active; 'I' for Inactive)
REMARK    1  A    between atoms: C5_5  and  O1_9 
REMARK    2  A    between atoms: O1_9  and  C9_10 
REMARK    3  A    between atoms: C14_15  and  C15_16 
REMARK    4  A    between atoms: C15_16  and  N1_17 
ROOT
ATOM      1  C9  <0> d          -0.044  -4.761  -1.217  0.00  0.00     0.091 A 
ATOM      2  C10 <0> d          -0.058  -4.026  -2.393  0.00  0.00     0.038 A 
ATOM      3  C11 <0> d          -0.162  -4.670  -3.611  0.00  0.00     0.004 A 
ATOM      4  C12 <0> d          -0.253  -6.050  -3.668  0.00  0.00     0.025 A 
ATOM      5  C13 <0> d          -0.241  -6.797  -2.507  0.00  0.00     0.050 A 
ATOM      6  C14 <0> d          -0.130  -6.158  -1.270  0.00  0.00     0.062 A 
ATOM      7 Cl1  <0> d          -0.356  -8.528  -2.586  0.00  0.00    -0.083 Cl
ENDROOT
BRANCH   1   8
ATOM      8  O1  <0> d           0.058  -4.129  -0.021  0.00  0.00    -0.310 OA
BRANCH   8   9
ATOM      9  C5  <0> d           0.014  -2.771  -0.011  0.00  0.00     0.076 A 
ATOM     10  C4  <0> d           1.143  -2.042   0.336  0.00  0.00     0.038 A 
ATOM     11  C3  <0> d           1.097  -0.661   0.345  0.00  0.00     0.010 A 
ATOM     12  C2  <0> d          -0.074  -0.006   0.009  0.00  0.00    -0.056 A 
ATOM     13  C1  <0> d          -0.122   1.500   0.019  0.00  0.00     0.049 C 
ATOM     14  C7  <0> d          -1.202  -0.730  -0.331  0.00  0.00    -0.053 A 
ATOM     15  C6  <0> d          -1.159  -2.111  -0.347  0.00  0.00     0.044 A 
ATOM     16  C8  <0> d          -2.477  -0.012  -0.691  0.00  0.00     0.049 C 
ENDBRANCH   8   9
ENDBRANCH   1   8
BRANCH   6  17
ATOM     17  C15 <0> d          -0.110  -6.951  -0.024  0.00  0.00     0.107 C 
ATOM     18  N2  <0> d          -1.106  -6.836   0.855  0.00  0.00    -0.385 N 
ATOM     19  H14 <0> d          -1.843  -6.232   0.676  0.00  0.00     0.157 HD
ATOM     20  H15 <0> d          -1.093  -7.356   1.673  0.00  0.00     0.157 HD
BRANCH  17  21
ATOM     21  N1  <0> d           0.903  -7.781   0.221  0.00  0.00    -0.385 N 
ATOM     22  H13 <0> d           0.916  -8.302   1.040  0.00  0.00     0.157 HD
ATOM     23  H16 <0> d           1.627  -7.864  -0.418  0.00  0.00     0.157 HD
ENDBRANCH  17  21
ENDBRANCH   6  17
TORSDOF 4
