REMARK  1 active torsions:
REMARK  status: ('A' for Active; 'I' for Inactive)
REMARK    1  A    between atoms: N1_5  and  C7_8 
ROOT
ATOM      1  C7  <0> d          -1.966   1.832   1.266  0.00  0.00     0.204 A 
ATOM      2  N2  <0> d          -1.599   2.953   1.837  0.00  0.00    -0.141 NA
ATOM      3  N3  <0> d          -0.719   2.639   2.881  0.00  0.00    -0.253 N 
ATOM      4  C8  <0> d          -0.582   1.336   2.917  0.00  0.00     0.176 A 
ATOM      5  N4  <0> d          -1.351   0.803   1.922  0.00  0.00    -0.304 N 
ATOM      6  C9  <0> d          -1.489  -0.622   1.609  0.00  0.00     0.161 C 
ATOM      7  S1  <0> d           0.420   0.432   4.050  0.00  0.00    -0.011 SA
ATOM      8  H16 <0> d          -0.285   3.443   3.494  0.00  0.00     0.191 HD
ENDROOT
BRANCH   1   9
ATOM      9  N1  <0> d          -2.827   1.710   0.183  0.00  0.00    -0.252 NA
ATOM     10  C4  <0> d          -4.163   2.222   0.514  0.00  0.00     0.099 C 
ATOM     11  C3  <0> d          -5.121   1.940  -0.646  0.00  0.00     0.019 C 
ATOM     12  C2  <0> d          -4.593   2.620  -1.913  0.00  0.00    -0.016 C 
ATOM     13  C1  <0> d          -5.514   2.292  -3.090  0.00  0.00     0.010 C 
ATOM     14  C6  <0> d          -3.182   2.106  -2.208  0.00  0.00     0.019 C 
ATOM     15  C5  <0> d          -2.280   2.383  -1.003  0.00  0.00     0.099 C 
ENDBRANCH   1   9
TORSDOF 1
