REMARK  5 active torsions:
REMARK  status: ('A' for Active; 'I' for Inactive)
REMARK    1  A    between atoms: C6_7  and  C9_10 
REMARK    2  A    between atoms: C10_13  and  S1_22 
REMARK    3  A    between atoms: N4_14  and  C11_15 
REMARK    4  A    between atoms: S1_22  and  C17_23 
REMARK    5  A    between atoms: C17_23  and  C18_24 
REMARK       I    between atoms: C18_24  and  N5_26 
ROOT
ATOM      1  C9  <0> d           0.664  -3.313   0.545  0.00  0.00     0.161 A 
ATOM      2  N2  <0> d          -0.630  -3.144   0.472  0.00  0.00    -0.158 NA
ATOM      3  N3  <0> d          -1.237  -4.172  -0.260  0.00  0.00    -0.279 N 
ATOM      4  C10 <0> d          -0.157  -5.079  -0.681  0.00  0.00     0.273 A 
ATOM      5  N4  <0> d           1.065  -4.468  -0.133  0.00  0.00    -0.298 N 
ATOM      6  H8  <0> d          -2.183  -4.268  -0.451  0.00  0.00     0.185 HD
ENDROOT
BRANCH   1   7
ATOM      7  C6  <0> d           1.539  -2.443   1.213  0.00  0.00     0.020 A 
ATOM      8  C5  <0> d           3.050  -2.513   1.246  0.00  0.00     0.163 A 
ATOM      9  N1  <0> d           3.490  -1.386   2.074  0.00  0.00    -0.385 N 
ATOM     10  C4  <0> d           2.434  -0.716   2.494  0.00  0.00     0.039 A 
ATOM     11  H17 <0> d           4.412  -1.167   2.280  0.00  0.00     0.160 HD
ATOM     12  C3  <0> d           2.319   0.438   3.311  0.00  0.00     0.030 A 
ATOM     13  C7  <0> d           1.198  -1.333   1.986  0.00  0.00     0.002 A 
ATOM     14  C2  <0> d           1.093   0.939   3.601  0.00  0.00     0.002 A 
ATOM     15  C1  <0> d          -0.077   0.350   3.117  0.00  0.00     0.001 A 
ATOM     16  C8  <0> d          -0.043  -0.756   2.330  0.00  0.00     0.014 A 
ENDBRANCH   1   7
BRANCH   5  17
ATOM     17  C11 <0> d           2.371  -4.949  -0.263  0.00  0.00     0.039 A 
ATOM     18  C16 <0> d           3.186  -4.482  -1.287  0.00  0.00     0.031 A 
ATOM     19  C15 <0> d           4.477  -4.955  -1.409  0.00  0.00     0.026 A 
ATOM     20  C14 <0> d           4.957  -5.901  -0.520  0.00  0.00     0.034 A 
ATOM     21  C13 <0> d           4.145  -6.372   0.497  0.00  0.00     0.026 A 
ATOM     22 Cl1  <0> d           6.579  -6.498  -0.681  0.00  0.00    -0.084 Cl
ATOM     23  C12 <0> d           2.854  -5.898   0.628  0.00  0.00     0.031 A 
ENDBRANCH   5  17
BRANCH   4  24
ATOM     24  S1  <0> d          -0.066  -5.161  -2.490  0.00  0.00    -0.112 SA
BRANCH  24  25
ATOM     25  C17 <0> d           0.218  -3.442  -2.994  0.00  0.00     0.180 C 
BRANCH  25  26
ATOM     26  C18 <0> d           0.315  -3.367  -4.496  0.00  0.00     0.224 C 
ATOM     27  O1  <0> d           0.203  -4.375  -5.161  0.00  0.00    -0.273 OA
ATOM     28  N5  <0> d           0.526  -2.181  -5.099  0.00  0.00    -0.369 N 
ATOM     29  H15 <0> d           0.616  -1.375  -4.567  0.00  0.00     0.159 HD
ATOM     30  H16 <0> d           0.588  -2.133  -6.066  0.00  0.00     0.159 HD
ENDBRANCH  25  26
ENDBRANCH  24  25
ENDBRANCH   4  24
TORSDOF 5
