REMARK  4 active torsions:
REMARK  status: ('A' for Active; 'I' for Inactive)
REMARK    1  A    between atoms: C2_2  and  C3_3 
REMARK    2  A    between atoms: C3_3  and  C4_4 
REMARK    3  A    between atoms: C3_3  and  N1_9 
REMARK    4  A    between atoms: C4_4  and  C5_5 
ROOT
ATOM      1  C3  <0> d          -1.427  -0.514  -0.297  0.00  0.00     0.186 C 
ENDROOT
BRANCH   1   2
ATOM      2  C2  <0> d          -0.224   0.204  -0.913  0.00  0.00     0.028 C 
ATOM      3  C1  <0> d          -0.685   1.516  -1.552  0.00  0.00     0.007 C 
ENDBRANCH   1   2
BRANCH   1   4
ATOM      4  C4  <0> d          -0.989  -1.881   0.230  0.00  0.00     0.077 C 
BRANCH   4   5
ATOM      5  C5  <0> d          -2.218  -2.666   0.694  0.00  0.00     0.134 C 
ATOM      6 Br1  <0> d          -3.547  -2.717  -0.754  0.00  0.00    -0.060 Br
ATOM      7 Br2  <0> d          -1.687  -4.501   1.160  0.00  0.00    -0.060 Br
ATOM      8 Br3  <0> d          -2.999  -1.789   2.271  0.00  0.00    -0.060 Br
ENDBRANCH   4   5
ENDBRANCH   1   4
BRANCH   1   9
ATOM      9  N1  <0> d          -1.962   0.290   0.809  0.00  0.00    -0.075 N 
ATOM     10  H9  <0> d          -2.889  -0.033   1.042  0.00  0.00     0.274 HD
ATOM     11  H10 <0> d          -1.362   0.196   1.615  0.00  0.00     0.274 HD
ATOM     12  H11 <0> d          -2.003   1.259   0.532  0.00  0.00     0.274 HD
ENDBRANCH   1   9
TORSDOF 4
