REMARK  3 active torsions:
REMARK  status: ('A' for Active; 'I' for Inactive)
REMARK    1  A    between atoms: C6_6  and  C7_8 
REMARK       I    between atoms: C7_8  and  N2_10 
REMARK    2  A    between atoms: N2_10  and  C8_11 
REMARK    3  A    between atoms: C13_16  and  N3_17 
ROOT
ATOM      1  C7  <0> d          -1.274  -0.756   0.013  0.00  0.00     0.274 C 
ATOM      2  O1  <0> d          -2.332  -0.157   0.019  0.00  0.00    -0.266 OA
ATOM      3  N2  <0> d          -1.262  -2.104   0.002  0.00  0.00    -0.320 N 
ATOM      4  H7  <0> d          -0.310  -2.645  -0.095  0.00  0.00     0.169 HD
ENDROOT
BRANCH   3   5
ATOM      5  C8  <0> d          -2.464  -2.816   0.115  0.00  0.00     0.061 A 
ATOM      6  C13 <0> d          -2.562  -4.108  -0.399  0.00  0.00     0.055 A 
ATOM      7  C12 <0> d          -3.753  -4.810  -0.281  0.00  0.00     0.073 A 
ATOM      8  C11 <0> d          -4.843  -4.222   0.338  0.00  0.00     0.118 A 
ATOM      9  C10 <0> d          -4.746  -2.937   0.844  0.00  0.00     0.044 A 
ATOM     10  F1  <0> d          -6.004  -4.905   0.448  0.00  0.00    -0.206 F 
ATOM     11  C9  <0> d          -3.561  -2.234   0.734  0.00  0.00     0.035 A 
BRANCH   6  12
ATOM     12  N3  <0> d          -1.461  -4.697  -1.029  0.00  0.00    -0.397 N 
ATOM     13  H11 <0> d          -1.539  -5.717  -1.434  0.00  0.00     0.156 HD
ATOM     14  H12 <0> d          -0.516  -4.141  -1.119  0.00  0.00     0.156 HD
ENDBRANCH   6  12
ENDBRANCH   3   5
BRANCH   1  15
ATOM     15  C6  <0> d           0.003  -0.004   0.017  0.00  0.00     0.124 A 
ATOM     16  C5  <0> d          -0.016   1.388   0.028  0.00  0.00     0.037 A 
ATOM     17  C4  <0> d           1.187   2.078   0.031  0.00  0.00     0.004 A 
ATOM     18  C3  <0> d           2.366   1.350   0.024  0.00  0.00     0.027 A 
ATOM     19  C2  <0> d           2.310  -0.035   0.013  0.00  0.00     0.031 A 
ATOM     20  C1  <0> d           3.589  -0.831   0.004  0.00  0.00     0.070 C 
ATOM     21  N1  <0> d           1.155  -0.664   0.010  0.00  0.00    -0.248 NA
ENDBRANCH   1  15
TORSDOF 3
