REMARK  4 active torsions:
REMARK  status: ('A' for Active; 'I' for Inactive)
REMARK       I    between atoms: C2_2  and  N1_4 
REMARK    1  A    between atoms: N1_4  and  C3_5 
REMARK    2  A    between atoms: C3_5  and  C4_6 
REMARK    3  A    between atoms: C4_6  and  N2_7 
REMARK       I    between atoms: N2_7  and  C5_8 
REMARK       I    between atoms: C5_8  and  N3_10 
REMARK    4  A    between atoms: N3_10  and  C7_12 
ROOT
ATOM      1  N2  <0> d           0.033  -4.104  -2.630  0.00  0.00    -0.341 N 
ATOM      2  C5  <0> d           0.031  -4.771  -3.801  0.00  0.00     0.318 C 
ATOM      3  O2  <0> d           0.013  -4.157  -4.851  0.00  0.00    -0.247 OA
ATOM      4  N3  <0> d           0.049  -6.119  -3.808  0.00  0.00    -0.333 N 
ATOM      5  C6  <0> d           0.071  -6.858  -2.544  0.00  0.00     0.155 C 
ATOM      6  H10 <0> d           0.048  -4.593  -1.793  0.00  0.00     0.164 HD
ENDROOT
BRANCH   1   7
ATOM      7  C4  <0> d           0.013  -2.639  -2.622  0.00  0.00     0.144 C 
BRANCH   7   8
ATOM      8  C3  <0> d           0.020  -2.136  -1.177  0.00  0.00     0.142 C 
BRANCH   8   9
ATOM      9  N1  <0> d           0.000  -0.672  -1.169  0.00  0.00    -0.360 N 
ATOM     10  C2  <0> d           0.002  -0.004   0.002  0.00  0.00     0.213 C 
ATOM     11  C1  <0> d          -0.018   1.503   0.010  0.00  0.00     0.117 C 
ATOM     12  O1  <0> d           0.020  -0.616   1.049  0.00  0.00    -0.274 OA
ATOM     13  H5  <0> d          -0.015  -0.182  -2.006  0.00  0.00     0.162 HD
ENDBRANCH   8   9
ENDBRANCH   7   8
ENDBRANCH   1   7
BRANCH   4  14
ATOM     14  C7  <0> d           0.047  -6.844  -5.081  0.00  0.00     0.103 C 
ATOM     15  C10 <0> d          -1.218  -7.733  -5.164  0.00  0.00     0.165 C 
ATOM     16  S1  <0> d          -0.640  -9.168  -6.157  0.00  0.00     0.146 S 
ATOM     17  C9  <0> d           1.131  -8.702  -6.364  0.00  0.00     0.142 C 
ATOM     18  O3  <0> d          -1.277  -9.138  -7.427  0.00  0.00    -0.228 OA
ATOM     19  O4  <0> d          -0.719 -10.343  -5.362  0.00  0.00    -0.228 OA
ATOM     20  C8  <0> d           1.308  -7.720  -5.172  0.00  0.00     0.041 C 
ENDBRANCH   4  14
TORSDOF 4
