REMARK  5 active torsions:
REMARK  status: ('A' for Active; 'I' for Inactive)
REMARK    1  A    between atoms: C4_4  and  N1_6 
REMARK    2  A    between atoms: N1_6  and  C6_7 
REMARK    3  A    between atoms: C6_7  and  C7_8 
REMARK    4  A    between atoms: C6_7  and  C13_15 
REMARK    5  A    between atoms: C21_24  and  O1_25 
ROOT
ATOM      1  C6  <0> d           2.468   3.909   0.001  0.00  0.00     0.152 C 
ENDROOT
BRANCH   1   2
ATOM      2  N1  <0> d           3.527   3.022  -0.487  0.00  0.00    -0.363 N 
ATOM      3  H6  <0> d           3.402   2.061  -0.468  0.00  0.00     0.162 HD
BRANCH   2   4
ATOM      4  C4  <0> d           4.712   3.559  -0.977  0.00  0.00     0.101 A 
ATOM      5  C5  <0> d           4.886   4.939  -1.002  0.00  0.00     0.048 A 
ATOM      6  C1  <0> d           6.070   5.460  -1.492  0.00  0.00     0.005 A 
ATOM      7  C2  <0> d           7.044   4.579  -1.943  0.00  0.00     0.017 A 
ATOM      8  C3  <0> d           6.805   3.220  -1.889  0.00  0.00     0.089 A 
ATOM      9  N3  <0> d           5.657   2.674  -1.408  0.00  0.00    -0.353 N 
ATOM     10  H17 <0> d           5.509   1.658  -1.372  0.00  0.00     0.166 HD
ENDBRANCH   2   4
ENDBRANCH   1   2
BRANCH   1  11
ATOM     11  C7  <0> d           2.750   4.289   1.432  0.00  0.00    -0.029 A 
ATOM     12  C12 <0> d           2.516   5.581   1.863  0.00  0.00     0.033 A 
ATOM     13  C11 <0> d           2.774   5.929   3.177  0.00  0.00     0.034 A 
ATOM     14  C10 <0> d           3.266   4.983   4.058  0.00  0.00     0.024 A 
ATOM     15 Cl1  <0> d           2.480   7.551   3.719  0.00  0.00    -0.084 Cl
ATOM     16  C9  <0> d           3.499   3.691   3.626  0.00  0.00     0.002 A 
ATOM     17  C8  <0> d           3.236   3.342   2.314  0.00  0.00     0.010 A 
ENDBRANCH   1  11
BRANCH   1  18
ATOM     18  C13 <0> d           1.142   3.199  -0.079  0.00  0.00     0.004 A 
ATOM     19  C21 <0> d          -0.004   3.928  -0.227  0.00  0.00     0.103 A 
ATOM     20  C20 <0> d          -1.247   3.265  -0.302  0.00  0.00     0.100 A 
ATOM     21  C16 <0> d          -1.279   1.851  -0.227  0.00  0.00    -0.004 A 
ATOM     22  N2  <0> d          -2.386   3.949  -0.446  0.00  0.00    -0.257 NA
ATOM     23  C15 <0> d          -0.080   1.137  -0.070  0.00  0.00     0.014 A 
ATOM     24  C17 <0> d          -2.519   1.191  -0.308  0.00  0.00     0.015 A 
ATOM     25  C14 <0> d           1.103   1.809  -0.002  0.00  0.00     0.013 A 
ATOM     26  C18 <0> d          -3.644   1.950  -0.461  0.00  0.00     0.020 A 
ATOM     27  C19 <0> d          -3.542   3.338  -0.533  0.00  0.00     0.117 A 
BRANCH  19  28
ATOM     28  O1  <0> d           0.054   5.283  -0.301  0.00  0.00    -0.358 OA
ATOM     29  H16 <0> d           0.151   5.623  -1.201  0.00  0.00     0.217 HD
ENDBRANCH  19  28
ENDBRANCH   1  18
TORSDOF 5
