REMARK  4 active torsions:
REMARK  status: ('A' for Active; 'I' for Inactive)
REMARK    1  A    between atoms: C10_15  and  C11_16 
REMARK    2  A    between atoms: C11_16  and  N5_17 
REMARK    3  A    between atoms: N5_17  and  C12_18 
REMARK    4  A    between atoms: C17_23  and  N6_24 
ROOT
ATOM      1  C1  <0> d           0.016   1.461   0.010  0.00  0.00     0.179 C 
ATOM      2  N1  <0> d           0.056  -0.003   0.003  0.00  0.00    -0.147 N 
ATOM      3  C2  <0> d           0.109  -0.660  -1.175  0.00  0.00     0.274 A 
ATOM      4  O1  <0> d           0.123  -0.047  -2.225  0.00  0.00    -0.267 OA
ATOM      5  C3  <0> d           0.149  -2.134  -1.166  0.00  0.00     0.060 A 
ATOM      6  C4  <0> d           0.204  -2.865  -2.351  0.00  0.00     0.019 A 
ATOM      7  C5  <0> d           0.241  -4.242  -2.301  0.00  0.00     0.001 A 
ATOM      8  C6  <0> d           0.222  -4.899  -1.080  0.00  0.00     0.002 A 
ATOM      9  C7  <0> d           0.167  -4.187   0.101  0.00  0.00     0.032 A 
ATOM     10  C8  <0> d           0.131  -2.801   0.070  0.00  0.00     0.074 A 
ATOM     11  N2  <0> d           0.076  -2.054   1.240  0.00  0.00    -0.127 N 
ATOM     12  C9  <0> d           0.046  -0.691   1.202  0.00  0.00     0.736 A 
ATOM     13  N3  <0> d           0.004  -0.277   2.449  0.00  0.00     0.044 NA
ATOM     14  N4  <0> d           0.012  -1.286   3.245  0.00  0.00    -0.117 NA
ATOM     15  C10 <0> d           0.047  -2.396   2.562  0.00  0.00     0.168 A 
ENDROOT
BRANCH  15  16
ATOM     16  C11 <0> d           0.069  -3.793   3.126  0.00  0.00     0.201 C 
BRANCH  16  17
ATOM     17  N5  <0> d           1.451  -4.273   3.189  0.00  0.00    -0.381 N 
ATOM     18  H10 <0> d           2.177  -3.703   2.890  0.00  0.00     0.160 HD
BRANCH  17  19
ATOM     19  C12 <0> d           1.726  -5.553   3.682  0.00  0.00     0.055 A 
ATOM     20  C17 <0> d           3.041  -6.012   3.744  0.00  0.00     0.063 A 
ATOM     21  C16 <0> d           3.306  -7.281   4.238  0.00  0.00     0.032 A 
ATOM     22  C15 <0> d           2.268  -8.090   4.657  0.00  0.00     0.002 A 
ATOM     23  C14 <0> d           0.963  -7.638   4.591  0.00  0.00     0.002 A 
ATOM     24  C13 <0> d           0.689  -6.373   4.105  0.00  0.00     0.031 A 
BRANCH  20  25
ATOM     25  N6  <0> d           4.093  -5.192   3.313  0.00  0.00    -0.316 N 
ATOM     26  C21 <0> d           4.565  -5.163   2.055  0.00  0.00     0.224 C 
ATOM     27  C20 <0> d           5.702  -4.170   1.948  0.00  0.00     0.105 C 
ATOM     28  O2  <0> d           4.141  -5.834   1.137  0.00  0.00    -0.273 OA
ATOM     29  C19 <0> d           6.123  -3.920   3.415  0.00  0.00     0.029 C 
ATOM     30  C18 <0> d           4.823  -4.258   4.178  0.00  0.00     0.133 C 
ENDBRANCH  20  25
ENDBRANCH  17  19
ENDBRANCH  16  17
ENDBRANCH  15  16
TORSDOF 4
