REMARK  8 active torsions:
REMARK  status: ('A' for Active; 'I' for Inactive)
REMARK    1  A    between atoms: C2_2  and  C3_3 
REMARK    2  A    between atoms: C3_3  and  C4_4 
REMARK    3  A    between atoms: C5_6  and  C7_9 
REMARK    4  A    between atoms: C7_9  and  O1_10 
REMARK    5  A    between atoms: O1_10  and  C8_11 
REMARK    6  A    between atoms: C9_12  and  C14_18 
REMARK    7  A    between atoms: C14_18  and  C15_19 
REMARK    8  A    between atoms: C15_19  and  N2_21 
ROOT
ATOM      1  C8  <0> d          -1.655  -7.502  -2.531  0.00  0.00     0.092 A 
ATOM      2  C9  <0> d          -2.539  -7.910  -1.544  0.00  0.00    -0.021 A 
ATOM      3  C10 <0> d          -3.363  -8.998  -1.762  0.00  0.00     0.010 A 
ATOM      4  C11 <0> d          -3.306  -9.679  -2.964  0.00  0.00     0.002 A 
ATOM      5  C12 <0> d          -2.426  -9.274  -3.950  0.00  0.00     0.022 A 
ATOM      6  C13 <0> d          -1.604  -8.183  -3.739  0.00  0.00     0.044 A 
ATOM      7 Br1  <0> d          -0.406  -7.624  -5.091  0.00  0.00    -0.048 Br
ENDROOT
BRANCH   1   8
ATOM      8  O1  <0> d          -0.844  -6.432  -2.318  0.00  0.00    -0.343 OA
BRANCH   8   9
ATOM      9  C7  <0> d          -1.330  -5.155  -2.736  0.00  0.00     0.235 C 
BRANCH   9  10
ATOM     10  C5  <0> d          -0.352  -4.085  -2.325  0.00  0.00     0.066 A 
ATOM     11  N1  <0> d          -0.568  -2.813  -2.594  0.00  0.00    -0.248 NA
ATOM     12  C4  <0> d           0.284  -1.886  -2.234  0.00  0.00     0.075 A 
ATOM     13  S1  <0> d           1.502  -2.760  -1.469  0.00  0.00    -0.085 SA
ATOM     14  C6  <0> d           0.792  -4.388  -1.659  0.00  0.00     0.081 A 
BRANCH  12  15
ATOM     15  C3  <0> d           0.198  -0.398  -2.456  0.00  0.00     0.067 C 
BRANCH  15  16
ATOM     16  C2  <0> d          -0.516   0.255  -1.271  0.00  0.00     0.002 C 
ATOM     17  C1  <0> d          -0.604   1.765  -1.497  0.00  0.00     0.005 C 
ENDBRANCH  15  16
ENDBRANCH  12  15
ENDBRANCH   9  10
ENDBRANCH   8   9
ENDBRANCH   1   8
BRANCH   2  18
ATOM     18  C14 <0> d          -2.601  -7.169  -0.233  0.00  0.00     0.074 C 
BRANCH  18  19
ATOM     19  C15 <0> d          -1.500  -7.684   0.697  0.00  0.00     0.183 C 
ATOM     20  C16 <0> d          -1.485  -6.851   1.980  0.00  0.00     0.040 C 
BRANCH  19  21
ATOM     21  N2  <0> d          -1.759  -9.091   1.030  0.00  0.00    -0.075 N 
ATOM     22  H20 <0> d          -1.677  -9.654   0.196  0.00  0.00     0.274 HD
ATOM     23  H21 <0> d          -1.086  -9.404   1.714  0.00  0.00     0.274 HD
ATOM     24  H22 <0> d          -2.690  -9.182   1.407  0.00  0.00     0.274 HD
ENDBRANCH  19  21
ENDBRANCH  18  19
ENDBRANCH   2  18
TORSDOF 8
