REMARK  5 active torsions:
REMARK  status: ('A' for Active; 'I' for Inactive)
REMARK    1  A    between atoms: N1_4  and  S1_9 
REMARK    2  A    between atoms: S1_9  and  N2_12 
REMARK    3  A    between atoms: N3_15  and  C11_18 
REMARK    4  A    between atoms: C11_18  and  N4_19 
REMARK    5  A    between atoms: C13_24  and  C14_26 
ROOT
ATOM      1  N2  <0> d           5.353  -0.083  -3.732  0.00  0.00    -0.291 N 
ATOM      2  C7  <0> d           5.793   1.095  -2.969  0.00  0.00     0.164 C 
ATOM      3  C8  <0> d           5.371   0.914  -1.507  0.00  0.00     0.257 C 
ATOM      4  N3  <0> d           3.929   0.639  -1.448  0.00  0.00    -0.050 N 
ATOM      5  C9  <0> d           3.599  -0.621  -2.127  0.00  0.00     0.257 C 
ATOM      6  C10 <0> d           3.949  -0.503  -3.614  0.00  0.00     0.164 C 
ATOM      7  H31 <0> d           3.411   1.451  -1.979  0.00  0.00     0.282 HD
ENDROOT
BRANCH   4   8
ATOM      8  C11 <0> d           3.451   0.629  -0.058  0.00  0.00     0.388 C 
BRANCH   8   9
ATOM      9  N4  <0> d           1.987   0.591  -0.046  0.00  0.00    -0.216 N 
ATOM     10  N6  <0> d           1.186  -0.559  -0.037  0.00  0.00    -0.155 NA
ATOM     11  C13 <0> d          -0.054  -0.186  -0.027  0.00  0.00     0.130 A 
ATOM     12  N5  <0> d          -0.104   1.186  -0.030  0.00  0.00    -0.318 N 
ATOM     13  C12 <0> d           1.159   1.657  -0.041  0.00  0.00     0.197 A 
ATOM     14  H3  <0> d          -0.952   1.887  -0.024  0.00  0.00     0.169 HD
ATOM     15  S2  <0> d           1.628   3.304  -0.048  0.00  0.00    -0.039 SA
BRANCH  11  16
ATOM     16  C14 <0> d          -1.246  -1.107  -0.015  0.00  0.00     0.049 C 
ATOM     17  C15 <0> d          -1.715  -1.317   1.426  0.00  0.00     0.018 C 
ATOM     18  C16 <0> d          -2.379  -0.485  -0.834  0.00  0.00     0.018 C 
ENDBRANCH  11  16
ENDBRANCH   8   9
ENDBRANCH   4   8
BRANCH   1  19
ATOM     19  S1  <0> d           6.411  -0.913  -4.698  0.00  0.00     0.319 S 
ATOM     20  O2  <0> d           5.622  -1.670  -5.607  0.00  0.00    -0.182 OA
ATOM     21  O3  <0> d           7.386   0.024  -5.133  0.00  0.00    -0.182 OA
BRANCH  19  22
ATOM     22  N1  <0> d           7.200  -2.005  -3.735  0.00  0.00    -0.289 N 
ATOM     23  C3  <0> d           8.396  -1.615  -2.970  0.00  0.00     0.168 C 
ATOM     24  C2  <0> d           9.502  -2.640  -3.247  0.00  0.00     0.136 C 
ATOM     25  C1  <0> d           9.953  -2.525  -4.704  0.00  0.00     0.041 C 
ATOM     26  O1  <0> d           8.995  -3.955  -3.006  0.00  0.00    -0.378 OA
ATOM     27  C5  <0> d           7.913  -4.332  -3.862  0.00  0.00     0.136 C 
ATOM     28  C4  <0> d           6.723  -3.392  -3.613  0.00  0.00     0.168 C 
ATOM     29  C6  <0> d           7.498  -5.772  -3.557  0.00  0.00     0.041 C 
ENDBRANCH  19  22
ENDBRANCH   1  19
TORSDOF 5
