REMARK  7 active torsions:
REMARK  status: ('A' for Active; 'I' for Inactive)
REMARK    1  A    between atoms: C4_4  and  C12_13 
REMARK    2  A    between atoms: C5_5  and  C7_7 
REMARK    3  A    between atoms: C7_7  and  N2_35 
REMARK    4  A    between atoms: C23_26  and  C24_27 
REMARK    5  A    between atoms: C23_26  and  N3_37 
REMARK    6  A    between atoms: C27_30  and  C28_32 
REMARK    7  A    between atoms: C28_32  and  O4_33 
ROOT
ATOM      1  C12 <0> d           0.686   1.353   0.149  0.00  0.00     0.043 A 
ATOM      2  C13 <0> d          -0.327   2.264  -0.107  0.00  0.00     0.020 A 
ATOM      3  C14 <0> d          -0.022   3.626  -0.091  0.00  0.00     0.027 A 
ATOM      4  C15 <0> d           1.250   4.051   0.144  0.00  0.00     0.020 A 
ATOM      5  N1  <0> d           2.259   3.164   0.303  0.00  0.00    -0.317 N 
ATOM      6  C16 <0> d           1.992   1.837   0.382  0.00  0.00     0.259 A 
ATOM      7  O2  <0> d           2.888   1.055   0.656  0.00  0.00    -0.267 OA
ATOM      8  C17 <0> d           3.669   3.557   0.341  0.00  0.00     0.138 C 
ATOM      9  C18 <0> d           3.852   5.026   0.683  0.00  0.00     0.031 C 
ATOM     10  C19 <0> d           2.908   5.870  -0.178  0.00  0.00     0.020 C 
ATOM     11  C20 <0> d           1.473   5.543   0.250  0.00  0.00     0.062 C 
ATOM     12  C21 <0> d           1.318   5.930   1.730  0.00  0.00     0.246 C 
ATOM     13  C22 <0> d           3.607   5.284   2.163  0.00  0.00     0.241 C 
ATOM     14  N3  <0> d           2.196   5.029   2.506  0.00  0.00    -0.064 N 
ATOM     15  H35 <0> d           1.966   4.056   2.274  0.00  0.00     0.280 HD
ENDROOT
BRANCH   1  16
ATOM     16  C4  <0> d           0.405  -0.101   0.172  0.00  0.00    -0.013 A 
ATOM     17  C3  <0> d           0.810  -0.910  -0.889  0.00  0.00     0.013 A 
ATOM     18  C2  <0> d           0.546  -2.264  -0.861  0.00  0.00     0.001 A 
ATOM     19  C1  <0> d          -0.120  -2.820   0.216  0.00  0.00     0.001 A 
ATOM     20  C6  <0> d          -0.525  -2.023   1.272  0.00  0.00     0.010 A 
ATOM     21  C5  <0> d          -0.262  -0.668   1.258  0.00  0.00    -0.021 A 
BRANCH  21  22
ATOM     22  C7  <0> d          -0.699   0.198   2.412  0.00  0.00     0.274 C 
BRANCH  22  23
ATOM     23  N2  <0> d          -1.517  -0.617   3.336  0.00  0.00    -0.063 N 
ATOM     24  C8  <0> d          -2.859  -0.842   2.758  0.00  0.00     0.261 C 
ATOM     25  C9  <0> d          -3.667  -1.717   3.720  0.00  0.00     0.195 C 
ATOM     26  O1  <0> d          -3.738  -1.074   4.996  0.00  0.00    -0.388 OA
ATOM     27  C10 <0> d          -2.459  -0.818   5.583  0.00  0.00     0.195 C 
ATOM     28  C11 <0> d          -1.639   0.067   4.640  0.00  0.00     0.261 C 
ATOM     29  H34 <0> d          -1.058  -1.525   3.476  0.00  0.00     0.280 HD
ENDBRANCH  22  23
ENDBRANCH  21  22
ENDBRANCH   1  16
BRANCH  14  30
ATOM     30  C23 <0> d           1.980   5.244   3.953  0.00  0.00     0.299 C 
BRANCH  30  31
ATOM     31  C24 <0> d           0.594   4.776   4.314  0.00  0.00     0.079 A 
ATOM     32  O3  <0> d          -0.519   5.528   4.292  0.00  0.00    -0.316 OA
ATOM     33  C27 <0> d          -1.570   4.782   4.670  0.00  0.00     0.076 A 
ATOM     34  C26 <0> d          -1.133   3.541   4.948  0.00  0.00     0.037 A 
ATOM     35  C25 <0> d           0.262   3.537   4.718  0.00  0.00     0.037 A 
BRANCH  33  36
ATOM     36  C28 <0> d          -2.997   5.257   4.771  0.00  0.00     0.229 C 
BRANCH  36  37
ATOM     37  O4  <0> d          -3.237   5.768   6.084  0.00  0.00    -0.394 OA
ATOM     38  H33 <0> d          -4.137   6.092   6.221  0.00  0.00     0.209 HD
ENDBRANCH  36  37
ENDBRANCH  33  36
ENDBRANCH  30  31
ENDBRANCH  14  30
TORSDOF 7
