REMARK  2 active torsions:
REMARK  status: ('A' for Active; 'I' for Inactive)
REMARK    1  A    between atoms: C5_6  and  C7_8 
REMARK    2  A    between atoms: C7_8  and  N2_9 
ROOT
ATOM      1  N2  <0> d           1.265  -3.976   2.567  0.00  0.00    -0.333 N 
ATOM      2  C8  <0> d           0.210  -4.508   3.255  0.00  0.00     0.099 A 
ATOM      3  C9  <0> d           0.078  -5.850   3.345  0.00  0.00     0.091 A 
ATOM      4  C10 <0> d           1.041  -6.679   2.721  0.00  0.00     0.248 A 
ATOM      5  O1  <0> d           0.943  -7.892   2.787  0.00  0.00    -0.268 OA
ATOM      6  N3  <0> d           2.067  -6.115   2.052  0.00  0.00    -0.300 N 
ATOM      7  H2  <0> d           2.730  -6.677   1.622  0.00  0.00     0.171 HD
ATOM      8  C11 <0> d           2.171  -4.776   1.974  0.00  0.00     0.180 A 
ATOM      9  S1  <0> d           3.477  -4.079   1.115  0.00  0.00    -0.040 SA
ENDROOT
BRANCH   1  10
ATOM     10  C7  <0> d           1.408  -2.521   2.470  0.00  0.00     0.137 C 
BRANCH  10  11
ATOM     11  C5  <0> d           0.666  -2.018   1.230  0.00  0.00     0.030 C 
ATOM     12  C4  <0> d           1.336  -2.575  -0.029  0.00  0.00     0.009 C 
ATOM     13  C3  <0> d           0.634  -2.005  -1.264  0.00  0.00     0.028 C 
ATOM     14  C2  <0> d           0.681  -0.476  -1.210  0.00  0.00     0.234 C 
ATOM     15  N1  <0> d           0.002  -0.004   0.002  0.00  0.00    -0.074 N 
ATOM     16  C1  <0> d          -0.018   1.465   0.010  0.00  0.00     0.269 C 
ATOM     17  C6  <0> d           0.712  -0.489   1.192  0.00  0.00     0.240 C 
ATOM     18  H18 <0> d          -0.945  -0.352   0.012  0.00  0.00     0.279 HD
ENDBRANCH  10  11
ENDBRANCH   1  10
TORSDOF 2
