REMARK  1 active torsions:
REMARK  status: ('A' for Active; 'I' for Inactive)
REMARK    1  A    between atoms: C7_7  and  N1_8 
ROOT
ATOM      1  C1  <0> d          -0.018   1.503   0.010  0.00  0.00     0.051 C 
ATOM      2  C2  <0> d           0.002  -0.004   0.002  0.00  0.00    -0.027 A 
ATOM      3  C3  <0> d           0.006  -0.687  -1.200  0.00  0.00    -0.018 A 
ATOM      4  C4  <0> d           0.023  -2.071  -1.211  0.00  0.00     0.102 A 
ATOM      5  C5  <0> d           0.035  -2.775  -0.008  0.00  0.00     0.073 A 
ATOM      6  C6  <0> d           0.034  -2.092   1.196  0.00  0.00     0.062 A 
ATOM      7  C7  <0> d           0.023  -0.703   1.202  0.00  0.00     0.034 A 
ATOM      8  N2  <0> d           0.041  -4.176  -0.032  0.00  0.00    -0.320 N 
ATOM      9  C8  <0> d           0.924  -4.821  -0.826  0.00  0.00     0.226 C 
ATOM     10  O1  <0> d           0.900  -6.031  -0.908  0.00  0.00    -0.273 OA
ATOM     11  C9  <0> d           1.940  -4.030  -1.609  0.00  0.00     0.135 C 
ATOM     12  C10 <0> d           1.266  -3.338  -2.792  0.00  0.00     0.133 C 
ATOM     13  O2  <0> d           0.033  -2.750  -2.389  0.00  0.00    -0.343 OA
ATOM     14  C11 <0> d           0.996  -4.367  -3.893  0.00  0.00     0.040 C 
ATOM     15  C12 <0> d          -0.901  -4.935   0.795  0.00  0.00     0.159 C 
ATOM     16  C13 <0> d          -0.010   0.076  -2.500  0.00  0.00     0.052 C 
ENDROOT
BRANCH   7  17
ATOM     17  N1  <0> d           0.028  -0.008   2.416  0.00  0.00    -0.399 N 
ATOM     18  H6  <0> d           0.016   0.962   2.420  0.00  0.00     0.156 HD
ATOM     19  H7  <0> d           0.042  -0.496   3.254  0.00  0.00     0.156 HD
ENDBRANCH   7  17
TORSDOF 1
