REMARK  6 active torsions:
REMARK  status: ('A' for Active; 'I' for Inactive)
REMARK    1  A    between atoms: C3_3  and  C7_11 
REMARK    2  A    between atoms: C7_11  and  C8_12 
REMARK       I    between atoms: C8_12  and  N3_14 
REMARK    3  A    between atoms: N3_14  and  C9_15 
REMARK    4  A    between atoms: C9_15  and  C10_16 
REMARK    5  A    between atoms: C10_16  and  C11_17 
REMARK    6  A    between atoms: C10_16  and  N4_23 
ROOT
ATOM      1  C9  <0> d          -4.787   0.778  -3.307  0.00  0.00     0.163 C 
ENDROOT
BRANCH   1   2
ATOM      2  N3  <0> d          -3.999   0.590  -2.086  0.00  0.00    -0.358 N 
ATOM      3  C8  <0> d          -2.865  -0.138  -2.122  0.00  0.00     0.222 C 
ATOM      4  O2  <0> d          -2.496  -0.636  -3.164  0.00  0.00    -0.273 OA
ATOM      5  H11 <0> d          -4.293   0.988  -1.253  0.00  0.00     0.162 HD
BRANCH   3   6
ATOM      6  C7  <0> d          -2.054  -0.331  -0.866  0.00  0.00     0.149 C 
BRANCH   6   7
ATOM      7  C3  <0> d          -0.844  -1.175  -1.175  0.00  0.00     0.043 A 
ATOM      8  C2  <0> d           0.353  -0.595  -1.464  0.00  0.00     0.044 A 
ATOM      9  C1  <0> d           0.480   0.907  -1.481  0.00  0.00     0.071 C 
ATOM     10  N2  <0> d           1.414  -1.358  -1.740  0.00  0.00    -0.240 NA
ATOM     11  C5  <0> d           1.338  -2.662  -1.729  0.00  0.00     0.103 A 
ATOM     12  N1  <0> d           0.182  -3.298  -1.450  0.00  0.00    -0.311 N 
ATOM     13  C6  <0> d           2.568  -3.474  -2.042  0.00  0.00     0.091 C 
ATOM     14  C4  <0> d          -0.928  -2.583  -1.169  0.00  0.00     0.255 A 
ATOM     15  H1  <0> d           0.149  -4.267  -1.453  0.00  0.00     0.170 HD
ATOM     16  O1  <0> d          -1.981  -3.143  -0.915  0.00  0.00    -0.268 OA
ENDBRANCH   6   7
ENDBRANCH   3   6
ENDBRANCH   1   2
BRANCH   1  17
ATOM     17  C10 <0> d          -6.015   1.635  -2.994  0.00  0.00     0.273 C 
BRANCH  17  18
ATOM     18  C11 <0> d          -6.759   1.931  -4.270  0.00  0.00    -0.024 A 
ATOM     19  C16 <0> d          -8.132   1.777  -4.322  0.00  0.00     0.009 A 
ATOM     20  C15 <0> d          -8.815   2.053  -5.492  0.00  0.00     0.001 A 
ATOM     21  C14 <0> d          -8.125   2.474  -6.612  0.00  0.00     0.000 A 
ATOM     22  C13 <0> d          -6.751   2.624  -6.562  0.00  0.00     0.001 A 
ATOM     23  C12 <0> d          -6.069   2.352  -5.391  0.00  0.00     0.009 A 
ENDBRANCH  17  18
BRANCH  17  24
ATOM     24  N4  <0> d          -5.587   2.895  -2.373  0.00  0.00     0.103 N 
ATOM     25  C23 <0> d          -4.735   3.669  -3.285  0.00  0.00     0.313 C 
ATOM     26  C20 <0> d          -4.343   4.973  -2.597  0.00  0.00    -0.017 A 
ATOM     27  C19 <0> d          -5.064   5.414  -1.529  0.00  0.00    -0.008 A 
ATOM     28  C21 <0> d          -3.269   5.768  -2.993  0.00  0.00     0.017 A 
ATOM     29  C18 <0> d          -6.255   4.747  -0.920  0.00  0.00     0.077 C 
ATOM     30  S1  <0> d          -4.260   6.921  -1.066  0.00  0.00    -0.106 SA
ATOM     31  C17 <0> d          -6.744   3.672  -1.906  0.00  0.00     0.279 C 
ATOM     32  C22 <0> d          -2.988   6.909  -2.322  0.00  0.00     0.051 A 
ENDBRANCH  17  24
ENDBRANCH   1  17
TORSDOF 6
