REMARK  8 active torsions:
REMARK  status: ('A' for Active; 'I' for Inactive)
REMARK    1  A    between atoms: C2_2  and  C3_3 
REMARK    2  A    between atoms: C2_2  and  N1_9 
REMARK    3  A    between atoms: C3_3  and  C4_4 
REMARK    4  A    between atoms: C4_4  and  C5_5 
REMARK    5  A    between atoms: C5_5  and  C6_6 
REMARK       I    between atoms: N1_9  and  C9_10 
REMARK    6  A    between atoms: C9_10  and  C10_12 
REMARK    7  A    between atoms: C13_15  and  N2_18 
REMARK    8  A    between atoms: C22_26  and  O3_31 
ROOT
ATOM      1  N2  <0> d          -7.347  -2.595  -1.104  0.00  0.00    -0.232 N 
ATOM      2  C16 <0> d          -8.132  -2.680  -2.198  0.00  0.00     0.263 A 
ATOM      3  O2  <0> d          -7.853  -2.337  -3.327  0.00  0.00    -0.270 OA
ATOM      4  C17 <0> d          -9.433  -3.291  -1.725  0.00  0.00     0.139 A 
ATOM      5  C18 <0> d         -10.589  -2.311  -1.952  0.00  0.00     0.149 A 
ATOM      6  C19 <0> d         -11.703  -2.730  -1.000  0.00  0.00    -0.040 A 
ATOM      7  C20 <0> d         -12.771  -2.967  -1.754  0.00  0.00    -0.003 A 
ATOM      8  C21 <0> d         -14.150  -3.343  -1.410  0.00  0.00     0.050 A 
ATOM      9  C22 <0> d         -15.011  -3.525  -2.450  0.00  0.00     0.069 A 
ATOM     10  C23 <0> d         -14.655  -3.373  -3.798  0.00  0.00     0.039 A 
ATOM     11  C24 <0> d         -13.415  -3.024  -4.226  0.00  0.00     0.033 A 
ATOM     12  C25 <0> d         -12.396  -2.797  -3.192  0.00  0.00     0.039 A 
ATOM     13  N3  <0> d         -11.140  -2.439  -3.304  0.00  0.00    -0.378 N 
ATOM     14  C27 <0> d         -11.505  -2.882   0.489  0.00  0.00     0.057 C 
ATOM     15  C28 <0> d         -10.281  -3.797   0.694  0.00  0.00     0.133 C 
ATOM     16  N4  <0> d          -9.243  -3.398  -0.261  0.00  0.00    -0.313 N 
ATOM     17  C29 <0> d          -7.978  -3.037  -0.008  0.00  0.00     0.333 A 
ATOM     18  O4  <0> d          -7.462  -3.100   1.091  0.00  0.00    -0.246 OA
ATOM     19  C30 <0> d          -9.692  -4.654  -2.371  0.00  0.00     0.052 C 
ATOM     20  H37 <0> d         -10.655  -2.288  -4.131  0.00  0.00     0.160 HD
ENDROOT
BRANCH   1  21
ATOM     21  C13 <0> d          -6.036  -2.112  -1.114  0.00  0.00     0.047 A 
ATOM     22  C12 <0> d          -5.348  -1.948   0.083  0.00  0.00     0.031 A 
ATOM     23  C11 <0> d          -4.056  -1.473   0.077  0.00  0.00     0.019 A 
ATOM     24  C10 <0> d          -3.436  -1.154  -1.134  0.00  0.00     0.032 A 
ATOM     25  C15 <0> d          -4.132  -1.314  -2.335  0.00  0.00     0.019 A 
ATOM     26  C14 <0> d          -5.422  -1.796  -2.322  0.00  0.00     0.031 A 
BRANCH  24  27
ATOM     27  C9  <0> d          -2.051  -0.643  -1.145  0.00  0.00     0.251 C 
ATOM     28  N1  <0> d          -1.381  -0.489   0.015  0.00  0.00    -0.353 N 
ATOM     29  H19 <0> d          -1.808  -0.713   0.856  0.00  0.00     0.163 HD
ATOM     30  O1  <0> d          -1.515  -0.361  -2.199  0.00  0.00    -0.268 OA
BRANCH  28  31
ATOM     31  C2  <0> d          -0.006   0.018   0.004  0.00  0.00     0.080 C 
ATOM     32  C1  <0> d          -0.027   1.548  -0.017  0.00  0.00     0.032 C 
BRANCH  31  33
ATOM     33  C3  <0> d           0.725  -0.464   1.258  0.00  0.00     0.025 C 
BRANCH  33  34
ATOM     34  C4  <0> d           0.855  -1.988   1.218  0.00  0.00     0.002 C 
BRANCH  34  35
ATOM     35  C5  <0> d           1.587  -2.470   2.473  0.00  0.00     0.004 C 
BRANCH  35  36
ATOM     36  C6  <0> d           1.717  -3.994   2.433  0.00  0.00    -0.023 C 
ATOM     37  C7  <0> d           2.614  -4.399   1.261  0.00  0.00     0.009 C 
ATOM     38  C8  <0> d           2.336  -4.488   3.742  0.00  0.00     0.009 C 
ENDBRANCH  35  36
ENDBRANCH  34  35
ENDBRANCH  33  34
ENDBRANCH  31  33
ENDBRANCH  28  31
ENDBRANCH  24  27
ENDBRANCH   1  21
BRANCH   9  39
ATOM     39  O3  <0> d         -16.293  -3.873  -2.163  0.00  0.00    -0.356 OA
ATOM     40  C26 <0> d         -17.178  -4.058  -3.270  0.00  0.00     0.210 C 
ENDBRANCH   9  39
TORSDOF 8
