REMARK  6 active torsions:
REMARK  status: ('A' for Active; 'I' for Inactive)
REMARK    1  A    between atoms: C6_6  and  C14_20 
REMARK    2  A    between atoms: C7_7  and  N1_8 
REMARK       I    between atoms: N1_8  and  C8_9 
REMARK    3  A    between atoms: C8_9  and  C9_11 
REMARK       I    between atoms: C9_11  and  N2_13 
REMARK    4  A    between atoms: N2_13  and  C10_14 
REMARK    5  A    between atoms: C10_14  and  C11_15 
REMARK    6  A    between atoms: C11_15  and  N3_16 
REMARK       I    between atoms: N3_16  and  C12_17 
ROOT
ATOM      1  N1  <0> d           0.235  -0.013   2.405  0.00  0.00    -0.318 N 
ATOM      2  C8  <0> d           0.420   1.322   2.404  0.00  0.00     0.314 C 
ATOM      3  O1  <0> d           0.402   1.936   1.357  0.00  0.00    -0.262 OA
ATOM      4  H7  <0> d           0.173  -0.494   3.245  0.00  0.00     0.169 HD
ENDROOT
BRANCH   2   5
ATOM      5  C9  <0> d           0.647   2.045   3.691  0.00  0.00     0.309 C 
ATOM      6  O2  <0> d           0.665   1.431   4.737  0.00  0.00    -0.262 OA
ATOM      7  N2  <0> d           0.832   3.380   3.690  0.00  0.00    -0.351 N 
ATOM      8  H8  <0> d           0.817   3.871   2.854  0.00  0.00     0.162 HD
BRANCH   7   9
ATOM      9  C10 <0> d           1.054   4.090   4.952  0.00  0.00     0.143 C 
BRANCH   9  10
ATOM     10  C11 <0> d           1.233   5.583   4.673  0.00  0.00     0.142 C 
BRANCH  10  11
ATOM     11  N3  <0> d           1.456   6.293   5.936  0.00  0.00    -0.360 N 
ATOM     12  C12 <0> d           1.640   7.628   5.935  0.00  0.00     0.213 C 
ATOM     13  O3  <0> d           1.623   8.242   4.889  0.00  0.00    -0.274 OA
ATOM     14  C13 <0> d           1.869   8.357   7.233  0.00  0.00     0.117 C 
ATOM     15  H13 <0> d           1.470   5.801   6.772  0.00  0.00     0.162 HD
ENDBRANCH  10  11
ENDBRANCH   9  10
ENDBRANCH   7   9
ENDBRANCH   2   5
BRANCH   1  16
ATOM     16  C7  <0> d           0.133  -0.705   1.195  0.00  0.00     0.047 A 
ATOM     17  C2  <0> d          -0.962  -0.498   0.365  0.00  0.00    -0.035 A 
ATOM     18  C1  <0> d          -2.041   0.473   0.768  0.00  0.00     0.050 C 
ATOM     19  C3  <0> d          -1.057  -1.180  -0.832  0.00  0.00     0.009 A 
ATOM     20  C4  <0> d          -0.067  -2.071  -1.203  0.00  0.00     0.001 A 
ATOM     21  C5  <0> d           1.022  -2.284  -0.376  0.00  0.00     0.010 A 
ATOM     22  C6  <0> d           1.123  -1.606   0.823  0.00  0.00    -0.027 A 
BRANCH  22  23
ATOM     23  C14 <0> d           2.308  -1.840   1.723  0.00  0.00     0.013 C 
ATOM     24  C15 <0> d           2.360  -3.314   2.127  0.00  0.00     0.015 C 
ATOM     25  C16 <0> d           3.594  -1.469   0.980  0.00  0.00     0.015 C 
ENDBRANCH  22  23
ENDBRANCH   1  16
TORSDOF 6
