REMARK  5 active torsions:
REMARK  status: ('A' for Active; 'I' for Inactive)
REMARK    1  A    between atoms: C2_2  and  C5_9 
REMARK    2  A    between atoms: C9_13  and  N3_15 
REMARK       I    between atoms: N3_15  and  C11_16 
REMARK    3  A    between atoms: C11_16  and  C12_18 
REMARK    4  A    between atoms: C15_21  and  C18_24 
REMARK    5  A    between atoms: C18_24  and  N4_25 
ROOT
ATOM      1  C5  <0> d           0.417  -1.248  -1.347  0.00  0.00    -0.019 A 
ATOM      2  C6  <0> d           1.788  -1.307  -1.170  0.00  0.00     0.010 A 
ATOM      3  C7  <0> d           2.637  -1.038  -2.227  0.00  0.00     0.003 A 
ATOM      4  C8  <0> d           2.119  -0.711  -3.465  0.00  0.00     0.029 A 
ATOM      5  C9  <0> d           0.744  -0.651  -3.647  0.00  0.00     0.035 A 
ATOM      6  C10 <0> d          -0.107  -0.926  -2.584  0.00  0.00     0.039 A 
ENDROOT
BRANCH   5   7
ATOM      7  N3  <0> d           0.216  -0.320  -4.899  0.00  0.00    -0.323 N 
ATOM      8  C11 <0> d           0.860  -0.695  -6.022  0.00  0.00     0.256 C 
ATOM      9  O3  <0> d           1.845  -1.403  -5.950  0.00  0.00    -0.267 OA
ATOM     10  H10 <0> d          -0.613   0.180  -4.959  0.00  0.00     0.169 HD
BRANCH   8  11
ATOM     11  C12 <0> d           0.367  -0.247  -7.341  0.00  0.00     0.032 A 
ATOM     12  C17 <0> d           1.031  -0.634  -8.507  0.00  0.00     0.017 A 
ATOM     13  C16 <0> d           0.562  -0.216  -9.735  0.00  0.00     0.010 A 
ATOM     14  C15 <0> d          -0.557   0.594  -9.813  0.00  0.00    -0.038 A 
ATOM     15  C14 <0> d          -1.217   0.986  -8.662  0.00  0.00     0.010 A 
ATOM     16  C13 <0> d          -0.762   0.571  -7.427  0.00  0.00     0.017 A 
BRANCH  14  17
ATOM     17  C18 <0> d          -1.060   1.052 -11.158  0.00  0.00     0.190 C 
BRANCH  17  18
ATOM     18  N4  <0> d          -0.417   2.319 -11.514  0.00  0.00    -0.258 N 
ATOM     19  N6  <0> d          -0.403   3.499 -10.752  0.00  0.00    -0.164 NA
ATOM     20  C20 <0> d           0.278   4.381 -11.434  0.00  0.00     0.256 A 
ATOM     21  N5  <0> d           0.682   3.827 -12.576  0.00  0.00    -0.234 NA
ATOM     22  C19 <0> d           0.270   2.587 -12.638  0.00  0.00     0.230 A 
ENDBRANCH  17  18
ENDBRANCH  14  17
ENDBRANCH   8  11
ENDBRANCH   5   7
BRANCH   1  23
ATOM     23  C2  <0> d          -0.505  -1.542  -0.192  0.00  0.00     0.139 A 
ATOM     24  C1  <0> d          -1.406  -0.339   0.094  0.00  0.00     0.054 C 
ATOM     25  N2  <0> d           0.268  -1.908   1.007  0.00  0.00    -0.321 N 
ATOM     26  C4  <0> d          -0.095  -3.162   1.331  0.00  0.00     0.324 A 
ATOM     27  H5  <0> d           0.913  -1.353   1.473  0.00  0.00     0.165 HD
ATOM     28  N1  <0> d          -1.010  -3.662   0.491  0.00  0.00    -0.277 N 
ATOM     29  O2  <0> d           0.357  -3.773   2.279  0.00  0.00    -0.247 OA
ATOM     30  C3  <0> d          -1.337  -2.777  -0.471  0.00  0.00     0.258 A 
ATOM     31  H4  <0> d          -1.390  -4.551   0.567  0.00  0.00     0.173 HD
ATOM     32  O1  <0> d          -2.132  -2.937  -1.372  0.00  0.00    -0.270 OA
ENDBRANCH   1  23
TORSDOF 5
