REMARK  4 active torsions:
REMARK  status: ('A' for Active; 'I' for Inactive)
REMARK    1  A    between atoms: C7_9  and  C16_21 
REMARK    2  A    between atoms: C9_11  and  C10_13 
REMARK    3  A    between atoms: C15_18  and  O1_19 
REMARK    4  A    between atoms: C21_26  and  O2_27 
ROOT
ATOM      1  C1  <0> d          -0.018   1.465   0.010  0.00  0.00     0.269 C 
ATOM      2  N1  <0> d           0.002  -0.004   0.002  0.00  0.00    -0.075 N 
ATOM      3  C2  <0> d          -1.375  -0.510   0.003  0.00  0.00     0.238 C 
ATOM      4  C3  <0> d          -1.362  -2.038  -0.085  0.00  0.00     0.094 C 
ATOM      5  C4  <0> d          -0.609  -2.606   1.123  0.00  0.00     0.253 C 
ATOM      6  C5  <0> d           0.805  -2.015   1.149  0.00  0.00     0.094 C 
ATOM      7  C6  <0> d           0.712  -0.489   1.192  0.00  0.00     0.238 C 
ATOM      8  N2  <0> d          -0.522  -4.066   0.995  0.00  0.00     0.123 N 
ATOM      9  C7  <0> d          -1.855  -4.671   1.158  0.00  0.00     0.265 C 
ATOM     10  C8  <0> d          -2.297  -4.470   2.611  0.00  0.00     0.100 C 
ATOM     11  C9  <0> d          -2.059  -3.041   3.014  0.00  0.00     0.047 C 
ATOM     12  N3  <0> d          -1.311  -2.242   2.349  0.00  0.00    -0.251 NA
ATOM     13  H13 <0> d          -0.111  -4.328   0.112  0.00  0.00     0.320 HD
ATOM     14  H25 <0> d           0.477  -0.328  -0.827  0.00  0.00     0.279 HD
ENDROOT
BRANCH  11  15
ATOM     15  C10 <0> d          -2.718  -2.536   4.231  0.00  0.00     0.023 A 
ATOM     16  C15 <0> d          -2.522  -1.210   4.641  0.00  0.00     0.078 A 
ATOM     17  C14 <0> d          -3.151  -0.744   5.784  0.00  0.00     0.039 A 
ATOM     18  C13 <0> d          -3.958  -1.586   6.524  0.00  0.00     0.026 A 
ATOM     19  C12 <0> d          -4.151  -2.900   6.126  0.00  0.00     0.035 A 
ATOM     20  C11 <0> d          -3.537  -3.379   4.987  0.00  0.00     0.040 A 
ATOM     21 Cl1  <0> d          -5.169  -3.947   7.065  0.00  0.00    -0.084 Cl
BRANCH  16  22
ATOM     22  O1  <0> d          -1.724  -0.385   3.917  0.00  0.00    -0.360 OA
ATOM     23  H19 <0> d          -2.189   0.106   3.226  0.00  0.00     0.217 HD
ENDBRANCH  16  22
ENDBRANCH  11  15
BRANCH   9  24
ATOM     24  C16 <0> d          -1.787  -6.144   0.846  0.00  0.00     0.008 A 
ATOM     25  C21 <0> d          -2.924  -6.817   0.423  0.00  0.00     0.074 A 
ATOM     26  C20 <0> d          -2.856  -8.172   0.131  0.00  0.00     0.037 A 
ATOM     27  C19 <0> d          -1.661  -8.849   0.271  0.00  0.00     0.003 A 
ATOM     28  C18 <0> d          -0.530  -8.177   0.698  0.00  0.00     0.001 A 
ATOM     29  C17 <0> d          -0.593  -6.826   0.985  0.00  0.00     0.012 A 
BRANCH  25  30
ATOM     30  O2  <0> d          -4.100  -6.150   0.291  0.00  0.00    -0.360 OA
ATOM     31  H24 <0> d          -4.240  -5.769  -0.586  0.00  0.00     0.217 HD
ENDBRANCH  25  30
ENDBRANCH   9  24
TORSDOF 4
