REMARK  5 active torsions:
REMARK  status: ('A' for Active; 'I' for Inactive)
REMARK    1  A    between atoms: N2_6  and  C5_7 
REMARK    2  A    between atoms: C8_10  and  C11_14 
REMARK    3  A    between atoms: C11_14  and  N3_15 
REMARK       I    between atoms: N3_15  and  C12_16 
REMARK    4  A    between atoms: C12_16  and  C13_18 
REMARK       I    between atoms: C13_18  and  N4_20 
REMARK    5  A    between atoms: N4_20  and  C14_21 
ROOT
ATOM      1  N3  <0> d           2.205   1.301   8.581  0.00  0.00    -0.349 N 
ATOM      2  C12 <0> d           1.478   2.407   8.834  0.00  0.00     0.309 C 
ATOM      3  O1  <0> d           0.292   2.312   9.072  0.00  0.00    -0.262 OA
ATOM      4  H11 <0> d           3.153   1.377   8.391  0.00  0.00     0.163 HD
ENDROOT
BRANCH   1   5
ATOM      5  C11 <0> d           1.563  -0.016   8.592  0.00  0.00     0.161 C 
BRANCH   5   6
ATOM      6  C8  <0> d           2.588  -1.077   8.281  0.00  0.00    -0.037 A 
ATOM      7  C7  <0> d           3.299  -1.671   9.308  0.00  0.00     0.011 A 
ATOM      8  C6  <0> d           4.239  -2.644   9.028  0.00  0.00     0.034 A 
ATOM      9  C5  <0> d           4.470  -3.026   7.714  0.00  0.00     0.079 A 
ATOM     10  C10 <0> d           3.758  -2.424   6.683  0.00  0.00     0.144 A 
ATOM     11  C9  <0> d           2.814  -1.454   6.971  0.00  0.00     0.053 A 
ATOM     12  F1  <0> d           3.984  -2.788   5.402  0.00  0.00    -0.204 F 
BRANCH   9  13
ATOM     13  N2  <0> d           5.423  -4.014   7.426  0.00  0.00    -0.306 N 
ATOM     14  C2  <0> d           6.580  -3.843   6.735  0.00  0.00     0.106 A 
ATOM     15  C1  <0> d           7.064  -2.547   6.138  0.00  0.00     0.091 C 
ATOM     16  N1  <0> d           7.204  -4.988   6.679  0.00  0.00    -0.246 NA
ATOM     17  C3  <0> d           6.480  -5.920   7.316  0.00  0.00     0.136 A 
ATOM     18  C4  <0> d           5.363  -5.335   7.787  0.00  0.00     0.118 A 
ENDBRANCH   9  13
ENDBRANCH   5   6
ENDBRANCH   1   5
BRANCH   2  19
ATOM     19  C13 <0> d           2.132   3.749   8.823  0.00  0.00     0.314 C 
ATOM     20  O2  <0> d           3.319   3.844   8.585  0.00  0.00    -0.262 OA
ATOM     21  N4  <0> d           1.405   4.856   9.076  0.00  0.00    -0.314 N 
ATOM     22  H12 <0> d           0.445   4.788   9.193  0.00  0.00     0.169 HD
BRANCH  21  23
ATOM     23  C14 <0> d           2.036   6.101   9.170  0.00  0.00     0.113 A 
ATOM     24  C19 <0> d           2.179   6.897   8.039  0.00  0.00     0.146 A 
ATOM     25  C18 <0> d           2.797   8.131   8.137  0.00  0.00     0.045 A 
ATOM     26  F2  <0> d           1.709   6.469   6.847  0.00  0.00    -0.204 F 
ATOM     27  C17 <0> d           3.284   8.567   9.356  0.00  0.00     0.006 A 
ATOM     28  C16 <0> d           3.149   7.776  10.482  0.00  0.00     0.045 A 
ATOM     29  C15 <0> d           2.526   6.544  10.393  0.00  0.00     0.146 A 
ATOM     30  F3  <0> d           2.394   5.772  11.494  0.00  0.00    -0.204 F 
ENDBRANCH  21  23
ENDBRANCH   2  19
TORSDOF 5
