REMARK  4 active torsions:
REMARK  status: ('A' for Active; 'I' for Inactive)
REMARK    1  A    between atoms: C4_5  and  N2_7 
REMARK    2  A    between atoms: N2_7  and  S1_8 
REMARK    3  A    between atoms: S1_8  and  C6_11 
REMARK    4  A    between atoms: C9_14  and  N3_18 
ROOT
ATOM      1  S1  <0> d          -0.133  -3.232   3.951  0.00  0.00     0.261 S 
ATOM      2  O1  <0> d           0.700  -4.355   4.205  0.00  0.00    -0.200 OA
ATOM      3  O2  <0> d          -0.279  -2.167   4.881  0.00  0.00    -0.200 OA
ENDROOT
BRANCH   1   4
ATOM      4  N2  <0> d           0.402  -2.556   2.538  0.00  0.00    -0.309 N 
ATOM      5  H11 <0> d           1.164  -2.939   2.075  0.00  0.00     0.172 HD
BRANCH   4   6
ATOM      6  C4  <0> d          -0.274  -1.379   1.986  0.00  0.00     0.120 C 
ATOM      7  C3  <0> d          -1.309  -1.797   0.908  0.00  0.00     0.055 C 
ATOM      8  C2  <0> d          -1.383  -0.521   0.034  0.00  0.00     0.236 C 
ATOM      9  N1  <0> d           0.002  -0.004   0.002  0.00  0.00    -0.073 N 
ATOM     10  C1  <0> d          -0.018   1.465   0.010  0.00  0.00     0.269 C 
ATOM     11  C5  <0> d           0.714  -0.497   1.195  0.00  0.00     0.260 C 
ATOM     12  H16 <0> d           0.466  -0.334  -0.831  0.00  0.00     0.279 HD
ENDBRANCH   4   6
ENDBRANCH   1   4
BRANCH   1  13
ATOM     13  C6  <0> d          -1.750  -3.861   3.648  0.00  0.00     0.114 A 
ATOM     14  C11 <0> d          -1.913  -5.162   3.204  0.00  0.00     0.037 A 
ATOM     15  C10 <0> d          -3.180  -5.660   2.971  0.00  0.00     0.049 A 
ATOM     16 Br1  <0> d          -0.399  -6.260   2.924  0.00  0.00    -0.049 Br
ATOM     17  C9  <0> d          -4.291  -4.851   3.173  0.00  0.00     0.028 A 
ATOM     18  C8  <0> d          -4.125  -3.545   3.613  0.00  0.00     0.049 A 
ATOM     19  C7  <0> d          -2.855  -3.053   3.850  0.00  0.00     0.037 A 
ATOM     20 Br2  <0> d          -2.627  -1.274   4.449  0.00  0.00    -0.049 Br
BRANCH  17  21
ATOM     21  N3  <0> d          -5.573  -5.351   2.933  0.00  0.00    -0.399 N 
ATOM     22  H14 <0> d          -6.349  -4.785   3.075  0.00  0.00     0.156 HD
ATOM     23  H15 <0> d          -5.689  -6.264   2.626  0.00  0.00     0.156 HD
ENDBRANCH  17  21
ENDBRANCH   1  13
TORSDOF 4
