REMARK  6 active torsions:
REMARK  status: ('A' for Active; 'I' for Inactive)
REMARK    1  A    between atoms: O1_2  and  C2_3 
REMARK    2  A    between atoms: C9_11  and  C11_15 
REMARK       I    between atoms: C11_15  and  N2_17 
REMARK    3  A    between atoms: C16_22  and  C17_23 
REMARK    4  A    between atoms: C16_22  and  C20_26 
REMARK    5  A    between atoms: C17_23  and  C18_24 
REMARK    6  A    between atoms: C20_26  and  C21_27 
ROOT
ATOM      1  C2  <0> d          -1.270  -0.950   2.110  0.00  0.00     0.069 A 
ATOM      2  C3  <0> d          -2.257  -0.133   1.564  0.00  0.00     0.039 A 
ATOM      3  C4  <0> d          -3.337  -0.678   0.908  0.00  0.00     0.033 A 
ATOM      4  C5  <0> d          -3.453  -2.060   0.784  0.00  0.00     0.046 A 
ATOM      5  C6  <0> d          -2.458  -2.885   1.334  0.00  0.00     0.044 A 
ATOM      6  C7  <0> d          -1.364  -2.324   1.992  0.00  0.00     0.054 A 
ATOM      7  C8  <0> d          -2.594  -4.347   1.194  0.00  0.00     0.201 A 
ATOM      8  O2  <0> d          -1.761  -5.110   1.652  0.00  0.00    -0.286 OA
ATOM      9  C9  <0> d          -3.779  -4.847   0.479  0.00  0.00     0.098 A 
ATOM     10  H1  <0> d          -5.205  -2.024  -0.242  0.00  0.00     0.165 HD
ATOM     11  C10 <0> d          -4.690  -3.937  -0.018  0.00  0.00     0.109 A 
ATOM     12  N1  <0> d          -4.532  -2.616   0.129  0.00  0.00    -0.364 N 
ENDROOT
BRANCH   9  13
ATOM     13  C11 <0> d          -3.989  -6.291   0.297  0.00  0.00     0.259 C 
ATOM     14  O3  <0> d          -5.107  -6.760   0.391  0.00  0.00    -0.267 OA
ATOM     15  N2  <0> d          -2.942  -7.095   0.025  0.00  0.00    -0.338 N 
ATOM     16  C16 <0> d          -3.149  -8.518  -0.278  0.00  0.00     0.042 C 
ATOM     17  C12 <0> d          -1.571  -6.567   0.031  0.00  0.00     0.127 C 
ATOM     18  C15 <0> d          -2.465  -8.838  -1.615  0.00  0.00     0.032 C 
ATOM     19  C14 <0> d          -0.995  -8.419  -1.543  0.00  0.00     0.004 C 
ATOM     20  C13 <0> d          -0.904  -6.910  -1.305  0.00  0.00     0.020 C 
BRANCH  16  21
ATOM     21  C17 <0> d          -2.536  -9.373   0.833  0.00  0.00     0.057 C 
BRANCH  21  22
ATOM     22  C18 <0> d          -3.240  -9.085   2.135  0.00  0.00    -0.034 C 
ATOM     23  C19 <0> d          -3.774 -10.065   2.821  0.00  0.00     0.007 C 
ENDBRANCH  21  22
ENDBRANCH  16  21
BRANCH  16  24
ATOM     24  C20 <0> d          -4.648  -8.807  -0.384  0.00  0.00     0.057 C 
BRANCH  24  25
ATOM     25  C21 <0> d          -5.227  -8.036  -1.542  0.00  0.00    -0.034 C 
ATOM     26  C22 <0> d          -5.899  -8.664  -2.476  0.00  0.00     0.007 C 
ENDBRANCH  24  25
ENDBRANCH  16  24
ENDBRANCH   9  13
BRANCH   1  27
ATOM     27  O1  <0> d          -0.210  -0.395   2.754  0.00  0.00    -0.356 OA
ATOM     28  C1  <0> d          -0.176   1.031   2.839  0.00  0.00     0.210 C 
ENDBRANCH   1  27
TORSDOF 6
