REMARK  7 active torsions:
REMARK  status: ('A' for Active; 'I' for Inactive)
REMARK    1  A    between atoms: C2_2  and  C3_4 
REMARK    2  A    between atoms: C3_4  and  C4_5 
REMARK    3  A    between atoms: C5_6  and  N2_20 
REMARK    4  A    between atoms: C8_9  and  N1_14 
REMARK    5  A    between atoms: C12_17  and  C13_18 
REMARK    6  A    between atoms: C12_17  and  N3_24 
REMARK    7  A    between atoms: C13_18  and  O5_19 
ROOT
ATOM      1  C4  <0> d          -0.791  -0.730   1.056  0.00  0.00     0.077 C 
ATOM      2  C5  <0> d           0.215  -1.734   0.482  0.00  0.00     0.145 C 
ATOM      3  C6  <0> d           1.629  -1.247   0.835  0.00  0.00     0.277 C 
ATOM      4  C7  <0> d           0.824  -0.312   2.923  0.00  0.00     0.281 C 
ATOM      5  C8  <0> d          -0.613  -0.691   2.581  0.00  0.00     0.191 C 
ATOM      6  C9  <0> d          -0.931  -2.071   3.112  0.00  0.00     0.185 C 
ATOM      7  O2  <0> d          -1.523  -2.212   4.161  0.00  0.00    -0.290 OA
ATOM      8  C10 <0> d          -0.504  -3.234   2.328  0.00  0.00     0.052 C 
ATOM      9  C11 <0> d           0.014  -3.085   1.115  0.00  0.00     0.016 C 
ATOM     10  N3  <0> d           1.762  -1.274   2.309  0.00  0.00    -0.063 N 
ATOM     11  H18 <0> d           1.537  -2.218   2.646  0.00  0.00     0.280 HD
ENDROOT
BRANCH  10  12
ATOM     12  C12 <0> d           3.148  -0.944   2.697  0.00  0.00     0.261 C 
BRANCH  12  13
ATOM     13  C13 <0> d           3.238  -0.884   4.223  0.00  0.00     0.192 C 
BRANCH  13  14
ATOM     14  O5  <0> d           2.818  -2.134   4.774  0.00  0.00    -0.399 OA
ATOM     15  H17 <0> d           2.849  -2.167   5.740  0.00  0.00     0.209 HD
ENDBRANCH  13  14
ENDBRANCH  12  13
ENDBRANCH  10  12
BRANCH   2  16
ATOM     16  N2  <0> d           0.062  -1.821  -0.973  0.00  0.00    -0.139 N 
ATOM     17  O6  <0> d           1.024  -2.086  -1.671  0.00  0.00    -0.536 OA
ATOM     18  O7  <0> d          -1.026  -1.626  -1.484  0.00  0.00    -0.536 OA
ENDBRANCH   2  16
BRANCH   5  19
ATOM     19  N1  <0> d          -1.532   0.293   3.158  0.00  0.00    -0.135 N 
ATOM     20  O3  <0> d          -2.060   0.076   4.234  0.00  0.00    -0.535 OA
ATOM     21  O4  <0> d          -1.769   1.328   2.561  0.00  0.00    -0.535 OA
ENDBRANCH   5  19
BRANCH   1  22
ATOM     22  C3  <0> d          -0.525   0.658   0.470  0.00  0.00     0.088 C 
BRANCH  22  23
ATOM     23  C2  <0> d           0.867   0.703  -0.105  0.00  0.00     0.123 C 
ATOM     24  C1  <0> d           1.117   0.227  -1.513  0.00  0.00     0.091 C 
ATOM     25  O1  <0> d           1.782   1.121   0.563  0.00  0.00    -0.298 OA
ENDBRANCH  22  23
ENDBRANCH   1  22
TORSDOF 7
