REMARK  4 active torsions:
REMARK  status: ('A' for Active; 'I' for Inactive)
REMARK    1  A    between atoms: O1_2  and  C2_3 
REMARK    2  A    between atoms: C9_12  and  C15_23 
REMARK    3  A    between atoms: C15_23  and  C16_24 
REMARK    4  A    between atoms: C16_24  and  O6_26 
ROOT
ATOM      1  C2  <0> d          -1.061   2.392   0.052  0.00  0.00     0.102 A 
ATOM      2  C3  <0> d          -2.309   1.792   0.063  0.00  0.00     0.040 A 
ATOM      3  C4  <0> d          -2.412   0.413   0.047  0.00  0.00     0.003 A 
ATOM      4  C5  <0> d          -1.270  -0.363   0.017  0.00  0.00     0.011 A 
ATOM      5  C6  <0> d          -0.018   0.231   0.001  0.00  0.00    -0.011 A 
ATOM      6  C7  <0> d           0.094   1.607   0.022  0.00  0.00     0.119 A 
ATOM      7  O2  <0> d           1.298   2.243   0.022  0.00  0.00    -0.275 OA
ATOM      8  C8  <0> d           2.393   1.484  -0.189  0.00  0.00     0.275 C 
ATOM      9  O3  <0> d           3.317   1.876  -0.861  0.00  0.00    -0.264 OA
ATOM     10  C9  <0> d           2.406   0.119   0.457  0.00  0.00     0.078 C 
ATOM     11  C10 <0> d           1.202  -0.664  -0.046  0.00  0.00     0.084 C 
ATOM     12  C11 <0> d           1.374  -1.161  -1.442  0.00  0.00     0.031 A 
ATOM     13  C12 <0> d           2.476  -1.215  -2.215  0.00  0.00     0.087 A 
ATOM     14  N1  <0> d           2.311  -1.729  -3.479  0.00  0.00    -0.311 N 
ATOM     15  H2  <0> d           3.069  -1.786  -4.081  0.00  0.00     0.170 HD
ATOM     16  C13 <0> d           1.097  -2.154  -3.885  0.00  0.00     0.289 A 
ATOM     17  O4  <0> d           0.776  -2.635  -4.958  0.00  0.00    -0.260 OA
ATOM     18  S1  <0> d           0.111  -1.843  -2.493  0.00  0.00    -0.030 SA
ATOM     19  S2  <0> d           4.043  -0.644  -1.588  0.00  0.00    -0.110 SA
ATOM     20  C14 <0> d           3.724  -0.595   0.202  0.00  0.00     0.102 C 
ENDROOT
BRANCH  10  21
ATOM     21  C15 <0> d           2.251   0.318   1.966  0.00  0.00     0.132 C 
BRANCH  21  22
ATOM     22  C16 <0> d           2.192  -1.026   2.646  0.00  0.00     0.259 C 
ATOM     23  O5  <0> d           2.370  -2.035   2.006  0.00  0.00    -0.265 OA
BRANCH  22  24
ATOM     24  O6  <0> d           1.942  -1.101   3.963  0.00  0.00    -0.326 OA
ATOM     25  C17 <0> d           1.899  -2.428   4.551  0.00  0.00     0.213 C 
ENDBRANCH  22  24
ENDBRANCH  21  22
ENDBRANCH  10  21
BRANCH   1  26
ATOM     26  O1  <0> d          -0.961   3.747   0.068  0.00  0.00    -0.353 OA
ATOM     27  C1  <0> d          -2.182   4.488   0.097  0.00  0.00     0.210 C 
ENDBRANCH   1  26
TORSDOF 4
