REMARK  4 active torsions:
REMARK  status: ('A' for Active; 'I' for Inactive)
REMARK    1  A    between atoms: C2_2  and  C3_3 
REMARK       I    between atoms: C3_3  and  N1_5 
REMARK    2  A    between atoms: C5_7  and  C12_15 
REMARK       I    between atoms: C12_15  and  N3_17 
REMARK    3  A    between atoms: N3_17  and  C13_18 
REMARK    4  A    between atoms: C13_18  and  C14_19 
ROOT
ATOM      1  C3  <0> d           0.662  -0.526  -0.928  0.00  0.00     0.219 C 
ATOM      2  O1  <0> d           1.101   0.344  -1.650  0.00  0.00    -0.273 OA
ATOM      3  N1  <0> d           0.819  -1.823  -1.262  0.00  0.00    -0.351 N 
ATOM      4  C4  <0> d           0.351  -3.016  -0.518  0.00  0.00     0.140 C 
ATOM      5  C5  <0> d          -0.137  -3.992  -1.612  0.00  0.00     0.106 C 
ATOM      6  C6  <0> d           0.621  -3.568  -2.882  0.00  0.00    -0.007 C 
ATOM      7  C7  <0> d           1.493  -2.377  -2.461  0.00  0.00     0.136 C 
ATOM      8  C8  <0> d          -0.363  -3.138  -3.966  0.00  0.00     0.039 C 
ATOM      9  C9  <0> d           0.411  -2.776  -5.237  0.00  0.00     0.233 C 
ATOM     10  N2  <0> d           1.188  -3.938  -5.686  0.00  0.00    -0.075 N 
ATOM     11  C10 <0> d           2.194  -4.288  -4.677  0.00  0.00     0.233 C 
ATOM     12  C11 <0> d           1.496  -4.714  -3.382  0.00  0.00     0.039 C 
ATOM     13  H15 <0> d           0.567  -4.721  -5.826  0.00  0.00     0.277 HD
ATOM     14  H30 <0> d           1.648  -3.717  -6.556  0.00  0.00     0.277 HD
ENDROOT
BRANCH   5  15
ATOM     15  C12 <0> d          -1.624  -3.852  -1.815  0.00  0.00     0.224 C 
ATOM     16  O2  <0> d          -2.165  -2.784  -1.621  0.00  0.00    -0.273 OA
ATOM     17  N3  <0> d          -2.353  -4.914  -2.211  0.00  0.00    -0.355 N 
ATOM     18  H20 <0> d          -1.920  -5.769  -2.366  0.00  0.00     0.162 HD
BRANCH  17  19
ATOM     19  C13 <0> d          -3.798  -4.779  -2.408  0.00  0.00     0.181 C 
BRANCH  19  20
ATOM     20  C14 <0> d          -4.371  -6.101  -2.848  0.00  0.00     0.044 A 
ATOM     21  N5  <0> d          -4.747  -7.095  -2.039  0.00  0.00    -0.343 N 
ATOM     22  C20 <0> d          -5.206  -8.101  -2.771  0.00  0.00     0.112 A 
ATOM     23  H31 <0> d          -4.696  -7.081  -1.071  0.00  0.00     0.167 HD
ATOM     24  N4  <0> d          -5.112  -7.743  -4.091  0.00  0.00    -0.317 N 
ATOM     25  C19 <0> d          -5.721  -9.367  -2.426  0.00  0.00     0.055 A 
ATOM     26  C15 <0> d          -4.585  -6.481  -4.127  0.00  0.00     0.124 A 
ATOM     27  C16 <0> d          -5.514  -8.605  -5.070  0.00  0.00     0.098 A 
ATOM     28  C17 <0> d          -6.009  -9.820  -4.756  0.00  0.00     0.024 A 
ATOM     29  C18 <0> d          -6.118 -10.215  -3.412  0.00  0.00    -0.057 A 
ATOM     30  C21 <0> d          -6.672 -11.573  -3.065  0.00  0.00     0.048 C 
ENDBRANCH  19  20
ENDBRANCH  17  19
ENDBRANCH   5  15
BRANCH   1  31
ATOM     31  C2  <0> d          -0.059  -0.158   0.343  0.00  0.00     0.098 C 
ATOM     32  C1  <0> d          -0.098   1.365   0.484  0.00  0.00     0.014 C 
ENDBRANCH   1  31
TORSDOF 4
