REMARK  4 active torsions:
REMARK  status: ('A' for Active; 'I' for Inactive)
REMARK    1  A    between atoms: C3_3  and  C17_22 
REMARK    2  A    between atoms: C4_4  and  N1_13 
REMARK    3  A    between atoms: C5_6  and  C6_7 
REMARK       I    between atoms: N1_13  and  C12_14 
REMARK    4  A    between atoms: C12_14  and  C13_16 
REMARK       I    between atoms: C17_22  and  N2_24 
ROOT
ATOM      1  C1  <0> d          -3.973   1.107   2.184  0.00  0.00     0.050 C 
ATOM      2  C2  <0> d          -3.135   1.396   3.403  0.00  0.00    -0.025 A 
ATOM      3  C3  <0> d          -1.749   1.238   3.380  0.00  0.00     0.073 A 
ATOM      4  C4  <0> d          -1.046   1.531   4.547  0.00  0.00     0.094 A 
ATOM      5  S1  <0> d          -2.299   2.008   5.645  0.00  0.00    -0.070 SA
ATOM      6  C5  <0> d          -3.704   1.815   4.566  0.00  0.00     0.024 A 
ENDROOT
BRANCH   4   7
ATOM      7  N1  <0> d           0.317   1.459   4.773  0.00  0.00    -0.314 N 
ATOM      8  C12 <0> d           0.819   1.787   5.980  0.00  0.00     0.281 C 
ATOM      9  O1  <0> d           0.072   2.146   6.872  0.00  0.00    -0.265 OA
ATOM     10  H9  <0> d           0.912   1.173   4.062  0.00  0.00     0.170 HD
BRANCH   8  11
ATOM     11  C13 <0> d           2.260   1.711   6.219  0.00  0.00     0.159 C 
ATOM     12  O3  <0> d           2.749   2.046   7.446  0.00  0.00    -0.342 OA
ATOM     13  C16 <0> d           4.081   1.610   7.744  0.00  0.00     0.202 C 
ATOM     14  C15 <0> d           4.963   1.904   6.522  0.00  0.00     0.201 C 
ATOM     15  O2  <0> d           4.404   1.218   5.395  0.00  0.00    -0.358 OA
ATOM     16  C14 <0> d           3.067   1.308   5.228  0.00  0.00     0.177 C 
ENDBRANCH   8  11
ENDBRANCH   4   7
BRANCH   3  17
ATOM     17  C17 <0> d          -1.057   0.784   2.170  0.00  0.00     0.257 C 
ATOM     18  O4  <0> d          -0.874  -0.405   1.982  0.00  0.00    -0.267 OA
ATOM     19  N2  <0> d          -0.622   1.684   1.265  0.00  0.00    -0.344 N 
ATOM     20  C21 <0> d          -0.832   3.126   1.469  0.00  0.00     0.152 C 
ATOM     21  C18 <0> d           0.075   1.253   0.043  0.00  0.00     0.152 C 
ATOM     22  C20 <0> d          -1.457   3.709   0.197  0.00  0.00     0.187 C 
ATOM     23  O5  <0> d          -0.662   3.337  -0.932  0.00  0.00    -0.388 OA
ATOM     24  C19 <0> d          -0.594   1.927  -1.160  0.00  0.00     0.187 C 
ENDBRANCH   3  17
BRANCH   6  25
ATOM     25  C6  <0> d          -5.133   2.057   4.859  0.00  0.00    -0.018 A 
ATOM     26  C11 <0> d          -6.093   1.113   4.492  0.00  0.00     0.013 A 
ATOM     27  C10 <0> d          -7.425   1.344   4.769  0.00  0.00     0.001 A 
ATOM     28  C9  <0> d          -7.809   2.509   5.409  0.00  0.00     0.000 A 
ATOM     29  C8  <0> d          -6.862   3.450   5.775  0.00  0.00     0.001 A 
ATOM     30  C7  <0> d          -5.526   3.228   5.509  0.00  0.00     0.013 A 
ENDBRANCH   6  25
TORSDOF 4
