REMARK  3 active torsions:
REMARK  status: ('A' for Active; 'I' for Inactive)
REMARK    1  A    between atoms: C5_9  and  O1_26 
REMARK    2  A    between atoms: C7_12  and  C8_13 
REMARK    3  A    between atoms: C10_18  and  C11_19 
ROOT
ATOM      1  C1  <0> d           0.597   1.198  -0.606  0.00  0.00     0.073 C 
ATOM      2  C2  <0> d           0.492  -0.299  -0.742  0.00  0.00     0.062 A 
ATOM      3  C3  <0> d          -0.020  -0.985  -1.858  0.00  0.00     0.034 A 
ATOM      4  C4  <0> d           0.054  -2.326  -1.593  0.00  0.00     0.156 A 
ATOM      5  N1  <0> d           0.611  -2.450  -0.337  0.00  0.00    -0.260 N 
ATOM      6  H1  <0> d           0.795  -3.283   0.124  0.00  0.00     0.191 HD
ATOM      7  N2  <0> d           0.868  -1.169   0.153  0.00  0.00    -0.178 NA
ATOM      8  N3  <0> d          -0.310  -3.404  -2.308  0.00  0.00    -0.209 NA
ATOM      9  C5  <0> d          -0.825  -3.620  -3.429  0.00  0.00     0.149 C 
ATOM     10  C6  <0> d          -1.205  -2.671  -4.496  0.00  0.00     0.161 C 
ATOM     11  S1  <0> d          -1.894  -1.135  -3.864  0.00  0.00    -0.146 SA
ATOM     12  C7  <0> d          -0.529  -0.274  -3.075  0.00  0.00     0.123 C 
ENDROOT
BRANCH  12  13
ATOM     13  C8  <0> d          -0.989   1.104  -2.676  0.00  0.00     0.009 A 
ATOM     14  C10 <0> d          -0.318   2.313  -2.946  0.00  0.00     0.096 A 
ATOM     15  N5  <0> d          -1.035   3.295  -2.442  0.00  0.00    -0.174 NA
ATOM     16  N4  <0> d          -2.168   2.740  -1.834  0.00  0.00    -0.288 N 
ATOM     17  C9  <0> d          -2.115   1.400  -1.992  0.00  0.00     0.120 A 
ATOM     18  H3  <0> d          -2.869   3.233  -1.379  0.00  0.00     0.188 HD
BRANCH  14  19
ATOM     19  C11 <0> d           0.968   2.454  -3.673  0.00  0.00    -0.005 A 
ATOM     20  C16 <0> d           1.121   3.449  -4.636  0.00  0.00     0.015 A 
ATOM     21  C15 <0> d           2.321   3.581  -5.305  0.00  0.00     0.024 A 
ATOM     22  C14 <0> d           3.368   2.718  -5.029  0.00  0.00     0.034 A 
ATOM     23  C13 <0> d           3.219   1.724  -4.077  0.00  0.00     0.024 A 
ATOM     24 Cl1  <0> d           4.872   2.884  -5.879  0.00  0.00    -0.084 Cl
ATOM     25  C12 <0> d           2.025   1.589  -3.398  0.00  0.00     0.015 A 
ENDBRANCH  14  19
ENDBRANCH  12  13
BRANCH   9  26
ATOM     26  O1  <0> d          -1.070  -4.918  -3.704  0.00  0.00    -0.347 OA
ATOM     27  H14 <0> d          -0.816  -5.525  -2.996  0.00  0.00     0.219 HD
ENDBRANCH   9  26
TORSDOF 3
