REMARK  6 active torsions:
REMARK  status: ('A' for Active; 'I' for Inactive)
REMARK    1  A    between atoms: C3_3  and  O2_11 
REMARK    2  A    between atoms: C6_6  and  C7_7 
REMARK    3  A    between atoms: C7_7  and  N2_10 
REMARK    4  A    between atoms: N1_8  and  O1_9 
REMARK    5  A    between atoms: O2_11  and  C8_12 
REMARK    6  A    between atoms: C11_15  and  N3_18 
ROOT
ATOM      1  C8  <0> d           2.786   1.723  -6.584  0.00  0.00     0.076 A 
ATOM      2  C9  <0> d           2.134   0.655  -5.984  0.00  0.00     0.039 A 
ATOM      3  C10 <0> d           1.433   0.845  -4.810  0.00  0.00     0.033 A 
ATOM      4  C11 <0> d           1.382   2.105  -4.229  0.00  0.00     0.045 A 
ATOM      5  C12 <0> d           2.030   3.174  -4.832  0.00  0.00     0.033 A 
ATOM      6  C13 <0> d           2.735   2.982  -6.003  0.00  0.00     0.039 A 
ENDROOT
BRANCH   1   7
ATOM      7  O2  <0> d           3.476   1.536  -7.740  0.00  0.00    -0.311 OA
BRANCH   7   8
ATOM      8  C3  <0> d           4.832   1.490  -7.674  0.00  0.00     0.076 A 
ATOM      9  C2  <0> d           5.581   1.419  -8.842  0.00  0.00     0.038 A 
ATOM     10  C1  <0> d           6.957   1.373  -8.778  0.00  0.00     0.018 A 
ATOM     11  C6  <0> d           7.597   1.399  -7.538  0.00  0.00     0.012 A 
ATOM     12  C5  <0> d           6.842   1.471  -6.367  0.00  0.00     0.018 A 
ATOM     13  C4  <0> d           5.466   1.522  -6.439  0.00  0.00     0.038 A 
BRANCH  11  14
ATOM     14  C7  <0> d           9.074   1.350  -7.466  0.00  0.00     0.158 C 
ATOM     15  N1  <0> d           9.777   1.284  -8.559  0.00  0.00    -0.118 NA
BRANCH  15  16
ATOM     16  O1  <0> d          11.191   1.237  -8.490  0.00  0.00    -0.264 OA
ATOM     17  H9  <0> d          11.625   1.188  -9.352  0.00  0.00     0.247 HD
ENDBRANCH  15  16
BRANCH  14  18
ATOM     18  N2  <0> d           9.708   1.376  -6.235  0.00  0.00    -0.382 N 
ATOM     19  H10 <0> d           9.184   1.426  -5.421  0.00  0.00     0.157 HD
ATOM     20  H11 <0> d          10.677   1.344  -6.188  0.00  0.00     0.157 HD
ENDBRANCH  14  18
ENDBRANCH  11  14
ENDBRANCH   7   8
ENDBRANCH   1   7
BRANCH   4  21
ATOM     21  N3  <0> d           0.670   2.298  -3.035  0.00  0.00    -0.252 N 
ATOM     22  C20 <0> d          -0.659   2.163  -2.955  0.00  0.00     0.236 A 
ATOM     23  C19 <0> d          -1.111   2.430  -1.559  0.00  0.00     0.100 A 
ATOM     24  O4  <0> d          -1.389   1.866  -3.877  0.00  0.00    -0.272 OA
ATOM     25  C15 <0> d           0.222   2.763  -0.798  0.00  0.00     0.100 A 
ATOM     26  C18 <0> d          -1.564   1.090  -0.899  0.00  0.00     0.022 C 
ATOM     27  C14 <0> d           1.264   2.632  -1.885  0.00  0.00     0.236 A 
ATOM     28  C16 <0> d           0.391   1.565   0.189  0.00  0.00     0.022 C 
ATOM     29  O3  <0> d           2.455   2.805  -1.736  0.00  0.00    -0.272 OA
ATOM     30  C22 <0> d          -0.767   1.730   1.180  0.00  0.00    -0.025 C 
ATOM     31  C17 <0> d          -0.173   0.389  -0.690  0.00  0.00     0.018 C 
ATOM     32  C21 <0> d          -1.894   1.456   0.553  0.00  0.00    -0.025 C 
ENDBRANCH   4  21
TORSDOF 6
