REMARK  6 active torsions:
REMARK  status: ('A' for Active; 'I' for Inactive)
REMARK    1  A    between atoms: N1_2  and  C2_3 
REMARK    2  A    between atoms: N1_2  and  C8_10 
REMARK    3  A    between atoms: C5_6  and  O1_9 
REMARK    4  A    between atoms: C8_10  and  C9_11 
REMARK    5  A    between atoms: C8_10  and  C10_13 
REMARK    6  A    between atoms: C9_11  and  N2_12 
ROOT
ATOM      1  C8  <0> d          -1.203  -0.855  -0.121  0.00  0.00     0.144 C 
ENDROOT
BRANCH   1   2
ATOM      2  N1  <0> d           0.059  -0.112  -0.079  0.00  0.00    -0.375 N 
ATOM      3  C1  <0> d           1.334  -0.833  -0.060  0.00  0.00     0.150 C 
BRANCH   2   4
ATOM      4  C2  <0> d           0.046   1.288  -0.056  0.00  0.00     0.030 A 
ATOM      5  C7  <0> d           1.233   1.991   0.102  0.00  0.00     0.032 A 
ATOM      6  C6  <0> d           1.219   3.372   0.123  0.00  0.00     0.039 A 
ATOM      7  C5  <0> d           0.020   4.056  -0.013  0.00  0.00     0.065 A 
ATOM      8  C4  <0> d          -1.166   3.354  -0.171  0.00  0.00     0.039 A 
ATOM      9  C3  <0> d          -1.153   1.974  -0.198  0.00  0.00     0.032 A 
BRANCH   7  10
ATOM     10  O1  <0> d           0.008   5.416   0.009  0.00  0.00    -0.361 OA
ATOM     11  H9  <0> d           0.948   5.973   0.134  0.00  0.00     0.217 HD
ENDBRANCH   7  10
ENDBRANCH   2   4
ENDBRANCH   1   2
BRANCH   1  12
ATOM     12  C9  <0> d          -1.312  -1.599  -1.454  0.00  0.00     0.259 C 
BRANCH  12  13
ATOM     13  N2  <0> d          -1.156  -0.645  -2.561  0.00  0.00    -0.077 N 
ATOM     14  H12 <0> d          -1.235  -1.180  -3.519  0.00  0.00     0.274 HD
ATOM     15  H13 <0> d          -0.172  -0.160  -2.491  0.00  0.00     0.274 HD
ATOM     16  H17 <0> d          -1.946   0.118  -2.501  0.00  0.00     0.274 HD
ENDBRANCH  12  13
ENDBRANCH   1  12
BRANCH   1  17
ATOM     17  C10 <0> d          -1.239  -1.848   1.012  0.00  0.00    -0.010 A 
ATOM     18  C15 <0> d          -1.482  -1.415   2.303  0.00  0.00     0.064 A 
ATOM     19  C14 <0> d          -1.522  -2.329   3.343  0.00  0.00     0.056 A 
ATOM     20 Cl1  <0> d          -1.746   0.272   2.618  0.00  0.00    -0.082 Cl
ATOM     21  C13 <0> d          -1.305  -3.671   3.091  0.00  0.00     0.026 A 
ATOM     22 Cl2  <0> d          -1.835  -1.788   4.963  0.00  0.00    -0.083 Cl
ATOM     23  C12 <0> d          -1.056  -4.101   1.801  0.00  0.00     0.002 A 
ATOM     24  C11 <0> d          -1.023  -3.190   0.762  0.00  0.00     0.011 A 
ENDBRANCH   1  17
TORSDOF 6
