REMARK  5 active torsions:
REMARK  status: ('A' for Active; 'I' for Inactive)
REMARK    1  A    between atoms: C6_9  and  S1_10 
REMARK    2  A    between atoms: S1_10  and  C7_11 
REMARK    3  A    between atoms: C7_11  and  C8_12 
REMARK    4  A    between atoms: C7_11  and  C9_14 
REMARK    5  A    between atoms: C8_12  and  N4_13 
ROOT
ATOM      1  C7  <0> d           5.922  -2.148   0.087  0.00  0.00     0.113 C 
ENDROOT
BRANCH   1   2
ATOM      2  S1  <0> d           5.258  -0.470  -0.097  0.00  0.00    -0.079 SA
BRANCH   2   3
ATOM      3  C6  <0> d           3.515  -0.710  -0.200  0.00  0.00     0.196 A 
ATOM      4  N1  <0> d           2.567   0.268  -0.259  0.00  0.00    -0.283 N 
ATOM      5  C3  <0> d           2.615   1.634  -0.261  0.00  0.00     0.101 A 
ATOM      6  C4  <0> d           1.356  -0.388  -0.330  0.00  0.00     0.158 A 
ATOM      7  C2  <0> d           1.481   2.358  -0.330  0.00  0.00     0.018 A 
ATOM      8  C1  <0> d           0.230   1.718  -0.403  0.00  0.00     0.005 A 
ATOM      9  C5  <0> d           0.163   0.360  -0.404  0.00  0.00     0.053 A 
ATOM     10  N2  <0> d           1.618  -1.681  -0.310  0.00  0.00    -0.129 NA
ATOM     11  N3  <0> d           2.889  -1.865  -0.234  0.00  0.00    -0.122 NA
ENDBRANCH   2   3
ENDBRANCH   1   2
BRANCH   1  12
ATOM     12  C8  <0> d           5.709  -2.927  -1.213  0.00  0.00     0.249 C 
BRANCH  12  13
ATOM     13  N4  <0> d           6.124  -4.323  -1.022  0.00  0.00    -0.078 N 
ATOM     14  H8  <0> d           7.118  -4.358  -0.853  0.00  0.00     0.274 HD
ATOM     15  H9  <0> d           5.634  -4.714  -0.231  0.00  0.00     0.274 HD
ATOM     16  H14 <0> d           5.904  -4.855  -1.850  0.00  0.00     0.274 HD
ENDBRANCH  12  13
ENDBRANCH   1  12
BRANCH   1  17
ATOM     17  C9  <0> d           7.396  -2.075   0.392  0.00  0.00    -0.040 A 
ATOM     18  C13 <0> d           7.904  -2.607   1.567  0.00  0.00     0.027 A 
ATOM     19  C12 <0> d           9.262  -2.526   1.810  0.00  0.00     0.116 A 
ATOM     20  N5  <0> d          10.069  -1.941   0.946  0.00  0.00    -0.273 NA
ATOM     21  C11 <0> d           9.619  -1.419  -0.178  0.00  0.00     0.116 A 
ATOM     22  C10 <0> d           8.274  -1.468  -0.492  0.00  0.00     0.027 A 
ENDBRANCH   1  17
TORSDOF 5
