REMARK  4 active torsions:
REMARK  status: ('A' for Active; 'I' for Inactive)
REMARK    1  A    between atoms: C4_4  and  N1_7 
REMARK    2  A    between atoms: C8_9  and  C10_12 
REMARK    3  A    between atoms: C10_12  and  C11_13 
REMARK       I    between atoms: C11_13  and  N3_15 
REMARK    4  A    between atoms: N3_15  and  C12_16 
ROOT
ATOM      1  C10 <0> d           5.757  -3.612  -0.083  0.00  0.00     0.144 C 
ENDROOT
BRANCH   1   2
ATOM      2  C8  <0> d           5.115  -2.248  -0.065  0.00  0.00    -0.013 A 
ATOM      3  C7  <0> d           3.786  -1.994  -0.052  0.00  0.00     0.128 A 
ATOM      4  N1  <0> d           3.624  -0.652  -0.037  0.00  0.00    -0.245 N 
ATOM      5  N2  <0> d           4.895  -0.065  -0.048  0.00  0.00    -0.180 NA
ATOM      6  C9  <0> d           5.788  -1.022  -0.059  0.00  0.00     0.148 A 
BRANCH   4   7
ATOM      7  C4  <0> d           2.399   0.031  -0.021  0.00  0.00     0.058 A 
ATOM      8  C3  <0> d           2.377   1.419  -0.013  0.00  0.00     0.031 A 
ATOM      9  C2  <0> d           1.170   2.089   0.002  0.00  0.00     0.002 A 
ATOM     10  C1  <0> d          -0.017   1.379   0.010  0.00  0.00     0.000 A 
ATOM     11  C6  <0> d           0.002  -0.004   0.002  0.00  0.00     0.002 A 
ATOM     12  C5  <0> d           1.207  -0.680  -0.013  0.00  0.00     0.031 A 
ENDBRANCH   4   7
ENDBRANCH   1   2
BRANCH   1  13
ATOM     13  C11 <0> d           5.959  -4.053  -1.510  0.00  0.00     0.222 C 
ATOM     14  O1  <0> d           5.616  -3.331  -2.422  0.00  0.00    -0.273 OA
ATOM     15  N3  <0> d           6.522  -5.249  -1.772  0.00  0.00    -0.355 N 
ATOM     16  H11 <0> d           6.796  -5.826  -1.042  0.00  0.00     0.162 HD
BRANCH  15  17
ATOM     17  C12 <0> d           6.718  -5.678  -3.159  0.00  0.00     0.099 C 
ATOM     18  C15 <0> d           7.886  -6.703  -3.231  0.00  0.00     0.165 C 
ATOM     19  S1  <0> d           7.529  -7.507  -4.850  0.00  0.00     0.146 S 
ATOM     20  C14 <0> d           5.742  -7.100  -5.005  0.00  0.00     0.142 C 
ATOM     21  O2  <0> d           8.248  -6.829  -5.871  0.00  0.00    -0.228 OA
ATOM     22  O3  <0> d           7.672  -8.914  -4.710  0.00  0.00    -0.228 OA
ATOM     23  C13 <0> d           5.444  -6.367  -3.675  0.00  0.00     0.041 C 
ENDBRANCH  15  17
ENDBRANCH   1  13
TORSDOF 4
