REMARK  3 active torsions:
REMARK  status: ('A' for Active; 'I' for Inactive)
REMARK    1  A    between atoms: C3_3  and  C11_14 
REMARK    2  A    between atoms: N2_6  and  C5_7 
REMARK       I    between atoms: C11_14  and  N3_16 
REMARK    3  A    between atoms: N3_16  and  C12_17 
ROOT
ATOM      1  C1  <0> d          -0.018   1.503   0.010  0.00  0.00     0.071 C 
ATOM      2  C2  <0> d           0.002  -0.004   0.002  0.00  0.00     0.050 A 
ATOM      3  C3  <0> d           0.009  -0.816  -1.115  0.00  0.00     0.076 A 
ATOM      4  C4  <0> d           0.029  -2.153  -0.659  0.00  0.00     0.158 A 
ATOM      5  N1  <0> d           0.034  -2.136   0.645  0.00  0.00    -0.179 NA
ATOM      6  N2  <0> d           0.023  -0.806   1.082  0.00  0.00    -0.238 N 
ENDROOT
BRANCH   3   7
ATOM      7  C11 <0> d          -0.004  -0.371  -2.520  0.00  0.00     0.273 C 
ATOM      8  O1  <0> d          -0.021   0.817  -2.781  0.00  0.00    -0.267 OA
ATOM      9  N3  <0> d           0.005  -1.280  -3.515  0.00  0.00    -0.149 N 
ATOM     10  H9  <0> d           0.019  -2.227  -3.307  0.00  0.00     0.188 HD
BRANCH   9  11
ATOM     11  C12 <0> d          -0.007  -0.861  -4.836  0.00  0.00     0.769 A 
ATOM     12  N7  <0> d          -0.001  -1.638  -5.918  0.00  0.00     0.067 NA
ATOM     13  N6  <0> d          -0.019  -0.866  -6.950  0.00  0.00    -0.006 NA
ATOM     14  N5  <0> d          -0.028   0.361  -6.561  0.00  0.00    -0.006 NA
ATOM     15  N4  <0> d          -0.020   0.397  -5.272  0.00  0.00     0.067 NA
ENDBRANCH   9  11
ENDBRANCH   3   7
BRANCH   6  16
ATOM     16  C5  <0> d           0.031  -0.382   2.418  0.00  0.00     0.058 A 
ATOM     17  C10 <0> d          -0.639  -1.119   3.385  0.00  0.00     0.033 A 
ATOM     18  C9  <0> d          -0.625  -0.703   4.702  0.00  0.00     0.021 A 
ATOM     19  C8  <0> d           0.046   0.455   5.055  0.00  0.00     0.011 A 
ATOM     20  C7  <0> d           0.710   1.194   4.092  0.00  0.00     0.021 A 
ATOM     21 Br1  <0> d           0.057   1.026   6.857  0.00  0.00    -0.051 Br
ATOM     22  C6  <0> d           0.704   0.778   2.775  0.00  0.00     0.033 A 
ENDBRANCH   6  16
TORSDOF 3
