REMARK  2 active torsions:
REMARK  status: ('A' for Active; 'I' for Inactive)
REMARK    1  A    between atoms: C7_11  and  C10_16 
REMARK    2  A    between atoms: C13_19  and  O4_23 
ROOT
ATOM      1  C1  <0> d          -0.018   1.461   0.010  0.00  0.00     0.163 C 
ATOM      2  N1  <0> d           0.002  -0.004   0.002  0.00  0.00    -0.289 N 
ATOM      3  C2  <0> d          -1.180  -0.704   0.004  0.00  0.00     0.126 A 
ATOM      4  C3  <0> d          -1.151  -2.066  -0.004  0.00  0.00     0.064 A 
ATOM      5  C4  <0> d           0.089  -2.727  -0.014  0.00  0.00     0.262 A 
ATOM      6  O1  <0> d           0.136  -3.945  -0.022  0.00  0.00    -0.267 OA
ATOM      7  N2  <0> d           1.226  -2.002  -0.016  0.00  0.00    -0.270 N 
ATOM      8  C5  <0> d           1.178  -0.658  -0.013  0.00  0.00     0.332 A 
ATOM      9  O2  <0> d           2.215  -0.023  -0.019  0.00  0.00    -0.246 OA
ATOM     10  C6  <0> d           2.523  -2.684  -0.025  0.00  0.00     0.164 C 
ATOM     11  C7  <0> d          -2.433  -2.854  -0.002  0.00  0.00     0.069 C 
ATOM     12  C8  <0> d          -3.500  -2.092  -0.791  0.00  0.00     0.117 C 
ATOM     13  C9  <0> d          -3.519  -0.652  -0.352  0.00  0.00     0.224 C 
ATOM     14  O3  <0> d          -4.568  -0.044  -0.328  0.00  0.00    -0.273 OA
ATOM     15  N3  <0> d          -2.382  -0.033   0.015  0.00  0.00    -0.312 N 
ATOM     16  H10 <0> d          -2.409   0.897   0.290  0.00  0.00     0.170 HD
ENDROOT
BRANCH  11  17
ATOM     17  C10 <0> d          -2.901  -3.048   1.418  0.00  0.00    -0.047 A 
ATOM     18  C15 <0> d          -3.048  -4.325   1.927  0.00  0.00     0.029 A 
ATOM     19  C14 <0> d          -3.472  -4.505   3.231  0.00  0.00     0.044 A 
ATOM     20  C13 <0> d          -3.759  -3.403   4.024  0.00  0.00     0.085 A 
ATOM     21 Br1  <0> d          -3.665  -6.251   3.930  0.00  0.00    -0.048 Br
ATOM     22  C12 <0> d          -3.616  -2.124   3.508  0.00  0.00     0.039 A 
ATOM     23  C11 <0> d          -3.187  -1.949   2.207  0.00  0.00     0.011 A 
BRANCH  20  24
ATOM     24  O4  <0> d          -4.180  -3.578   5.305  0.00  0.00    -0.355 OA
ATOM     25  C16 <0> d          -4.457  -2.398   6.063  0.00  0.00     0.210 C 
ENDBRANCH  20  24
ENDBRANCH  11  17
TORSDOF 2
