REMARK  4 active torsions:
REMARK  status: ('A' for Active; 'I' for Inactive)
REMARK    1  A    between atoms: O1_2  and  C2_3 
REMARK    2  A    between atoms: C7_8  and  N1_9 
REMARK       I    between atoms: N1_9  and  C8_10 
REMARK    3  A    between atoms: C8_10  and  C9_12 
REMARK    4  A    between atoms: C11_14  and  C12_17 
ROOT
ATOM      1  N1  <0> d          -0.074  -2.780  -0.012  0.00  0.00    -0.323 N 
ATOM      2  C8  <0> d          -0.127  -4.124   0.083  0.00  0.00     0.252 C 
ATOM      3  O2  <0> d          -1.200  -4.689   0.090  0.00  0.00    -0.270 OA
ATOM      4  H9  <0> d           0.783  -2.334  -0.098  0.00  0.00     0.169 HD
ENDROOT
BRANCH   2   5
ATOM      5  C9  <0> d           1.147  -4.923   0.181  0.00  0.00     0.248 A 
ATOM      6  N3  <0> d           0.869  -6.288   0.657  0.00  0.00    -0.173 NA
ATOM      7  N2  <0> d           1.219  -7.078  -0.227  0.00  0.00    -0.154 NA
ATOM      8  C11 <0> d           1.739  -6.488  -1.335  0.00  0.00     0.087 A 
ATOM      9  C10 <0> d           1.746  -5.148  -1.196  0.00  0.00     0.046 A 
BRANCH   8  10
ATOM     10  C12 <0> d           2.231  -7.217  -2.530  0.00  0.00    -0.003 A 
ATOM     11  C16 <0> d           2.186  -8.613  -2.588  0.00  0.00     0.033 A 
ATOM     12  C15 <0> d           2.649  -9.251  -3.721  0.00  0.00     0.117 A 
ATOM     13  N4  <0> d           3.139  -8.562  -4.734  0.00  0.00    -0.273 NA
ATOM     14  C14 <0> d           3.204  -7.245  -4.717  0.00  0.00     0.117 A 
ATOM     15  C13 <0> d           2.757  -6.527  -3.626  0.00  0.00     0.033 A 
ENDBRANCH   8  10
ENDBRANCH   2   5
BRANCH   1  16
ATOM     16  C7  <0> d          -1.256  -2.029   0.014  0.00  0.00     0.068 A 
ATOM     17  C2  <0> d          -1.294  -0.766  -0.572  0.00  0.00     0.095 A 
ATOM     18  C3  <0> d          -2.468  -0.030  -0.548  0.00  0.00     0.039 A 
ATOM     19  C4  <0> d          -3.596  -0.546   0.062  0.00  0.00     0.003 A 
ATOM     20  C5  <0> d          -3.557  -1.798   0.649  0.00  0.00     0.002 A 
ATOM     21  C6  <0> d          -2.391  -2.538   0.629  0.00  0.00     0.032 A 
BRANCH  17  22
ATOM     22  O1  <0> d          -0.184  -0.259  -1.172  0.00  0.00    -0.354 OA
ATOM     23  C1  <0> d          -0.297   1.042  -1.753  0.00  0.00     0.210 C 
ENDBRANCH  17  22
ENDBRANCH   1  16
TORSDOF 4
