REMARK  6 active torsions:
REMARK  status: ('A' for Active; 'I' for Inactive)
REMARK    1  A    between atoms: N1_6  and  C7_8 
REMARK    2  A    between atoms: C7_8  and  C8_9 
REMARK    3  A    between atoms: C8_9  and  C9_10 
REMARK    4  A    between atoms: C9_10  and  N2_11 
REMARK       I    between atoms: N2_11  and  C10_12 
REMARK       I    between atoms: C10_12  and  N3_14 
REMARK    5  A    between atoms: N3_14  and  C11_15 
REMARK    6  A    between atoms: C13_17  and  C16_23 
ROOT
ATOM      1  N2  <0> d           2.478  -5.957   3.537  0.00  0.00    -0.343 N 
ATOM      2  C10 <0> d           3.152  -6.636   4.486  0.00  0.00     0.320 C 
ATOM      3  O1  <0> d           3.530  -6.063   5.491  0.00  0.00    -0.247 OA
ATOM      4  N3  <0> d           3.409  -7.949   4.322  0.00  0.00    -0.304 N 
ATOM      5  H20 <0> d           2.177  -6.413   2.736  0.00  0.00     0.164 HD
ATOM      6  H21 <0> d           3.045  -8.422   3.558  0.00  0.00     0.171 HD
ENDROOT
BRANCH   1   7
ATOM      7  C9  <0> d           2.199  -4.530   3.716  0.00  0.00     0.126 C 
BRANCH   7   8
ATOM      8  C8  <0> d           1.427  -4.005   2.503  0.00  0.00     0.047 C 
BRANCH   8   9
ATOM      9  C7  <0> d           1.136  -2.515   2.690  0.00  0.00     0.236 C 
BRANCH   9  10
ATOM     10  N1  <0> d           0.394  -2.011   1.526  0.00  0.00    -0.071 N 
ATOM     11  C5  <0> d          -0.921  -2.660   1.468  0.00  0.00     0.235 C 
ATOM     12  C4  <0> d          -1.666  -2.200   0.212  0.00  0.00     0.028 C 
ATOM     13  C3  <0> d          -1.846  -0.680   0.261  0.00  0.00     0.007 C 
ATOM     14  C2  <0> d          -0.473  -0.017   0.397  0.00  0.00     0.007 C 
ATOM     15  C1  <0> d          -0.647   1.498   0.524  0.00  0.00     0.011 C 
ATOM     16  C6  <0> d           0.228  -0.558   1.645  0.00  0.00     0.239 C 
ATOM     17  H24 <0> d           0.910  -2.222   0.684  0.00  0.00     0.279 HD
ENDBRANCH   9  10
ENDBRANCH   8   9
ENDBRANCH   7   8
ENDBRANCH   1   7
BRANCH   4  18
ATOM     18  C11 <0> d           4.201  -8.630   5.256  0.00  0.00     0.105 A 
ATOM     19  C15 <0> d           5.523  -8.208   5.515  0.00  0.00     0.272 A 
ATOM     20  N4  <0> d           6.274  -8.867   6.418  0.00  0.00    -0.331 N 
ATOM     21  O2  <0> d           5.984  -7.245   4.924  0.00  0.00    -0.266 OA
ATOM     22  C14 <0> d           5.779  -9.946   7.081  0.00  0.00     0.107 A 
ATOM     23  H1  <0> d           7.181  -8.570   6.595  0.00  0.00     0.168 HD
ATOM     24  C13 <0> d           4.518 -10.380   6.853  0.00  0.00     0.065 A 
ATOM     25  C12 <0> d           3.704  -9.716   5.925  0.00  0.00     0.052 A 
BRANCH  24  26
ATOM     26  C16 <0> d           3.988 -11.577   7.599  0.00  0.00     0.418 C 
ATOM     27  F1  <0> d           4.976 -12.064   8.462  0.00  0.00    -0.166 F 
ATOM     28  F2  <0> d           2.863 -11.203   8.342  0.00  0.00    -0.166 F 
ATOM     29  F3  <0> d           3.633 -12.575   6.686  0.00  0.00    -0.166 F 
ENDBRANCH  24  26
ENDBRANCH   4  18
TORSDOF 6
