REMARK  7 active torsions:
REMARK  status: ('A' for Active; 'I' for Inactive)
REMARK    1  A    between atoms: N1_2  and  C3_4 
REMARK    2  A    between atoms: C3_4  and  C4_5 
REMARK    3  A    between atoms: C3_4  and  C17_24 
REMARK    4  A    between atoms: C4_5  and  N2_6 
REMARK       I    between atoms: N2_6  and  C5_7 
REMARK    5  A    between atoms: C5_7  and  C6_9 
REMARK       I    between atoms: C6_9  and  N3_11 
REMARK    6  A    between atoms: N3_11  and  C7_12 
REMARK    7  A    between atoms: C10_15  and  O3_22 
ROOT
ATOM      1  C6  <0> d          -1.952   3.719  -2.279  0.00  0.00     0.314 C 
ATOM      2  O2  <0> d          -1.254   4.243  -1.436  0.00  0.00    -0.262 OA
ATOM      3  N3  <0> d          -2.471   4.459  -3.279  0.00  0.00    -0.318 N 
ATOM      4  H11 <0> d          -3.087   4.056  -3.911  0.00  0.00     0.169 HD
ENDROOT
BRANCH   1   5
ATOM      5  C5  <0> d          -2.238   2.255  -2.208  0.00  0.00     0.309 C 
ATOM      6  N2  <0> d          -1.720   1.515  -1.208  0.00  0.00    -0.351 N 
ATOM      7  H10 <0> d          -1.161   1.934  -0.534  0.00  0.00     0.162 HD
ATOM      8  O1  <0> d          -2.936   1.732  -3.051  0.00  0.00    -0.262 OA
BRANCH   6   9
ATOM      9  C4  <0> d          -2.000   0.079  -1.138  0.00  0.00     0.161 C 
BRANCH   9  10
ATOM     10  C3  <0> d          -1.200  -0.541   0.009  0.00  0.00     0.238 C 
BRANCH  10  11
ATOM     11  N1  <0> d          -1.389  -1.998   0.006  0.00  0.00    -0.069 N 
ATOM     12  C1  <0> d          -0.829  -2.562  -1.230  0.00  0.00     0.270 C 
ATOM     13  C2  <0> d          -0.702  -2.583   1.165  0.00  0.00     0.270 C 
ATOM     14  H23 <0> d          -2.374  -2.210   0.056  0.00  0.00     0.279 HD
ENDBRANCH  10  11
BRANCH  10  15
ATOM     15  C17 <0> d          -1.681   0.024   1.320  0.00  0.00    -0.019 A 
ATOM     16  C20 <0> d          -2.810  -0.450   1.901  0.00  0.00     0.058 A 
ATOM     17  S1  <0> d          -2.906   0.540   3.384  0.00  0.00    -0.113 SA
ATOM     18  C19 <0> d          -1.440   1.525   3.124  0.00  0.00     0.050 A 
ATOM     19  C18 <0> d          -0.980   1.039   1.946  0.00  0.00     0.017 A 
ENDBRANCH  10  15
ENDBRANCH   9  10
ENDBRANCH   6   9
ENDBRANCH   1   5
BRANCH   3  20
ATOM     20  C7  <0> d          -2.121   5.803  -3.406  0.00  0.00     0.048 A 
ATOM     21  C12 <0> d          -3.056   6.736  -3.899  0.00  0.00     0.022 A 
ATOM     22  C11 <0> d          -2.692   8.099  -4.019  0.00  0.00     0.102 A 
ATOM     23  C13 <0> d          -4.353   6.342  -4.273  0.00  0.00     0.017 A 
ATOM     24  C10 <0> d          -1.391   8.498  -3.650  0.00  0.00     0.097 A 
ATOM     25  N4  <0> d          -3.578   8.987  -4.481  0.00  0.00    -0.257 NA
ATOM     26  C9  <0> d          -0.497   7.565  -3.176  0.00  0.00     0.041 A 
ATOM     27  C8  <0> d          -0.857   6.227  -3.054  0.00  0.00     0.033 A 
ATOM     28  C15 <0> d          -4.785   8.621  -4.840  0.00  0.00     0.117 A 
ATOM     29  C14 <0> d          -5.208   7.298  -4.743  0.00  0.00     0.020 A 
BRANCH  24  30
ATOM     30  O3  <0> d          -1.020   9.801  -3.761  0.00  0.00    -0.354 OA
ATOM     31  C16 <0> d           0.313  10.133  -3.368  0.00  0.00     0.210 C 
ENDBRANCH  24  30
ENDBRANCH   3  20
TORSDOF 7
