REMARK  7 active torsions:
REMARK  status: ('A' for Active; 'I' for Inactive)
REMARK    1  A    between atoms: C3_4  and  C5_7 
REMARK    2  A    between atoms: C5_7  and  N3_27 
REMARK    3  A    between atoms: C7_9  and  C8_10 
REMARK    4  A    between atoms: C7_9  and  N3_27 
REMARK    5  A    between atoms: C8_10  and  O2_25 
REMARK    6  A    between atoms: N2_14  and  C13_17 
REMARK    7  A    between atoms: C13_17  and  C14_18 
ROOT
ATOM      1  C8  <0> d          -4.425   3.284  -3.445  0.00  0.00     0.162 C 
ATOM      2  C9  <0> d          -3.498   4.301  -4.116  0.00  0.00     0.051 C 
ATOM      3  C10 <0> d          -3.533   5.600  -3.301  0.00  0.00     0.023 C 
ATOM      4  C11 <0> d          -2.885   5.346  -1.942  0.00  0.00     0.126 C 
ATOM      5  N2  <0> d          -3.455   4.161  -1.315  0.00  0.00    -0.345 N 
ATOM      6  C12 <0> d          -4.131   3.218  -1.974  0.00  0.00     0.256 C 
ATOM      7  O1  <0> d          -4.529   2.257  -1.351  0.00  0.00    -0.270 OA
ENDROOT
BRANCH   1   8
ATOM      8  C7  <0> d          -4.203   1.905  -4.070  0.00  0.00     0.282 C 
BRANCH   8   9
ATOM      9  N3  <0> d          -2.758   1.595  -4.029  0.00  0.00    -0.066 N 
ATOM     10  C6  <0> d          -2.377   1.138  -2.676  0.00  0.00     0.270 C 
ATOM     11  H25 <0> d          -2.228   2.444  -4.256  0.00  0.00     0.280 HD
BRANCH   9  12
ATOM     12  C5  <0> d          -2.439   0.549  -5.024  0.00  0.00     0.294 C 
BRANCH  12  13
ATOM     13  C3  <0> d          -0.941   0.409  -5.118  0.00  0.00     0.067 A 
ATOM     14  N1  <0> d          -0.237   1.204  -5.896  0.00  0.00    -0.249 NA
ATOM     15  C2  <0> d           1.069   1.097  -5.983  0.00  0.00     0.071 A 
ATOM     16  C1  <0> d           2.033   1.911  -6.806  0.00  0.00     0.078 C 
ATOM     17  S1  <0> d           1.399  -0.229  -4.911  0.00  0.00    -0.085 SA
ATOM     18  C4  <0> d          -0.286  -0.544  -4.407  0.00  0.00     0.080 A 
ENDBRANCH  12  13
ENDBRANCH   9  12
ENDBRANCH   8   9
ENDBRANCH   1   8
BRANCH   1  19
ATOM     19  O2  <0> d          -5.784   3.679  -3.640  0.00  0.00    -0.378 OA
ATOM     20  H24 <0> d          -6.430   3.038  -3.313  0.00  0.00     0.211 HD
ENDBRANCH   1  19
BRANCH   5  21
ATOM     21  C13 <0> d          -3.280   3.997   0.131  0.00  0.00     0.164 C 
BRANCH  21  22
ATOM     22  C14 <0> d          -2.010   3.231   0.400  0.00  0.00    -0.040 A 
ATOM     23  C19 <0> d          -0.817   3.910   0.566  0.00  0.00     0.012 A 
ATOM     24  C18 <0> d           0.348   3.209   0.812  0.00  0.00     0.043 A 
ATOM     25  C17 <0> d           0.320   1.827   0.892  0.00  0.00     0.116 A 
ATOM     26  C16 <0> d          -0.875   1.149   0.726  0.00  0.00     0.043 A 
ATOM     27  F1  <0> d           1.459   1.141   1.133  0.00  0.00    -0.206 F 
ATOM     28  C15 <0> d          -2.038   1.851   0.474  0.00  0.00     0.012 A 
ENDBRANCH  21  22
ENDBRANCH   5  21
TORSDOF 7
