REMARK  5 active torsions:
REMARK  status: ('A' for Active; 'I' for Inactive)
REMARK    1  A    between atoms: C3_3  and  S2_9 
REMARK    2  A    between atoms: C4_5  and  C5_6 
REMARK    3  A    between atoms: C5_6  and  C6_7 
REMARK    4  A    between atoms: C6_7  and  N1_8 
REMARK    5  A    between atoms: S2_9  and  N2_12 
ROOT
ATOM      1  C1  <0> d          -0.016   1.351   0.009  0.00  0.00     0.017 A 
ATOM      2  C2  <0> d           1.183   2.038   0.002  0.00  0.00     0.034 A 
ATOM      3  C3  <0> d           2.343   1.336  -0.013  0.00  0.00     0.120 A 
ATOM      4  S1  <0> d           1.754  -0.349  -0.017  0.00  0.00    -0.081 SA
ATOM      5  C4  <0> d           0.002  -0.004   0.002  0.00  0.00    -0.015 A 
ENDROOT
BRANCH   3   6
ATOM      6  S2  <0> d           4.001   1.932  -0.026  0.00  0.00     0.267 S 
ATOM      7  O1  <0> d           4.799   0.900  -0.590  0.00  0.00    -0.200 OA
ATOM      8  O2  <0> d           3.957   3.244  -0.570  0.00  0.00    -0.200 OA
BRANCH   6   9
ATOM      9  N2  <0> d           4.477   2.089   1.552  0.00  0.00    -0.305 N 
ATOM     10  C10 <0> d           5.115   0.960   2.231  0.00  0.00     0.148 C 
ATOM     11  C9  <0> d           6.572   1.326   2.560  0.00  0.00     0.129 C 
ATOM     12  S3  <0> d           6.576   2.833   3.577  0.00  0.00     0.018 S 
ATOM     13  C8  <0> d           5.597   4.003   2.587  0.00  0.00     0.129 C 
ATOM     14  O3  <0> d           7.906   3.317   3.702  0.00  0.00    -0.258 OA
ATOM     15  C7  <0> d           4.249   3.354   2.253  0.00  0.00     0.148 C 
ENDBRANCH   6   9
ENDBRANCH   3   6
BRANCH   5  16
ATOM     16  C5  <0> d          -1.155  -0.969   0.008  0.00  0.00     0.073 C 
BRANCH  16  17
ATOM     17  C6  <0> d          -1.562  -1.288  -1.432  0.00  0.00     0.234 C 
BRANCH  17  18
ATOM     18  N1  <0> d          -2.690  -2.228  -1.426  0.00  0.00    -0.079 N 
ATOM     19  H7  <0> d          -2.958  -2.438  -2.376  0.00  0.00     0.274 HD
ATOM     20  H8  <0> d          -2.416  -3.079  -0.957  0.00  0.00     0.274 HD
ATOM     21  H17 <0> d          -3.471  -1.813  -0.940  0.00  0.00     0.274 HD
ENDBRANCH  17  18
ENDBRANCH  16  17
ENDBRANCH   5  16
TORSDOF 5
