REMARK  5 active torsions:
REMARK  status: ('A' for Active; 'I' for Inactive)
REMARK    1  A    between atoms: O1_2  and  C2_3 
REMARK    2  A    between atoms: C6_7  and  C9_11 
REMARK    3  A    between atoms: C7_8  and  O2_9 
REMARK    4  A    between atoms: C11_13  and  C16_24 
REMARK    5  A    between atoms: C13_19  and  N4_23 
ROOT
ATOM      1  C9  <0> d           1.304  -4.209  -2.267  0.00  0.00     0.109 C 
ATOM      2  C10 <0> d           2.747  -4.599  -2.461  0.00  0.00     0.040 A 
ATOM      3  C11 <0> d           3.804  -4.560  -1.546  0.00  0.00     0.099 A 
ATOM      4  N1  <0> d           4.888  -4.997  -2.160  0.00  0.00    -0.172 NA
ATOM      5  N2  <0> d           4.546  -5.325  -3.481  0.00  0.00    -0.256 N 
ATOM      6  H2  <0> d           5.149  -5.670  -4.157  0.00  0.00     0.191 HD
ATOM      7  C12 <0> d           3.230  -5.075  -3.645  0.00  0.00     0.175 A 
ATOM      8  O3  <0> d           2.449  -5.237  -4.742  0.00  0.00    -0.274 OA
ATOM      9  C13 <0> d           1.113  -5.177  -4.572  0.00  0.00     0.161 C 
ATOM     10  C14 <0> d           0.516  -4.715  -3.450  0.00  0.00     0.086 C 
ATOM     11  C15 <0> d          -0.914  -4.703  -3.381  0.00  0.00     0.100 C 
ATOM     12  N3  <0> d          -2.049  -4.695  -3.327  0.00  0.00    -0.191 NA
ENDROOT
BRANCH   1  13
ATOM     13  C6  <0> d           1.191  -2.708  -2.184  0.00  0.00    -0.008 A 
ATOM     14  C5  <0> d           1.641  -1.922  -3.229  0.00  0.00     0.011 A 
ATOM     15  C4  <0> d           1.537  -0.546  -3.156  0.00  0.00     0.003 A 
ATOM     16  C3  <0> d           0.983   0.051  -2.039  0.00  0.00     0.039 A 
ATOM     17  C2  <0> d           0.531  -0.731  -0.988  0.00  0.00     0.102 A 
ATOM     18  C7  <0> d           0.640  -2.117  -1.059  0.00  0.00     0.108 A 
BRANCH  17  19
ATOM     19  O1  <0> d          -0.014  -0.146   0.112  0.00  0.00    -0.353 OA
ATOM     20  C1  <0> d          -0.094   1.281   0.115  0.00  0.00     0.210 C 
ENDBRANCH  17  19
BRANCH  18  21
ATOM     21  O2  <0> d           0.202  -2.888  -0.028  0.00  0.00    -0.353 OA
ATOM     22  C8  <0> d          -1.159  -3.320  -0.074  0.00  0.00     0.210 C 
ENDBRANCH  18  21
ENDBRANCH   1  13
BRANCH   9  23
ATOM     23  N4  <0> d           0.310  -5.611  -5.598  0.00  0.00    -0.379 N 
ATOM     24  H12 <0> d           0.709  -5.949  -6.416  0.00  0.00     0.158 HD
ATOM     25  H13 <0> d          -0.654  -5.580  -5.505  0.00  0.00     0.158 HD
ENDBRANCH   9  23
BRANCH   3  26
ATOM     26  C16 <0> d           3.722  -4.108  -0.135  0.00  0.00    -0.005 A 
ATOM     27  C21 <0> d           4.722  -3.298   0.399  0.00  0.00     0.015 A 
ATOM     28  C20 <0> d           4.638  -2.875   1.710  0.00  0.00     0.020 A 
ATOM     29  C19 <0> d           3.569  -3.264   2.497  0.00  0.00     0.011 A 
ATOM     30  C18 <0> d           2.575  -4.072   1.973  0.00  0.00     0.020 A 
ATOM     31 Br1  <0> d           3.464  -2.687   4.295  0.00  0.00    -0.051 Br
ATOM     32  C17 <0> d           2.647  -4.495   0.662  0.00  0.00     0.015 A 
ENDBRANCH   3  26
TORSDOF 5
