REMARK  6 active torsions:
REMARK  status: ('A' for Active; 'I' for Inactive)
REMARK    1  A    between atoms: C2_2  and  O1_3 
REMARK    2  A    between atoms: O1_3  and  C3_4 
REMARK       I    between atoms: C3_4  and  N1_6 
REMARK    3  A    between atoms: N1_6  and  N2_7 
REMARK       I    between atoms: N2_7  and  C4_8 
REMARK    4  A    between atoms: C4_8  and  C5_10 
REMARK    5  A    between atoms: C5_10  and  O4_12 
REMARK    6  A    between atoms: O4_12  and  C7_13 
ROOT
ATOM      1  N2  <0> d           2.185  -1.455  -3.261  0.00  0.00    -0.264 N 
ATOM      2  C4  <0> d           2.774  -1.936  -4.373  0.00  0.00     0.265 C 
ATOM      3  O3  <0> d           3.029  -3.119  -4.461  0.00  0.00    -0.269 OA
ATOM      4  H8  <0> d           1.981  -0.509  -3.191  0.00  0.00     0.190 HD
ENDROOT
BRANCH   2   5
ATOM      5  C5  <0> d           3.116  -1.006  -5.508  0.00  0.00     0.218 C 
ATOM      6  C6  <0> d           4.180  -0.007  -5.046  0.00  0.00     0.050 C 
BRANCH   5   7
ATOM      7  O4  <0> d           3.620  -1.763  -6.610  0.00  0.00    -0.335 OA
BRANCH   7   8
ATOM      8  C7  <0> d           3.493  -1.213  -7.847  0.00  0.00     0.087 A 
ATOM      9  C12 <0> d           3.863  -1.938  -8.971  0.00  0.00     0.044 A 
ATOM     10  C11 <0> d           3.727  -1.378 -10.228  0.00  0.00     0.028 A 
ATOM     11 Br1  <0> d           4.545  -3.692  -8.785  0.00  0.00    -0.048 Br
ATOM     12  C10 <0> d           3.234  -0.094 -10.364  0.00  0.00    -0.061 A 
ATOM     13  C9  <0> d           2.870   0.632  -9.244  0.00  0.00     0.009 A 
ATOM     14  C13 <0> d           3.092   0.516 -11.735  0.00  0.00     0.048 C 
ATOM     15  C8  <0> d           2.998   0.075  -7.987  0.00  0.00     0.039 A 
ENDBRANCH   7   8
ENDBRANCH   5   7
ENDBRANCH   2   5
BRANCH   1  16
ATOM     16  N1  <0> d           1.867  -2.320  -2.206  0.00  0.00    -0.243 N 
ATOM     17  C3  <0> d           1.278  -1.838  -1.094  0.00  0.00     0.379 C 
ATOM     18  O2  <0> d           1.002  -2.589  -0.179  0.00  0.00    -0.237 OA
ATOM     19  H7  <0> d           2.071  -3.266  -2.276  0.00  0.00     0.192 HD
BRANCH  17  20
ATOM     20  O1  <0> d           0.995  -0.525  -0.997  0.00  0.00    -0.303 OA
BRANCH  20  21
ATOM     21  C2  <0> d           0.370  -0.084   0.211  0.00  0.00     0.176 C 
ATOM     22  C1  <0> d           0.128   1.425   0.138  0.00  0.00     0.034 C 
ENDBRANCH  20  21
ENDBRANCH  17  20
ENDBRANCH   1  16
TORSDOF 6
