REMARK  6 active torsions:
REMARK  status: ('A' for Active; 'I' for Inactive)
REMARK    1  A    between atoms: C2_2  and  N1_5 
REMARK       I    between atoms: N1_5  and  C5_6 
REMARK    2  A    between atoms: C5_6  and  C6_8 
REMARK    3  A    between atoms: N4_21  and  C17_24 
REMARK    4  A    between atoms: C16_22  and  N5_23 
REMARK    5  A    between atoms: C17_24  and  C18_25 
REMARK    6  A    between atoms: C18_25  and  C19_26 
ROOT
ATOM      1  C6  <0> d           2.558  -0.208  -2.972  0.00  0.00     0.076 A 
ATOM      2  C7  <0> d           1.925  -1.096  -3.845  0.00  0.00     0.042 A 
ATOM      3  C8  <0> d           2.726  -1.911  -4.642  0.00  0.00     0.080 A 
ATOM      4  C9  <0> d           4.141  -1.821  -4.547  0.00  0.00     0.149 A 
ATOM      5  N2  <0> d           4.891  -2.613  -5.320  0.00  0.00    -0.212 NA
ATOM      6  C10 <0> d           4.359  -3.481  -6.173  0.00  0.00     0.139 A 
ATOM      7  C11 <0> d           5.225  -4.278  -6.950  0.00  0.00     0.051 A 
ATOM      8  C12 <0> d           4.705  -5.175  -7.831  0.00  0.00     0.005 A 
ATOM      9  C13 <0> d           3.313  -5.298  -7.957  0.00  0.00     0.018 A 
ATOM     10  C14 <0> d           2.495  -4.528  -7.207  0.00  0.00     0.102 A 
ATOM     11  N3  <0> d           3.005  -3.625  -6.319  0.00  0.00    -0.273 N 
ATOM     12  C15 <0> d           2.152  -2.872  -5.585  0.00  0.00     0.267 A 
ATOM     13  O2  <0> d           0.946  -2.990  -5.706  0.00  0.00    -0.267 OA
ATOM     14  N4  <0> d           4.700  -0.957  -3.698  0.00  0.00    -0.316 N 
ATOM     15  C16 <0> d           3.970  -0.167  -2.934  0.00  0.00     0.118 A 
ENDROOT
BRANCH   1  16
ATOM     16  C5  <0> d           1.763   0.678  -2.107  0.00  0.00     0.256 C 
ATOM     17  N1  <0> d           0.422   0.714  -2.230  0.00  0.00    -0.349 N 
ATOM     18  H10 <0> d          -0.020   0.156  -2.889  0.00  0.00     0.163 HD
ATOM     19  O1  <0> d           2.317   1.377  -1.280  0.00  0.00    -0.268 OA
BRANCH  17  20
ATOM     20  C2  <0> d          -0.369   1.596  -1.368  0.00  0.00     0.022 C 
ATOM     21  C1  <0> d           0.062   3.047  -1.590  0.00  0.00     0.037 C 
ATOM     22  C3  <0> d          -0.142   1.215   0.097  0.00  0.00     0.037 C 
ATOM     23  C4  <0> d          -1.853   1.446  -1.710  0.00  0.00     0.037 C 
ENDBRANCH  17  20
ENDBRANCH   1  16
BRANCH  15  24
ATOM     24  N5  <0> d           4.596   0.714  -2.077  0.00  0.00    -0.384 N 
ATOM     25  H16 <0> d           4.169   0.968  -1.245  0.00  0.00     0.157 HD
ATOM     26  H26 <0> d           5.465   1.078  -2.307  0.00  0.00     0.157 HD
ENDBRANCH  15  24
BRANCH  14  27
ATOM     27  C17 <0> d           6.161  -0.879  -3.615  0.00  0.00     0.137 C 
BRANCH  27  28
ATOM     28  C18 <0> d           6.674   0.157  -4.617  0.00  0.00     0.059 C 
BRANCH  28  29
ATOM     29  C19 <0> d           8.176   0.237  -4.532  0.00  0.00    -0.057 A 
ATOM     30  C24 <0> d           8.958  -0.579  -5.328  0.00  0.00     0.007 A 
ATOM     31  C23 <0> d          10.336  -0.503  -5.253  0.00  0.00     0.001 A 
ATOM     32  C22 <0> d          10.933   0.383  -4.376  0.00  0.00     0.000 A 
ATOM     33  C21 <0> d          10.151   1.195  -3.576  0.00  0.00     0.001 A 
ATOM     34  C20 <0> d           8.773   1.122  -3.654  0.00  0.00     0.007 A 
ENDBRANCH  28  29
ENDBRANCH  27  28
ENDBRANCH  14  27
TORSDOF 6
