REMARK  6 active torsions:
REMARK  status: ('A' for Active; 'I' for Inactive)
REMARK    1  A    between atoms: C2_2  and  C3_3 
REMARK    2  A    between atoms: C3_3  and  C4_4 
REMARK    3  A    between atoms: C4_4  and  C5_5 
REMARK    4  A    between atoms: C5_5  and  C25_28 
REMARK    5  A    between atoms: C8_8  and  C9_9 
REMARK    6  A    between atoms: N1_21  and  C21_24 
ROOT
ATOM      1  C5  <0> d          -3.026   4.001   2.526  0.00  0.00     0.226 C 
ATOM      2  C6  <0> d          -1.591   3.587   2.915  0.00  0.00     0.141 A 
ATOM      3  C7  <0> d          -1.710   2.100   3.347  0.00  0.00     0.130 A 
ATOM      4  C8  <0> d          -3.205   1.757   3.178  0.00  0.00     0.234 C 
ATOM      5  C19 <0> d          -0.909   1.366   2.295  0.00  0.00     0.234 A 
ATOM      6  O1  <0> d          -0.739   0.166   2.254  0.00  0.00    -0.272 OA
ATOM      7  N1  <0> d          -0.416   2.247   1.417  0.00  0.00    -0.279 N 
ATOM      8  C20 <0> d          -0.733   3.522   1.672  0.00  0.00     0.235 A 
ATOM      9  O2  <0> d          -0.387   4.476   1.008  0.00  0.00    -0.272 OA
ATOM     10  N2  <0> d          -3.680   2.734   2.199  0.00  0.00    -0.046 N 
ATOM     11  H29 <0> d          -3.425   2.438   1.250  0.00  0.00     0.279 HD
ATOM     12  H30 <0> d          -4.700   2.834   2.264  0.00  0.00     0.279 HD
ENDROOT
BRANCH   4  13
ATOM     13  C9  <0> d          -3.366   0.347   2.672  0.00  0.00    -0.026 A 
ATOM     14  C18 <0> d          -3.676  -0.648   3.547  0.00  0.00     0.021 A 
ATOM     15  C17 <0> d          -3.827  -1.964   3.078  0.00  0.00    -0.025 A 
ATOM     16  C12 <0> d          -3.654  -2.235   1.698  0.00  0.00    -0.026 A 
ATOM     17  C16 <0> d          -4.148  -3.018   3.951  0.00  0.00     0.012 A 
ATOM     18  C11 <0> d          -3.333  -1.181   0.825  0.00  0.00     0.013 A 
ATOM     19  C13 <0> d          -3.805  -3.551   1.229  0.00  0.00     0.012 A 
ATOM     20  C10 <0> d          -3.200   0.082   1.313  0.00  0.00     0.010 A 
ATOM     21  C14 <0> d          -4.116  -4.546   2.103  0.00  0.00     0.001 A 
ATOM     22  C15 <0> d          -4.287  -4.280   3.461  0.00  0.00     0.001 A 
ENDBRANCH   4  13
BRANCH   1  23
ATOM     23  C4  <0> d          -3.729   4.668   3.710  0.00  0.00     0.051 C 
BRANCH  23  24
ATOM     24  C3  <0> d          -5.205   4.884   3.370  0.00  0.00     0.003 C 
BRANCH  24  25
ATOM     25  C2  <0> d          -5.909   5.551   4.554  0.00  0.00    -0.004 C 
ATOM     26  C1  <0> d          -7.385   5.767   4.214  0.00  0.00     0.005 C 
ENDBRANCH  24  25
ENDBRANCH  23  24
ENDBRANCH   1  23
BRANCH   1  27
ATOM     27  C25 <0> d          -3.001   4.931   1.341  0.00  0.00     0.211 C 
ATOM     28  O3  <0> d          -3.061   6.126   1.508  0.00  0.00    -0.646 OA
ATOM     29  O4  <0> d          -2.911   4.431   0.098  0.00  0.00    -0.646 OA
ENDBRANCH   1  27
BRANCH   7  30
ATOM     30  C21 <0> d           0.408   1.849   0.273  0.00  0.00     0.032 C 
ATOM     31  C22 <0> d           0.584   0.329   0.275  0.00  0.00     0.038 C 
ATOM     32  C23 <0> d           1.778   2.521   0.373  0.00  0.00     0.038 C 
ATOM     33  C24 <0> d          -0.279   2.280  -1.025  0.00  0.00     0.038 C 
ENDBRANCH   7  30
TORSDOF 6
