REMARK  11 active torsions:
REMARK  status: ('A' for Active; 'I' for Inactive)
REMARK    1  A    between atoms: C2_2  and  C4_4 
REMARK    2  A    between atoms: C2_2  and  N1_11 
REMARK    3  A    between atoms: C4_4  and  N2_25 
REMARK    4  A    between atoms: C5_5  and  C6_6 
REMARK    5  A    between atoms: C5_5  and  N2_25 
REMARK    6  A    between atoms: C6_6  and  O1_7 
REMARK    7  A    between atoms: C7_8  and  C8_9 
REMARK    8  A    between atoms: C7_8  and  N2_25 
REMARK    9  A    between atoms: C8_9  and  O2_10 
REMARK   10  A    between atoms: N1_11  and  S1_12 
REMARK   11  A    between atoms: S1_12  and  C9_15 
ROOT
ATOM      1  C1  <0> d          -1.161   1.149   0.334  0.00  0.00     0.040 C 
ATOM      2  C2  <0> d          -0.898   1.320  -1.164  0.00  0.00     0.057 C 
ATOM      3  C3  <0> d           0.444   2.025  -1.369  0.00  0.00     0.040 C 
ENDROOT
BRANCH   2   4
ATOM      4  C4  <0> d          -2.015   2.161  -1.785  0.00  0.00     0.265 C 
BRANCH   4   5
ATOM      5  N2  <0> d          -3.294   1.435  -1.627  0.00  0.00    -0.065 N 
ATOM      6  H24 <0> d          -3.111   0.426  -1.659  0.00  0.00     0.280 HD
BRANCH   5   7
ATOM      7  C5  <0> d          -3.906   1.770  -0.324  0.00  0.00     0.261 C 
BRANCH   7   8
ATOM      8  C6  <0> d          -5.000   0.746  -0.018  0.00  0.00     0.192 C 
BRANCH   8   9
ATOM      9  O1  <0> d          -4.412  -0.548   0.135  0.00  0.00    -0.399 OA
ATOM     10  H13 <0> d          -5.049  -1.249   0.331  0.00  0.00     0.209 HD
ENDBRANCH   8   9
ENDBRANCH   7   8
ENDBRANCH   5   7
BRANCH   5  11
ATOM     11  C7  <0> d          -4.216   1.792  -2.725  0.00  0.00     0.261 C 
BRANCH  11  12
ATOM     12  C8  <0> d          -3.794   1.034  -3.985  0.00  0.00     0.192 C 
BRANCH  12  13
ATOM     13  O2  <0> d          -3.904  -0.372  -3.754  0.00  0.00    -0.399 OA
ATOM     14  H18 <0> d          -3.580  -0.917  -4.484  0.00  0.00     0.209 HD
ENDBRANCH  12  13
ENDBRANCH  11  12
ENDBRANCH   5  11
ENDBRANCH   4   5
ENDBRANCH   2   4
BRANCH   2  15
ATOM     15  N1  <0> d          -0.862   0.004  -1.806  0.00  0.00    -0.305 N 
ATOM     16  H19 <0> d          -1.639  -0.322  -2.287  0.00  0.00     0.173 HD
BRANCH  15  17
ATOM     17  S1  <0> d           0.505  -0.926  -1.713  0.00  0.00     0.259 S 
ATOM     18  O3  <0> d           0.187  -2.176  -2.308  0.00  0.00    -0.201 OA
ATOM     19  O4  <0> d           1.579  -0.116  -2.169  0.00  0.00    -0.201 OA
BRANCH  17  20
ATOM     20  C9  <0> d           0.803  -1.243  -0.005  0.00  0.00     0.079 A 
ATOM     21  C14 <0> d           0.131  -2.267   0.635  0.00  0.00     0.027 A 
ATOM     22  C13 <0> d           0.365  -2.516   1.975  0.00  0.00     0.025 A 
ATOM     23  C12 <0> d           1.272  -1.740   2.674  0.00  0.00     0.034 A 
ATOM     24  C11 <0> d           1.944  -0.715   2.033  0.00  0.00     0.025 A 
ATOM     25 Cl1  <0> d           1.565  -2.051   4.357  0.00  0.00    -0.084 Cl
ATOM     26  C10 <0> d           1.714  -0.470   0.692  0.00  0.00     0.027 A 
ENDBRANCH  17  20
ENDBRANCH  15  17
ENDBRANCH   2  15
TORSDOF 11
