REMARK  6 active torsions:
REMARK  status: ('A' for Active; 'I' for Inactive)
REMARK    1  A    between atoms: C2_2  and  C3_3 
REMARK    2  A    between atoms: C2_2  and  N4_24 
REMARK       I    between atoms: C3_3  and  N1_5 
REMARK    3  A    between atoms: N1_5  and  C5_7 
REMARK    4  A    between atoms: C5_7  and  C6_8 
REMARK       I    between atoms: C6_8  and  N2_10 
REMARK    5  A    between atoms: N2_10  and  C7_11 
REMARK    6  A    between atoms: C9_13  and  N3_18 
ROOT
ATOM      1  C6  <0> d          -4.462   0.376   0.033  0.00  0.00     0.240 C 
ATOM      2  O2  <0> d          -3.946   1.447   0.275  0.00  0.00    -0.271 OA
ATOM      3  N2  <0> d          -5.758   0.168   0.337  0.00  0.00    -0.323 N 
ATOM      4  H10 <0> d          -6.152  -0.709   0.205  0.00  0.00     0.169 HD
ENDROOT
BRANCH   3   5
ATOM      5  C7  <0> d          -6.535   1.216   0.844  0.00  0.00     0.075 A 
ATOM      6  C12 <0> d          -7.556   0.951   1.750  0.00  0.00     0.143 A 
ATOM      7  C11 <0> d          -8.320   1.988   2.255  0.00  0.00     0.047 A 
ATOM      8  F1  <0> d          -7.798  -0.319   2.142  0.00  0.00    -0.204 F 
ATOM      9  C10 <0> d          -8.079   3.287   1.851  0.00  0.00     0.033 A 
ATOM     10  C9  <0> d          -7.064   3.557   0.942  0.00  0.00     0.039 A 
ATOM     11  C8  <0> d          -6.292   2.520   0.438  0.00  0.00     0.062 A 
BRANCH  10  12
ATOM     12  N3  <0> d          -6.821   4.874   0.534  0.00  0.00    -0.318 N 
ATOM     13  C16 <0> d          -7.435   5.953   1.049  0.00  0.00     0.224 C 
ATOM     14  C15 <0> d          -6.934   7.210   0.371  0.00  0.00     0.105 C 
ATOM     15  O3  <0> d          -8.268   5.924   1.930  0.00  0.00    -0.273 OA
ATOM     16  C14 <0> d          -6.245   6.696  -0.914  0.00  0.00     0.029 C 
ATOM     17  C13 <0> d          -5.866   5.253  -0.514  0.00  0.00     0.133 C 
ENDBRANCH  10  12
ENDBRANCH   3   5
BRANCH   1  18
ATOM     18  C5  <0> d          -3.652  -0.722  -0.609  0.00  0.00     0.228 C 
BRANCH  18  19
ATOM     19  N1  <0> d          -2.284  -0.251  -0.837  0.00  0.00    -0.346 N 
ATOM     20  C3  <0> d          -1.345  -0.422   0.114  0.00  0.00     0.244 C 
ATOM     21  O1  <0> d          -1.615  -1.023   1.132  0.00  0.00    -0.271 OA
ATOM     22  C4  <0> d          -1.937   0.407  -2.099  0.00  0.00     0.153 C 
BRANCH  20  23
ATOM     23  C2  <0> d           0.041   0.134  -0.087  0.00  0.00     0.197 C 
ATOM     24  C1  <0> d           0.013   1.653   0.090  0.00  0.00     0.044 C 
BRANCH  23  25
ATOM     25  N4  <0> d           0.952  -0.455   0.898  0.00  0.00    -0.268 N 
ATOM     26  N5  <0> d           1.770  -1.574   0.697  0.00  0.00    -0.184 NA
ATOM     27  C19 <0> d           2.439  -1.794   1.800  0.00  0.00     0.140 A 
ATOM     28  C18 <0> d           2.060  -0.830   2.740  0.00  0.00     0.040 A 
ATOM     29  C17 <0> d           1.145  -0.019   2.160  0.00  0.00     0.114 A 
ENDBRANCH  23  25
ENDBRANCH  20  23
ENDBRANCH  18  19
ENDBRANCH   1  18
TORSDOF 6
