REMARK  5 active torsions:
REMARK  status: ('A' for Active; 'I' for Inactive)
REMARK    1  A    between atoms: C2_2  and  C4_4 
REMARK    2  A    between atoms: C4_4  and  C18_24 
REMARK    3  A    between atoms: C7_7  and  C8_9 
REMARK    4  A    between atoms: C11_12  and  O2_16 
REMARK    5  A    between atoms: C12_13  and  O1_15 
ROOT
ATOM      1  C4  <0> d           0.724  -0.502  -1.264  0.00  0.00     0.229 C 
ATOM      2  C5  <0> d           0.598  -2.028  -1.454  0.00  0.00     0.141 A 
ATOM      3  C6  <0> d          -0.645  -2.215  -2.365  0.00  0.00     0.129 A 
ATOM      4  C7  <0> d          -1.162  -0.785  -2.627  0.00  0.00     0.234 C 
ATOM      5  N1  <0> d           0.040   0.085  -2.444  0.00  0.00    -0.046 N 
ATOM      6  C15 <0> d          -0.063  -2.790  -3.636  0.00  0.00     0.233 A 
ATOM      7  O3  <0> d          -0.698  -3.089  -4.625  0.00  0.00    -0.272 OA
ATOM      8  N2  <0> d           1.262  -2.916  -3.500  0.00  0.00    -0.292 N 
ATOM      9  C16 <0> d           1.749  -2.521  -2.301  0.00  0.00     0.234 A 
ATOM     10  O4  <0> d           2.910  -2.551  -1.956  0.00  0.00    -0.272 OA
ATOM     11  C17 <0> d           2.120  -3.447  -4.563  0.00  0.00     0.162 C 
ATOM     12  H11 <0> d          -0.231   1.129  -2.230  0.00  0.00     0.279 HD
ATOM     13  H22 <0> d           0.714   0.052  -3.313  0.00  0.00     0.279 HD
ENDROOT
BRANCH   4  14
ATOM     14  C8  <0> d          -1.671  -0.661  -4.040  0.00  0.00    -0.024 A 
ATOM     15  C13 <0> d          -3.028  -0.729  -4.293  0.00  0.00     0.048 A 
ATOM     16  C12 <0> d          -3.497  -0.615  -5.592  0.00  0.00     0.099 A 
ATOM     17  C11 <0> d          -2.600  -0.433  -6.639  0.00  0.00     0.101 A 
ATOM     18  C10 <0> d          -1.240  -0.367  -6.379  0.00  0.00     0.040 A 
ATOM     19  C9  <0> d          -0.779  -0.475  -5.080  0.00  0.00     0.012 A 
BRANCH  16  20
ATOM     20  O1  <0> d          -4.832  -0.682  -5.842  0.00  0.00    -0.358 OA
ATOM     21  H15 <0> d          -5.541  -0.825  -5.013  0.00  0.00     0.217 HD
ENDBRANCH  16  20
BRANCH  17  22
ATOM     22  O2  <0> d          -3.055  -0.322  -7.916  0.00  0.00    -0.353 OA
ATOM     23  C14 <0> d          -2.076  -0.137  -8.940  0.00  0.00     0.210 C 
ENDBRANCH  17  22
ENDBRANCH   4  14
BRANCH   1  24
ATOM     24  C2  <0> d           0.029  -0.066   0.027  0.00  0.00     0.025 C 
ATOM     25  C1  <0> d           0.609  -0.847   1.208  0.00  0.00     0.012 C 
ATOM     26  C3  <0> d           0.254   1.432   0.246  0.00  0.00     0.012 C 
ENDBRANCH   1  24
BRANCH   1  27
ATOM     27  C18 <0> d           2.175  -0.094  -1.242  0.00  0.00     0.212 C 
ATOM     28  O5  <0> d           2.752   0.028  -0.188  0.00  0.00    -0.646 OA
ATOM     29  O6  <0> d           2.826   0.133  -2.394  0.00  0.00    -0.646 OA
ENDBRANCH   1  27
TORSDOF 5
