REMARK  4 active torsions:
REMARK  status: ('A' for Active; 'I' for Inactive)
REMARK    1  A    between atoms: C4_4  and  N2_19 
REMARK    2  A    between atoms: C7_7  and  S1_8 
REMARK    3  A    between atoms: S1_8  and  C8_9 
REMARK    4  A    between atoms: N1_13  and  C12_16 
ROOT
ATOM      1  S1  <0> d           0.026   0.168   2.732  0.00  0.00    -0.115 SA
ENDROOT
BRANCH   1   2
ATOM      2  C7  <0> d           0.023  -0.705   1.201  0.00  0.00     0.007 A 
ATOM      3  C2  <0> d           0.002  -0.004   0.002  0.00  0.00    -0.043 A 
ATOM      4  C1  <0> d          -0.018   1.503   0.010  0.00  0.00     0.049 C 
ATOM      5  C3  <0> d           0.006  -0.688  -1.198  0.00  0.00     0.037 A 
ATOM      6  C4  <0> d           0.024  -2.076  -1.205  0.00  0.00     0.026 A 
ATOM      7  C5  <0> d           0.039  -2.778  -0.006  0.00  0.00     0.030 A 
ATOM      8  C6  <0> d           0.035  -2.094   1.193  0.00  0.00     0.021 A 
BRANCH   6   9
ATOM      9  N2  <0> d           0.027  -2.770  -2.422  0.00  0.00    -0.399 N 
ATOM     10  H17 <0> d           0.017  -2.280  -3.259  0.00  0.00     0.156 HD
ATOM     11  H18 <0> d           0.040  -3.740  -2.427  0.00  0.00     0.156 HD
ENDBRANCH   6   9
ENDBRANCH   1   2
BRANCH   1  12
ATOM     12  C8  <0> d           0.056  -1.144   3.985  0.00  0.00     0.153 A 
ATOM     13  C11 <0> d          -1.252  -1.904   3.990  0.00  0.00     0.241 A 
ATOM     14  N1  <0> d          -1.834  -1.765   5.192  0.00  0.00    -0.283 N 
ATOM     15  O2  <0> d          -1.702  -2.536   3.058  0.00  0.00    -0.272 OA
ATOM     16  C10 <0> d          -1.141  -1.020   6.062  0.00  0.00     0.228 A 
ATOM     17  C9  <0> d           0.133  -0.540   5.401  0.00  0.00     0.128 A 
ATOM     18  O1  <0> d          -1.480  -0.768   7.198  0.00  0.00    -0.273 OA
BRANCH  14  19
ATOM     19  C12 <0> d          -3.120  -2.382   5.526  0.00  0.00     0.087 C 
ATOM     20  C13 <0> d          -2.938  -3.335   6.708  0.00  0.00     0.032 C 
ATOM     21  C14 <0> d          -4.126  -1.291   5.900  0.00  0.00     0.032 C 
ENDBRANCH  14  19
ENDBRANCH   1  12
TORSDOF 4
