REMARK  7 active torsions:
REMARK  status: ('A' for Active; 'I' for Inactive)
REMARK    1  A    between atoms: C3_3  and  C6_8 
REMARK    2  A    between atoms: C6_8  and  C7_9 
REMARK    3  A    between atoms: C7_9  and  N3_10 
REMARK       I    between atoms: N3_10  and  C9_12 
REMARK    4  A    between atoms: C9_12  and  C10_14 
REMARK    5  A    between atoms: C10_14  and  N4_15 
REMARK    6  A    between atoms: C11_16  and  C12_20 
REMARK    7  A    between atoms: C12_20  and  N8_21 
ROOT
ATOM      1  N4  <0> d          -4.662   2.799  -4.996  0.00  0.00    -0.197 NA
ATOM      2  C11 <0> d          -5.797   2.954  -5.944  0.00  0.00     0.201 C 
ATOM      3  N5  <0> d          -5.366   4.108  -6.777  0.00  0.00    -0.117 NA
ATOM      4  N6  <0> d          -4.684   4.997  -5.834  0.00  0.00     0.067 N 
ATOM      5  N7  <0> d          -4.240   4.173  -4.712  0.00  0.00    -0.065 NA
ATOM      6  H18 <0> d          -4.740   3.810  -7.511  0.00  0.00     0.157 HD
ATOM      7  H19 <0> d          -3.887   5.427  -6.281  0.00  0.00     0.324 HD
ATOM      8  H20 <0> d          -4.637   4.501  -3.844  0.00  0.00     0.175 HD
ATOM      9  H33 <0> d          -5.322   5.707  -5.508  0.00  0.00     0.324 HD
ENDROOT
BRANCH   1  10
ATOM     10  C10 <0> d          -5.091   2.116  -3.768  0.00  0.00     0.214 C 
BRANCH  10  11
ATOM     11  C9  <0> d          -3.916   1.971  -2.836  0.00  0.00     0.234 C 
ATOM     12  N3  <0> d          -4.074   1.371  -1.640  0.00  0.00    -0.355 N 
ATOM     13  C8  <0> d          -5.389   0.858  -1.246  0.00  0.00     0.152 C 
ATOM     14  O1  <0> d          -2.828   2.396  -3.163  0.00  0.00    -0.272 OA
BRANCH  12  15
ATOM     15  C7  <0> d          -2.931   1.230  -0.734  0.00  0.00     0.130 C 
BRANCH  15  16
ATOM     16  C6  <0> d          -2.216  -0.093  -1.017  0.00  0.00     0.058 C 
BRANCH  16  17
ATOM     17  C3  <0> d          -1.041  -0.237  -0.085  0.00  0.00    -0.026 A 
ATOM     18  C2  <0> d           0.364   0.312  -0.259  0.00  0.00     0.158 A 
ATOM     19  C1  <0> d           0.343   1.841  -0.323  0.00  0.00     0.041 C 
ATOM     20  N2  <0> d           1.057  -0.148   0.957  0.00  0.00    -0.183 NA
ATOM     21  N1  <0> d           0.240  -0.787   1.632  0.00  0.00    -0.160 NA
ATOM     22  C4  <0> d          -0.993  -0.877   1.085  0.00  0.00     0.057 A 
ATOM     23  C5  <0> d          -2.155  -1.603   1.712  0.00  0.00     0.072 C 
ENDBRANCH  16  17
ENDBRANCH  15  16
ENDBRANCH  12  15
ENDBRANCH  10  11
ENDBRANCH   1  10
BRANCH   2  24
ATOM     24  C12 <0> d          -5.968   1.696  -6.798  0.00  0.00     0.273 C 
BRANCH  24  25
ATOM     25  N8  <0> d          -7.185   1.817  -7.610  0.00  0.00    -0.064 N 
ATOM     26  C21 <0> d          -7.017   2.896  -8.588  0.00  0.00     0.274 C 
ATOM     27  C20 <0> d          -8.189   2.942  -9.533  0.00  0.00    -0.026 A 
ATOM     28  C15 <0> d          -9.037   1.866  -9.690  0.00  0.00    -0.049 A 
ATOM     29  C19 <0> d          -8.408   4.101 -10.262  0.00  0.00     0.009 A 
ATOM     30  C14 <0> d          -8.838   0.589  -8.913  0.00  0.00     0.067 C 
ATOM     31  C16 <0> d         -10.099   1.946 -10.577  0.00  0.00     0.007 A 
ATOM     32  C13 <0> d          -7.427   0.555  -8.326  0.00  0.00     0.240 C 
ATOM     33  C17 <0> d         -10.314   3.101 -11.303  0.00  0.00     0.001 A 
ATOM     34  C18 <0> d          -9.466   4.181 -11.144  0.00  0.00     0.001 A 
ATOM     35  H34 <0> d          -7.971   2.023  -7.012  0.00  0.00     0.280 HD
ENDBRANCH  24  25
ENDBRANCH   2  24
TORSDOF 7
