REMARK  4 active torsions:
REMARK  status: ('A' for Active; 'I' for Inactive)
REMARK    1  A    between atoms: C2_2  and  C3_3 
REMARK    2  A    between atoms: C2_2  and  N2_10 
REMARK    3  A    between atoms: C3_3  and  N1_4 
REMARK    4  A    between atoms: N2_10  and  C9_11 
ROOT
ATOM      1  N2  <0> d           0.688  -0.476  -1.203  0.00  0.00    -0.368 N 
ATOM      2  H17 <0> d           1.632  -0.695  -1.170  0.00  0.00     0.161 HD
ENDROOT
BRANCH   1   3
ATOM      3  C2  <0> d           0.002  -0.004   0.002  0.00  0.00     0.105 C 
ATOM      4  C1  <0> d          -0.019   1.526   0.010  0.00  0.00     0.034 C 
BRANCH   3   5
ATOM      5  C3  <0> d           0.742  -0.511   1.242  0.00  0.00     0.259 C 
BRANCH   5   6
ATOM      6  N1  <0> d           0.867  -1.973   1.174  0.00  0.00    -0.069 N 
ATOM      7  C8  <0> d           1.679  -2.446   2.301  0.00  0.00     0.235 C 
ATOM      8  C7  <0> d           1.880  -3.959   2.190  0.00  0.00     0.028 C 
ATOM      9  C6  <0> d           0.515  -4.653   2.216  0.00  0.00     0.003 C 
ATOM     10  C5  <0> d          -0.350  -4.098   1.081  0.00  0.00     0.028 C 
ATOM     11  C4  <0> d          -0.469  -2.580   1.233  0.00  0.00     0.235 C 
ATOM     12  H22 <0> d           1.313  -2.232   0.306  0.00  0.00     0.280 HD
ENDBRANCH   5   6
ENDBRANCH   3   5
ENDBRANCH   1   3
BRANCH   1  13
ATOM     13  C9  <0> d          -0.009  -0.611  -2.384  0.00  0.00     0.148 A 
ATOM     14  C11 <0> d           0.671  -1.085  -3.599  0.00  0.00     0.034 A 
ATOM     15  C10 <0> d          -0.199  -1.161  -4.697  0.00  0.00     0.095 A 
ATOM     16  C12 <0> d           2.007  -1.459  -3.808  0.00  0.00     0.017 A 
ATOM     17  S1  <0> d          -1.740  -0.609  -4.018  0.00  0.00     0.286 S 
ATOM     18  C15 <0> d           0.217  -1.580  -5.926  0.00  0.00     0.026 A 
ATOM     19  N3  <0> d          -1.269  -0.317  -2.438  0.00  0.00    -0.141 NA
ATOM     20  O1  <0> d          -2.052   0.642  -4.615  0.00  0.00    -0.198 OA
ATOM     21  O2  <0> d          -2.630  -1.716  -4.006  0.00  0.00    -0.198 OA
ATOM     22  C14 <0> d           1.545  -1.937  -6.117  0.00  0.00     0.002 A 
ATOM     23  C13 <0> d           2.426  -1.877  -5.052  0.00  0.00     0.001 A 
ENDBRANCH   1  13
TORSDOF 4
