REMARK  3 active torsions:
REMARK  status: ('A' for Active; 'I' for Inactive)
REMARK    1  A    between atoms: C5_6  and  C8_10 
REMARK    2  A    between atoms: C8_10  and  S1_11 
REMARK    3  A    between atoms: S1_11  and  C9_12 
ROOT
ATOM      1  C8  <0> d           3.542  -2.787  -1.302  0.00  0.00     0.124 C 
ENDROOT
BRANCH   1   2
ATOM      2  C5  <0> d           3.071  -2.062  -0.039  0.00  0.00     0.191 A 
ATOM      3  N1  <0> d           3.569  -0.680  -0.036  0.00  0.00    -0.366 N 
ATOM      4  C4  <0> d           2.533   0.108  -0.022  0.00  0.00     0.056 A 
ATOM      5  H13 <0> d           4.499  -0.405  -0.045  0.00  0.00     0.162 HD
ATOM      6  C3  <0> d           2.389   1.570  -0.013  0.00  0.00     0.031 A 
ATOM      7  C6  <0> d           1.290  -0.712  -0.014  0.00  0.00     0.056 A 
ATOM      8  C2  <0> d           1.158   2.118   0.002  0.00  0.00     0.002 A 
ATOM      9  C1  <0> d          -0.016   1.344   0.009  0.00  0.00     0.002 A 
ATOM     10  C7  <0> d           0.002  -0.004   0.002  0.00  0.00     0.031 A 
ATOM     11  N2  <0> d           1.606  -1.974  -0.024  0.00  0.00    -0.366 N 
ATOM     12  H14 <0> d           0.987  -2.721  -0.022  0.00  0.00     0.162 HD
ENDBRANCH   1   2
BRANCH   1  13
ATOM     13  S1  <0> d           2.908  -1.923  -2.766  0.00  0.00    -0.108 SA
BRANCH  13  14
ATOM     14  C9  <0> d           3.546  -2.895  -4.159  0.00  0.00     0.408 C 
ATOM     15  N4  <0> d           5.009  -2.945  -4.101  0.00  0.00    -0.244 NA
ATOM     16  C11 <0> d           5.420  -4.145  -3.942  0.00  0.00     0.088 C 
ATOM     17  C10 <0> d           4.239  -5.089  -3.791  0.00  0.00     0.397 C 
ATOM     18  C12 <0> d           6.792  -4.689  -3.993  0.00  0.00     0.056 C 
ATOM     19  N3  <0> d           3.047  -4.283  -4.071  0.00  0.00     0.148 N 
ATOM     20  N5  <0> d           4.424  -6.189  -4.735  0.00  0.00    -0.259 NA
ATOM     21  H10 <0> d           2.365  -4.377  -3.333  0.00  0.00     0.323 HD
ATOM     22  C14 <0> d           5.631  -6.542  -5.088  0.00  0.00     0.137 C 
ATOM     23  C13 <0> d           6.856  -5.931  -4.564  0.00  0.00     0.053 C 
ATOM     24 Cl1  <0> d           8.370  -6.773  -4.667  0.00  0.00    -0.083 Cl
ENDBRANCH  13  14
ENDBRANCH   1  13
TORSDOF 3
