REMARK  4 active torsions:
REMARK  status: ('A' for Active; 'I' for Inactive)
REMARK    1  A    between atoms: C2_2  and  C3_3 
REMARK    2  A    between atoms: C2_2  and  N1_9 
REMARK    3  A    between atoms: N1_9  and  C7_10 
REMARK    4  A    between atoms: C7_10  and  C10_13 
REMARK       I    between atoms: C10_13  and  N2_15 
ROOT
ATOM      1  N1  <0> d           0.740  -0.683  -1.222  0.00  0.00    -0.050 N 
ATOM      2  H7  <0> d           0.681  -1.690  -1.255  0.00  0.00     0.279 HD
ATOM      3  H16 <0> d           0.384  -0.298  -2.084  0.00  0.00     0.279 HD
ENDROOT
BRANCH   1   4
ATOM      4  C2  <0> d          -0.058  -0.182  -0.095  0.00  0.00     0.223 C 
ATOM      5  C1  <0> d          -1.546  -0.366  -0.402  0.00  0.00     0.046 C 
BRANCH   4   6
ATOM      6  C3  <0> d           0.296  -0.950   1.152  0.00  0.00     0.014 A 
ATOM      7  S1  <0> d           0.624  -2.695   1.343  0.00  0.00    -0.085 SA
ATOM      8  C6  <0> d           0.945  -2.700   3.099  0.00  0.00     0.051 A 
ATOM      9  C5  <0> d           0.775  -1.393   3.419  0.00  0.00     0.028 A 
ATOM     10 Br1  <0> d           1.396  -4.153   4.223  0.00  0.00    -0.043 Br
ATOM     11  C4  <0> d           0.443  -0.497   2.421  0.00  0.00     0.018 A 
ENDBRANCH   4   6
ENDBRANCH   1   4
BRANCH   1  12
ATOM     12  C7  <0> d           2.142  -0.280  -1.047  0.00  0.00     0.198 C 
ATOM     13  C8  <0> d           2.725  -0.983   0.180  0.00  0.00     0.056 C 
ATOM     14  C9  <0> d           2.944  -0.673  -2.289  0.00  0.00     0.056 C 
BRANCH  12  15
ATOM     15  C10 <0> d           2.215   1.212  -0.853  0.00  0.00     0.251 C 
ATOM     16  O1  <0> d           3.047   1.687  -0.110  0.00  0.00    -0.271 OA
ATOM     17  N2  <0> d           1.355   2.020  -1.505  0.00  0.00    -0.368 N 
ATOM     18  H14 <0> d           0.689   1.640  -2.099  0.00  0.00     0.159 HD
ATOM     19  H15 <0> d           1.402   2.980  -1.380  0.00  0.00     0.159 HD
ENDBRANCH  12  15
ENDBRANCH   1  12
TORSDOF 4
