REMARK  6 active torsions:
REMARK  status: ('A' for Active; 'I' for Inactive)
REMARK    1  A    between atoms: C8_9  and  N2_11 
REMARK    2  A    between atoms: N3_14  and  C14_17 
REMARK    3  A    between atoms: C14_17  and  C15_18 
REMARK    4  A    between atoms: C15_18  and  C16_19 
REMARK    5  A    between atoms: C19_22  and  C22_25 
REMARK    6  A    between atoms: C26_29  and  N5_31 
ROOT
ATOM      1  C14 <0> d           3.173  -5.778  -0.054  0.00  0.00     0.239 C 
ENDROOT
BRANCH   1   2
ATOM      2  N3  <0> d           2.162  -4.712  -0.042  0.00  0.00    -0.068 N 
ATOM      3  C11 <0> d           2.331  -3.892   1.164  0.00  0.00     0.254 C 
ATOM      4  C10 <0> d           1.208  -2.852   1.235  0.00  0.00     0.150 C 
ATOM      5  N2  <0> d           1.200  -2.088  -0.022  0.00  0.00    -0.376 N 
ATOM      6  C13 <0> d           1.190  -2.837  -1.288  0.00  0.00     0.150 C 
ATOM      7  C12 <0> d           2.320  -3.878  -1.240  0.00  0.00     0.254 C 
ATOM      8  H28 <0> d           1.242  -5.125  -0.040  0.00  0.00     0.280 HD
BRANCH   5   9
ATOM      9  C8  <0> d           1.195  -0.694  -0.013  0.00  0.00     0.060 A 
ATOM     10  C7  <0> d           2.412   0.022  -0.021  0.00  0.00     0.093 A 
ATOM     11  C3  <0> d           2.377   1.438  -0.013  0.00  0.00    -0.005 A 
ATOM     12  N1  <0> d           3.586  -0.615  -0.035  0.00  0.00    -0.258 NA
ATOM     13  C2  <0> d           1.141   2.104   0.003  0.00  0.00     0.014 A 
ATOM     14  C4  <0> d           3.592   2.150  -0.020  0.00  0.00     0.015 A 
ATOM     15  C1  <0> d          -0.017   1.387   0.010  0.00  0.00     0.003 A 
ATOM     16  C9  <0> d           0.002  -0.004   0.002  0.00  0.00     0.032 A 
ATOM     17  C5  <0> d           4.757   1.437  -0.035  0.00  0.00     0.020 A 
ATOM     18  C6  <0> d           4.719   0.044  -0.042  0.00  0.00     0.117 A 
ENDBRANCH   5   9
ENDBRANCH   1   2
BRANCH   1  19
ATOM     19  C15 <0> d           2.921  -6.707  -1.243  0.00  0.00     0.066 C 
BRANCH  19  20
ATOM     20  C16 <0> d           3.958  -7.800  -1.255  0.00  0.00    -0.057 A 
ATOM     21  C21 <0> d           3.721  -8.982  -0.577  0.00  0.00     0.008 A 
ATOM     22  C20 <0> d           4.665  -9.989  -0.589  0.00  0.00     0.014 A 
ATOM     23  C19 <0> d           5.863  -9.809  -1.276  0.00  0.00    -0.009 A 
ATOM     24  C18 <0> d           6.099  -8.614  -1.953  0.00  0.00     0.014 A 
ATOM     25  C17 <0> d           5.146  -7.616  -1.939  0.00  0.00     0.008 A 
BRANCH  23  26
ATOM     26  C22 <0> d           6.884 -10.886  -1.288  0.00  0.00     0.043 A 
ATOM     27  N4  <0> d           6.650 -12.021  -0.640  0.00  0.00    -0.342 N 
ATOM     28  C26 <0> d           7.532 -13.006  -0.631  0.00  0.00     0.099 A 
ATOM     29  H29 <0> d           5.811 -12.131  -0.166  0.00  0.00     0.167 HD
ATOM     30  C25 <0> d           8.748 -12.878  -1.296  0.00  0.00     0.048 A 
ATOM     31  C24 <0> d           9.027 -11.706  -1.978  0.00  0.00     0.006 A 
ATOM     32  C23 <0> d           8.080 -10.694  -1.973  0.00  0.00     0.030 A 
BRANCH  28  33
ATOM     33  N5  <0> d           7.245 -14.180   0.055  0.00  0.00    -0.385 N 
ATOM     34  H26 <0> d           7.889 -14.905   0.068  0.00  0.00     0.157 HD
ATOM     35  H27 <0> d           6.399 -14.275   0.520  0.00  0.00     0.157 HD
ENDBRANCH  28  33
ENDBRANCH  23  26
ENDBRANCH  19  20
ENDBRANCH   1  19
TORSDOF 6
