REMARK  5 active torsions:
REMARK  status: ('A' for Active; 'I' for Inactive)
REMARK    1  A    between atoms: C3_3  and  C6_8 
REMARK    2  A    between atoms: C6_8  and  N2_10 
REMARK       I    between atoms: N2_10  and  C8_11 
REMARK    3  A    between atoms: C8_11  and  C9_13 
REMARK    4  A    between atoms: C9_13  and  N3_14 
REMARK    5  A    between atoms: N3_14  and  S2_16 
ROOT
ATOM      1  N2  <0> d          -0.978  -0.991  -3.359  0.00  0.00    -0.351 N 
ATOM      2  C8  <0> d          -1.540  -0.459  -4.462  0.00  0.00     0.236 C 
ATOM      3  O1  <0> d          -1.243   0.664  -4.813  0.00  0.00    -0.272 OA
ATOM      4  H11 <0> d          -1.216  -1.889  -3.079  0.00  0.00     0.163 HD
ENDROOT
BRANCH   1   5
ATOM      5  C6  <0> d          -0.008  -0.215  -2.583  0.00  0.00     0.122 C 
ATOM      6  C7  <0> d           1.384  -0.381  -3.194  0.00  0.00     0.038 C 
BRANCH   5   7
ATOM      7  C3  <0> d           0.006  -0.708  -1.159  0.00  0.00     0.031 A 
ATOM      8  C2  <0> d           0.002  -0.004   0.002  0.00  0.00     0.046 A 
ATOM      9  C1  <0> d          -0.018   1.503   0.010  0.00  0.00     0.071 C 
ATOM     10  N1  <0> d           0.023  -0.699   1.122  0.00  0.00    -0.250 NA
ATOM     11  C4  <0> d           0.036  -2.009   1.111  0.00  0.00     0.072 A 
ATOM     12  S1  <0> d           0.032  -2.379  -0.531  0.00  0.00    -0.076 SA
ATOM     13  C5  <0> d           0.055  -2.955   2.284  0.00  0.00     0.078 C 
ENDBRANCH   5   7
ENDBRANCH   1   5
BRANCH   2  14
ATOM     14  C9  <0> d          -2.538  -1.258  -5.261  0.00  0.00     0.237 C 
BRANCH  14  15
ATOM     15  N3  <0> d          -2.998  -0.463  -6.402  0.00  0.00    -0.307 N 
ATOM     16  C10 <0> d          -2.224  -0.451  -7.646  0.00  0.00     0.163 C 
BRANCH  15  17
ATOM     17  S2  <0> d          -4.393   0.421  -6.287  0.00  0.00     0.224 S 
ATOM     18  O2  <0> d          -4.862   0.535  -7.623  0.00  0.00    -0.206 OA
ATOM     19  O3  <0> d          -5.168  -0.250  -5.302  0.00  0.00    -0.206 OA
ATOM     20  C11 <0> d          -3.867   2.044  -5.669  0.00  0.00     0.186 C 
ENDBRANCH  15  17
ENDBRANCH  14  15
ENDBRANCH   2  14
TORSDOF 5
