REMARK  5 active torsions:
REMARK  status: ('A' for Active; 'I' for Inactive)
REMARK    1  A    between atoms: C5_5  and  C6_7 
REMARK    2  A    between atoms: N1_8  and  N2_9 
REMARK       I    between atoms: N2_9  and  C7_10 
REMARK    3  A    between atoms: C7_10  and  C8_12 
REMARK    4  A    between atoms: C8_12  and  N3_13 
REMARK       I    between atoms: N3_13  and  C9_14 
REMARK    5  A    between atoms: C9_14  and  C10_16 
ROOT
ATOM      1  N2  <0> d          -3.540   2.451   0.033  0.00  0.00    -0.246 N 
ATOM      2  C7  <0> d          -4.763   1.886   0.037  0.00  0.00     0.255 C 
ATOM      3  O2  <0> d          -4.873   0.677   0.031  0.00  0.00    -0.270 OA
ATOM      4  H7  <0> d          -3.452   3.417   0.038  0.00  0.00     0.192 HD
ENDROOT
BRANCH   2   5
ATOM      5  C8  <0> d          -5.995   2.754   0.048  0.00  0.00     0.227 C 
BRANCH   5   6
ATOM      6  N3  <0> d          -7.190   1.907   0.050  0.00  0.00    -0.348 N 
ATOM      7  C9  <0> d          -8.415   2.470   0.059  0.00  0.00     0.253 C 
ATOM      8  O3  <0> d          -8.527   3.680   0.066  0.00  0.00    -0.268 OA
ATOM      9  H10 <0> d          -7.100   0.941   0.044  0.00  0.00     0.163 HD
BRANCH   7  10
ATOM     10  C10 <0> d          -9.620   1.615   0.061  0.00  0.00     0.049 A 
ATOM     11  C15 <0> d         -10.891   2.195   0.070  0.00  0.00     0.026 A 
ATOM     12  C14 <0> d         -12.013   1.389   0.072  0.00  0.00     0.020 A 
ATOM     13 Br1  <0> d         -11.074   4.077   0.081  0.00  0.00    -0.050 Br
ATOM     14  C13 <0> d         -11.880   0.013   0.064  0.00  0.00     0.001 A 
ATOM     15  C12 <0> d         -10.623  -0.567   0.054  0.00  0.00     0.001 A 
ATOM     16  C11 <0> d          -9.494   0.225   0.047  0.00  0.00     0.018 A 
ENDBRANCH   7  10
ENDBRANCH   5   6
ENDBRANCH   2   5
BRANCH   1  17
ATOM     17  N1  <0> d          -2.395   1.643   0.023  0.00  0.00    -0.182 NA
ATOM     18  C6  <0> d          -1.214   2.189   0.020  0.00  0.00     0.175 C 
BRANCH  18  19
ATOM     19  C5  <0> d          -0.016   1.344   0.009  0.00  0.00     0.094 A 
ATOM     20  C4  <0> d           1.276   1.784  -0.001  0.00  0.00     0.041 A 
ATOM     21  C3  <0> d           2.093   0.639  -0.015  0.00  0.00     0.035 A 
ATOM     22  C2  <0> d           1.274  -0.433  -0.012  0.00  0.00     0.050 A 
ATOM     23  C1  <0> d           1.715  -1.874  -0.025  0.00  0.00     0.076 C 
ATOM     24  O1  <0> d           0.002  -0.004   0.002  0.00  0.00    -0.314 OA
ENDBRANCH  18  19
ENDBRANCH   1  17
TORSDOF 5
