REMARK  8 active torsions:
REMARK  status: ('A' for Active; 'I' for Inactive)
REMARK    1  A    between atoms: C2_2  and  C3_3 
REMARK    2  A    between atoms: C2_2  and  N2_21 
REMARK    3  A    between atoms: C3_3  and  C4_4 
REMARK    4  A    between atoms: C9_9  and  O1_10 
REMARK    5  A    between atoms: O1_10  and  C10_11 
REMARK    6  A    between atoms: C10_11  and  C12_13 
REMARK       I    between atoms: C12_13  and  N1_15 
REMARK    7  A    between atoms: N1_15  and  C13_16 
REMARK    8  A    between atoms: C13_16  and  C14_17 
ROOT
ATOM      1  C4  <0> d           0.761  -2.030   0.989  0.00  0.00    -0.021 A 
ATOM      2  C5  <0> d          -0.276  -2.832   1.425  0.00  0.00     0.029 A 
ATOM      3  C6  <0> d          -0.257  -4.191   1.165  0.00  0.00     0.011 A 
ATOM      4  C7  <0> d           0.800  -4.749   0.468  0.00  0.00     0.022 A 
ATOM      5  C8  <0> d           1.839  -3.950   0.030  0.00  0.00     0.039 A 
ATOM      6  C9  <0> d           1.819  -2.586   0.285  0.00  0.00     0.076 A 
ATOM      7 Br1  <0> d          -1.677  -5.287   1.764  0.00  0.00    -0.051 Br
ENDROOT
BRANCH   6   8
ATOM      8  O1  <0> d           2.837  -1.798  -0.149  0.00  0.00    -0.336 OA
BRANCH   8   9
ATOM      9  C10 <0> d           3.952  -2.454  -0.757  0.00  0.00     0.216 C 
ATOM     10  C11 <0> d           3.658  -2.691  -2.239  0.00  0.00     0.050 C 
BRANCH   9  11
ATOM     11  C12 <0> d           5.179  -1.589  -0.619  0.00  0.00     0.246 C 
ATOM     12  O2  <0> d           5.106  -0.517  -0.057  0.00  0.00    -0.271 OA
ATOM     13  N1  <0> d           6.357  -2.008  -1.122  0.00  0.00    -0.359 N 
ATOM     14  H14 <0> d           6.416  -2.865  -1.571  0.00  0.00     0.162 HD
BRANCH  13  15
ATOM     15  C13 <0> d           7.550  -1.168  -0.988  0.00  0.00     0.126 C 
BRANCH  15  16
ATOM     16  C14 <0> d           8.744  -1.870  -1.639  0.00  0.00    -0.005 C 
ATOM     17  C15 <0> d           8.503  -1.996  -3.144  0.00  0.00     0.011 C 
ATOM     18  C16 <0> d          10.013  -1.053  -1.391  0.00  0.00     0.011 C 
ENDBRANCH  15  16
ENDBRANCH  13  15
ENDBRANCH   9  11
ENDBRANCH   8   9
ENDBRANCH   6   8
BRANCH   1  19
ATOM     19  C3  <0> d           0.739  -0.550   1.272  0.00  0.00     0.074 C 
BRANCH  19  20
ATOM     20  C2  <0> d           0.140   0.190   0.074  0.00  0.00     0.183 C 
ATOM     21  C1  <0> d           0.232   1.699   0.309  0.00  0.00     0.040 C 
BRANCH  20  22
ATOM     22  N2  <0> d          -1.269  -0.196  -0.085  0.00  0.00    -0.075 N 
ATOM     23  H24 <0> d          -1.664   0.292  -0.874  0.00  0.00     0.274 HD
ATOM     24  H25 <0> d          -1.329  -1.191  -0.239  0.00  0.00     0.274 HD
ATOM     25  H26 <0> d          -1.780   0.047   0.751  0.00  0.00     0.274 HD
ENDBRANCH  20  22
ENDBRANCH  19  20
ENDBRANCH   1  19
TORSDOF 8
