REMARK  8 active torsions:
REMARK  status: ('A' for Active; 'I' for Inactive)
REMARK    1  A    between atoms: C2_2  and  C3_3 
REMARK    2  A    between atoms: C3_3  and  N1_4 
REMARK    3  A    between atoms: C4_5  and  C6_10 
REMARK    4  A    between atoms: C6_10  and  C7_11 
REMARK    5  A    between atoms: C8_13  and  N5_16 
REMARK       I    between atoms: N5_16  and  C10_17 
REMARK    6  A    between atoms: C10_17  and  C11_19 
REMARK    7  A    between atoms: C11_19  and  N6_20 
REMARK       I    between atoms: N6_20  and  C12_21 
REMARK    8  A    between atoms: C12_21  and  C13_23 
ROOT
ATOM      1  C7  <0> d           1.286   0.724   3.439  0.00  0.00     0.026 C 
ATOM      2  N4  <0> d           0.102   0.304   3.446  0.00  0.00    -0.261 NA
ATOM      3  C8  <0> d          -0.986   1.135   4.000  0.00  0.00     0.272 C 
ATOM      4  S2  <0> d          -0.011   2.415   4.908  0.00  0.00    -0.116 SA
ATOM      5  C9  <0> d           1.576   2.102   4.019  0.00  0.00     0.132 C 
ENDROOT
BRANCH   3   6
ATOM      6  N5  <0> d          -1.829   0.363   4.915  0.00  0.00    -0.328 N 
ATOM      7  C10 <0> d          -3.034   0.839   5.286  0.00  0.00     0.237 C 
ATOM      8  O1  <0> d          -3.421   1.907   4.861  0.00  0.00    -0.272 OA
ATOM      9  H11 <0> d          -1.520  -0.492   5.255  0.00  0.00     0.165 HD
BRANCH   7  10
ATOM     10  C11 <0> d          -3.901   0.044   6.228  0.00  0.00     0.225 C 
BRANCH  10  11
ATOM     11  N6  <0> d          -5.150   0.771   6.473  0.00  0.00    -0.348 N 
ATOM     12  C12 <0> d          -6.085   0.247   7.291  0.00  0.00     0.252 C 
ATOM     13  O2  <0> d          -5.892  -0.828   7.824  0.00  0.00    -0.268 OA
ATOM     14  H14 <0> d          -5.303   1.629   6.047  0.00  0.00     0.163 HD
BRANCH  12  15
ATOM     15  C13 <0> d          -7.344   0.981   7.538  0.00  0.00     0.032 A 
ATOM     16  C18 <0> d          -8.315   0.441   8.384  0.00  0.00     0.017 A 
ATOM     17  C17 <0> d          -9.486   1.134   8.615  0.00  0.00     0.001 A 
ATOM     18  C16 <0> d          -9.704   2.354   8.001  0.00  0.00     0.000 A 
ATOM     19  C15 <0> d          -8.749   2.891   7.157  0.00  0.00     0.001 A 
ATOM     20  C14 <0> d          -7.571   2.212   6.922  0.00  0.00     0.017 A 
ENDBRANCH  12  15
ENDBRANCH  10  11
ENDBRANCH   7  10
ENDBRANCH   3   6
BRANCH   1  21
ATOM     21  C6  <0> d           2.398  -0.122   2.874  0.00  0.00     0.136 C 
BRANCH  21  22
ATOM     22  C4  <0> d           1.833  -1.425   2.373  0.00  0.00     0.136 A 
ATOM     23  N1  <0> d           1.367  -1.676   1.111  0.00  0.00    -0.307 N 
ATOM     24  C5  <0> d           0.954  -2.977   1.121  0.00  0.00     0.202 A 
ATOM     25  N3  <0> d           1.181  -3.444   2.327  0.00  0.00    -0.122 NA
ATOM     26  S1  <0> d           0.251  -3.863  -0.230  0.00  0.00    -0.009 SA
ATOM     27  N2  <0> d           1.697  -2.523   3.061  0.00  0.00    -0.134 NA
BRANCH  23  28
ATOM     28  C3  <0> d           1.317  -0.740  -0.015  0.00  0.00     0.159 C 
BRANCH  28  29
ATOM     29  C2  <0> d           0.002  -0.004   0.002  0.00  0.00    -0.017 C 
ATOM     30  C1  <0> d          -0.016   1.306   0.009  0.00  0.00     0.008 C 
ENDBRANCH  28  29
ENDBRANCH  23  28
ENDBRANCH  21  22
ENDBRANCH   1  21
TORSDOF 8
