REMARK  4 active torsions:
REMARK  status: ('A' for Active; 'I' for Inactive)
REMARK    1  A    between atoms: C5_6  and  C12_15 
REMARK    2  A    between atoms: N2_8  and  C6_9 
REMARK       I    between atoms: C12_15  and  N3_17 
REMARK    3  A    between atoms: N3_17  and  C13_18 
REMARK    4  A    between atoms: C13_18  and  C14_19 
ROOT
ATOM      1  C1  <0> d           0.045   1.503   0.005  0.00  0.00     0.070 C 
ATOM      2  C2  <0> d           0.033  -0.004  -0.001  0.00  0.00     0.036 A 
ATOM      3  C3  <0> d          -0.065  -0.668  -1.177  0.00  0.00     0.084 A 
ATOM      4  C4  <0> d          -0.073  -2.086  -1.139  0.00  0.00     0.209 A 
ATOM      5  O1  <0> d          -0.158  -2.750  -2.160  0.00  0.00    -0.286 OA
ATOM      6  C5  <0> d           0.026  -2.724   0.184  0.00  0.00     0.194 A 
ATOM      7  N1  <0> d           0.116  -1.958   1.251  0.00  0.00    -0.158 NA
ATOM      8  N2  <0> d           0.125  -0.678   1.172  0.00  0.00    -0.238 N 
ENDROOT
BRANCH   6   9
ATOM      9  C12 <0> d           0.023  -4.195   0.312  0.00  0.00     0.276 C 
ATOM     10  O2  <0> d          -0.061  -4.891  -0.681  0.00  0.00    -0.266 OA
ATOM     11  N3  <0> d           0.115  -4.765   1.529  0.00  0.00    -0.354 N 
ATOM     12  H11 <0> d           0.181  -4.210   2.322  0.00  0.00     0.162 HD
BRANCH  11  13
ATOM     13  C13 <0> d           0.112  -6.225   1.656  0.00  0.00     0.141 C 
BRANCH  13  14
ATOM     14  C14 <0> d           0.225  -6.608   3.133  0.00  0.00     0.126 A 
ATOM     15  C18 <0> d           1.542  -6.071   3.658  0.00  0.00     0.253 A 
ATOM     16  N4  <0> d           2.417  -6.939   4.181  0.00  0.00    -0.219 NA
ATOM     17  O3  <0> d           1.797  -4.885   3.605  0.00  0.00    -0.270 OA
ATOM     18  C17 <0> d           2.178  -8.220   4.254  0.00  0.00     0.034 A 
ATOM     19  C16 <0> d           0.994  -8.830   3.800  0.00  0.00     0.030 A 
ATOM     20  C19 <0> d           3.237  -9.101   4.864  0.00  0.00     0.070 C 
ATOM     21  C15 <0> d           0.009  -8.105   3.247  0.00  0.00    -0.067 A 
ATOM     22  C20 <0> d          -1.262  -8.752   2.760  0.00  0.00     0.044 C 
ENDBRANCH  13  14
ENDBRANCH  11  13
ENDBRANCH   6   9
BRANCH   8  23
ATOM     23  C6  <0> d           0.230   0.059   2.356  0.00  0.00     0.058 A 
ATOM     24  C11 <0> d           1.218   1.026   2.489  0.00  0.00     0.031 A 
ATOM     25  C10 <0> d           1.315   1.757   3.657  0.00  0.00     0.002 A 
ATOM     26  C9  <0> d           0.436   1.518   4.698  0.00  0.00     0.000 A 
ATOM     27  C8  <0> d          -0.546   0.553   4.571  0.00  0.00     0.002 A 
ATOM     28  C7  <0> d          -0.651  -0.177   3.404  0.00  0.00     0.031 A 
ENDBRANCH   8  23
TORSDOF 4
