REMARK  4 active torsions:
REMARK  status: ('A' for Active; 'I' for Inactive)
REMARK    1  A    between atoms: C3_3  and  S2_9 
REMARK    2  A    between atoms: S2_9  and  N2_12 
REMARK    3  A    between atoms: N2_12  and  C5_13 
REMARK    4  A    between atoms: N2_12  and  C8_16 
ROOT
ATOM      1  C5  <0> d          -4.109  -1.781  -1.697  0.00  0.00     0.228 C 
ATOM      2  C6  <0> d          -5.558  -1.625  -1.493  0.00  0.00    -0.097 C 
ATOM      3  C7  <0> d          -6.714  -1.501  -1.331  0.00  0.00     0.014 C 
ENDROOT
BRANCH   1   4
ATOM      4  N2  <0> d          -3.443  -0.496  -1.469  0.00  0.00    -0.290 N 
BRANCH   4   5
ATOM      5  S2  <0> d          -2.797  -0.150   0.016  0.00  0.00     0.270 S 
ATOM      6  O2  <0> d          -3.492  -0.955   0.959  0.00  0.00    -0.200 OA
ATOM      7  O3  <0> d          -2.745   1.266   0.116  0.00  0.00    -0.200 OA
BRANCH   5   8
ATOM      8  C3  <0> d          -1.129  -0.716   0.004  0.00  0.00     0.147 A 
ATOM      9  C2  <0> d           0.002  -0.004   0.002  0.00  0.00     0.039 A 
ATOM     10  C1  <0> d          -0.018   1.503   0.010  0.00  0.00     0.070 C 
ATOM     11  N1  <0> d           1.176  -0.699  -0.013  0.00  0.00    -0.320 N 
ATOM     12  C4  <0> d           1.138  -2.048  -0.015  0.00  0.00     0.289 A 
ATOM     13  H1  <0> d           2.025  -0.230  -0.020  0.00  0.00     0.169 HD
ATOM     14  S1  <0> d          -0.508  -2.388  -0.008  0.00  0.00    -0.013 SA
ATOM     15  O1  <0> d           2.072  -2.830  -0.024  0.00  0.00    -0.260 OA
ENDBRANCH   5   8
ENDBRANCH   4   5
BRANCH   4  16
ATOM     16  C8  <0> d          -3.348   0.482  -2.555  0.00  0.00     0.111 C 
ATOM     17  C11 <0> d          -2.566  -0.134  -3.750  0.00  0.00     0.166 C 
ATOM     18  S3  <0> d          -3.106   0.977  -5.116  0.00  0.00     0.146 S 
ATOM     19  C10 <0> d          -4.665   1.624  -4.384  0.00  0.00     0.142 C 
ATOM     20  O4  <0> d          -2.176   2.045  -5.240  0.00  0.00    -0.228 OA
ATOM     21  O5  <0> d          -3.423   0.190  -6.256  0.00  0.00    -0.228 OA
ATOM     22  C9  <0> d          -4.757   0.852  -3.046  0.00  0.00     0.042 C 
ENDBRANCH   4  16
ENDBRANCH   1   4
TORSDOF 4
