REMARK  6 active torsions:
REMARK  status: ('A' for Active; 'I' for Inactive)
REMARK    1  A    between atoms: C6_6  and  O1_9 
REMARK    2  A    between atoms: O1_9  and  C9_10 
REMARK    3  A    between atoms: C9_10  and  C10_11 
REMARK       I    between atoms: C10_11  and  N1_13 
REMARK    4  A    between atoms: N1_13  and  N2_14 
REMARK    5  A    between atoms: C11_15  and  C12_16 
REMARK    6  A    between atoms: C15_19  and  O3_23 
ROOT
ATOM      1  C10 <0> d           3.434   6.308   0.002  0.00  0.00     0.261 C 
ATOM      2  O2  <0> d           4.491   5.712  -0.011  0.00  0.00    -0.269 OA
ATOM      3  N1  <0> d           2.274   5.622   0.010  0.00  0.00    -0.246 N 
ATOM      4  H11 <0> d           1.429   6.099   0.020  0.00  0.00     0.192 HD
ENDROOT
BRANCH   1   5
ATOM      5  C9  <0> d           3.419   7.815   0.010  0.00  0.00     0.280 C 
BRANCH   5   6
ATOM      6  O1  <0> d           4.762   8.305  -0.000  0.00  0.00    -0.341 OA
BRANCH   6   7
ATOM      7  C6  <0> d           4.926   9.654   0.005  0.00  0.00     0.081 A 
ATOM      8  C5  <0> d           5.005  10.349  -1.193  0.00  0.00    -0.028 A 
ATOM      9  C4  <0> d           5.166  11.721  -1.185  0.00  0.00     0.010 A 
ATOM     10  C18 <0> d           4.908   9.608  -2.502  0.00  0.00     0.051 C 
ATOM     11  C3  <0> d           5.261  12.400   0.016  0.00  0.00     0.008 A 
ATOM     12  C2  <0> d           5.189  11.708   1.211  0.00  0.00    -0.053 A 
ATOM     13  C1  <0> d           5.293  12.452   2.518  0.00  0.00     0.049 C 
ATOM     14  C7  <0> d           5.022  10.337   1.209  0.00  0.00    -0.022 A 
ATOM     15  C8  <0> d           4.943   9.585   2.512  0.00  0.00     0.052 C 
ENDBRANCH   6   7
ENDBRANCH   5   6
ENDBRANCH   1   5
BRANCH   3  16
ATOM     16  N2  <0> d           2.288   4.221   0.002  0.00  0.00    -0.184 NA
ATOM     17  C11 <0> d           1.170   3.561   0.009  0.00  0.00     0.150 C 
BRANCH  17  18
ATOM     18  C12 <0> d           1.185   2.087   0.002  0.00  0.00    -0.016 A 
ATOM     19  C17 <0> d          -0.017   1.375   0.010  0.00  0.00     0.034 A 
ATOM     20  C16 <0> d           0.002  -0.004   0.002  0.00  0.00     0.040 A 
ATOM     21  C15 <0> d           1.213  -0.684  -0.013  0.00  0.00     0.082 A 
ATOM     22  I1  <0> d          -1.799  -1.075   0.013  0.00  0.00    -0.042 I 
ATOM     23  C14 <0> d           2.410   0.021  -0.021  0.00  0.00     0.039 A 
ATOM     24  C13 <0> d           2.401   1.399  -0.014  0.00  0.00     0.016 A 
BRANCH  21  25
ATOM     25  O3  <0> d           1.227  -2.043  -0.021  0.00  0.00    -0.359 OA
ATOM     26  H16 <0> d           1.223  -2.431  -0.906  0.00  0.00     0.217 HD
ENDBRANCH  21  25
ENDBRANCH  17  18
ENDBRANCH   3  16
TORSDOF 6
