REMARK  3 active torsions:
REMARK  status: ('A' for Active; 'I' for Inactive)
REMARK    1  A    between atoms: C5_5  and  N1_9 
REMARK       I    between atoms: N1_9  and  C9_10 
REMARK       I    between atoms: C9_10  and  N2_12 
REMARK       I    between atoms: N2_12  and  C10_13 
REMARK    2  A    between atoms: C10_13  and  C11_15 
REMARK    3  A    between atoms: C11_15  and  C12_16 
ROOT
ATOM      1  N1  <0> d           0.265  -4.135   0.348  0.00  0.00    -0.308 N 
ATOM      2  C9  <0> d           0.836  -4.859  -0.635  0.00  0.00     0.327 C 
ATOM      3  O1  <0> d           1.159  -4.321  -1.676  0.00  0.00    -0.247 OA
ATOM      4  N2  <0> d           1.048  -6.178  -0.465  0.00  0.00    -0.279 N 
ATOM      5  C10 <0> d           1.618  -6.902  -1.448  0.00  0.00     0.226 C 
ATOM      6  O2  <0> d           1.941  -6.366  -2.486  0.00  0.00    -0.273 OA
ATOM      7  H9  <0> d          -0.042  -4.573   1.157  0.00  0.00     0.170 HD
ATOM      8  H10 <0> d           0.790  -6.607   0.366  0.00  0.00     0.173 HD
ENDROOT
BRANCH   1   9
ATOM      9  C5  <0> d           0.116  -2.751   0.202  0.00  0.00     0.048 A 
ATOM     10  C4  <0> d          -0.638  -2.240  -0.846  0.00  0.00    -0.034 A 
ATOM     11  C3  <0> d          -0.784  -0.873  -0.988  0.00  0.00     0.015 A 
ATOM     12  C13 <0> d          -1.296  -3.174  -1.828  0.00  0.00     0.050 C 
ATOM     13  C2  <0> d          -0.181  -0.015  -0.086  0.00  0.00    -0.061 A 
ATOM     14  C1  <0> d          -0.342   1.475  -0.244  0.00  0.00     0.048 C 
ATOM     15  C7  <0> d           0.575  -0.521   0.955  0.00  0.00     0.015 A 
ATOM     16  C6  <0> d           0.721  -1.887   1.105  0.00  0.00    -0.034 A 
ATOM     17  C8  <0> d           1.539  -2.437   2.244  0.00  0.00     0.050 C 
ENDBRANCH   1   9
BRANCH   5  18
ATOM     18  C11 <0> d           1.855  -8.378  -1.257  0.00  0.00     0.118 C 
BRANCH  18  19
ATOM     19  C12 <0> d           2.509  -8.957  -2.513  0.00  0.00     0.124 C 
ATOM     20 Cl1  <0> d           2.793 -10.722  -2.285  0.00  0.00    -0.130 Cl
ENDBRANCH  18  19
ENDBRANCH   5  18
TORSDOF 3
