REMARK  3 active torsions:
REMARK  status: ('A' for Active; 'I' for Inactive)
REMARK    1  A    between atoms: C5_5  and  C8_8 
REMARK       I    between atoms: C8_8  and  N1_10 
REMARK    2  A    between atoms: N1_10  and  C9_11 
REMARK    3  A    between atoms: C10_12  and  C16_19 
REMARK       I    between atoms: C16_19  and  N2_21 
REMARK       I    between atoms: N2_21  and  C17_22 
REMARK       I    between atoms: C17_22  and  N3_24 
ROOT
ATOM      1  C9  <0> d           0.092  -6.316   1.135  0.00  0.00     0.093 A 
ATOM      2  C10 <0> d           0.103  -7.173   2.221  0.00  0.00     0.073 A 
ATOM      3  C11 <0> d           0.122  -8.608   1.941  0.00  0.00    -0.026 A 
ATOM      4  C12 <0> d           0.127  -8.911   0.631  0.00  0.00    -0.008 A 
ATOM      5  S1  <0> d           0.099  -7.340  -0.194  0.00  0.00    -0.075 SA
ATOM      6  C13 <0> d           0.151 -10.398   0.400  0.00  0.00     0.047 C 
ATOM      7  C14 <0> d           0.593 -10.997   1.754  0.00  0.00     0.010 C 
ATOM      8  C15 <0> d           0.135  -9.907   2.744  0.00  0.00     0.041 C 
ENDROOT
BRANCH   1   9
ATOM      9  N1  <0> d           0.074  -4.931   1.142  0.00  0.00    -0.316 N 
ATOM     10  C8  <0> d           0.059  -4.251  -0.021  0.00  0.00     0.256 C 
ATOM     11  O1  <0> d           0.062  -4.853  -1.077  0.00  0.00    -0.267 OA
ATOM     12  H8  <0> d           0.072  -4.451   1.985  0.00  0.00     0.169 HD
BRANCH  10  13
ATOM     13  C5  <0> d           0.040  -2.773  -0.013  0.00  0.00     0.032 A 
ATOM     14  C4  <0> d           0.024  -2.066  -1.216  0.00  0.00     0.017 A 
ATOM     15  C3  <0> d           0.006  -0.686  -1.202  0.00  0.00     0.007 A 
ATOM     16  C2  <0> d           0.002  -0.004   0.002  0.00  0.00    -0.062 A 
ATOM     17  C1  <0> d          -0.018   1.503   0.010  0.00  0.00     0.048 C 
ATOM     18  C7  <0> d           0.023  -0.699   1.198  0.00  0.00     0.007 A 
ATOM     19  C6  <0> d           0.036  -2.079   1.198  0.00  0.00     0.017 A 
ENDBRANCH  10  13
ENDBRANCH   1   9
BRANCH   2  20
ATOM     20  C16 <0> d           0.097  -6.663   3.594  0.00  0.00     0.263 C 
ATOM     21  O2  <0> d          -0.959  -6.466   4.165  0.00  0.00    -0.267 OA
ATOM     22  N2  <0> d           1.261  -6.414   4.226  0.00  0.00    -0.275 N 
ATOM     23  C17 <0> d           1.256  -5.945   5.489  0.00  0.00     0.324 C 
ATOM     24  H15 <0> d           2.103  -6.571   3.771  0.00  0.00     0.173 HD
ATOM     25  O3  <0> d           0.200  -5.747   6.059  0.00  0.00    -0.247 OA
ATOM     26  N3  <0> d           2.420  -5.696   6.121  0.00  0.00    -0.343 N 
ATOM     27  C18 <0> d           2.414  -5.186   7.494  0.00  0.00     0.154 C 
ATOM     28  C19 <0> d           3.692  -5.934   5.434  0.00  0.00     0.154 C 
ENDBRANCH   2  20
TORSDOF 3
