REMARK  7 active torsions:
REMARK  status: ('A' for Active; 'I' for Inactive)
REMARK    1  A    between atoms: C4_4  and  N1_7 
REMARK    2  A    between atoms: N1_7  and  C7_8 
REMARK    3  A    between atoms: C7_8  and  C8_10 
REMARK    4  A    between atoms: C8_10  and  C9_11 
REMARK    5  A    between atoms: C9_11  and  N2_12 
REMARK    6  A    between atoms: N4_16  and  C14_19 
REMARK    7  A    between atoms: C17_22  and  C19_24 
ROOT
ATOM      1  C8  <0> d           0.004  -7.696  -0.854  0.00  0.00     0.125 C 
ATOM      2  C20 <0> d           0.137  -7.675   0.572  0.00  0.00     0.106 C 
ATOM      3  N5  <0> d           0.242  -7.659   1.703  0.00  0.00    -0.191 NA
ENDROOT
BRANCH   1   4
ATOM      4  C7  <0> d          -0.715  -8.743  -1.484  0.00  0.00     0.125 C 
ATOM      5  S1  <0> d          -0.708  -8.880  -3.191  0.00  0.00    -0.059 SA
BRANCH   4   6
ATOM      6  N1  <0> d          -1.404  -9.630  -0.740  0.00  0.00    -0.346 N 
ATOM      7  H6  <0> d          -1.474  -9.508   0.220  0.00  0.00     0.167 HD
BRANCH   6   8
ATOM      8  C4  <0> d          -2.018 -10.728  -1.351  0.00  0.00     0.033 A 
ATOM      9  C3  <0> d          -1.360 -11.423  -2.357  0.00  0.00     0.029 A 
ATOM     10  C2  <0> d          -1.969 -12.507  -2.958  0.00  0.00     0.002 A 
ATOM     11  C1  <0> d          -3.233 -12.900  -2.559  0.00  0.00     0.000 A 
ATOM     12  C6  <0> d          -3.891 -12.211  -1.557  0.00  0.00     0.002 A 
ATOM     13  C5  <0> d          -3.286 -11.129  -0.949  0.00  0.00     0.029 A 
ENDBRANCH   6   8
ENDBRANCH   4   6
ENDBRANCH   1   4
BRANCH   1  14
ATOM     14  C9  <0> d           0.584  -6.684  -1.624  0.00  0.00     0.121 C 
ATOM     15  N3  <0> d           1.444  -5.796  -1.048  0.00  0.00    -0.364 N 
ATOM     16  C13 <0> d           2.897  -6.021  -1.083  0.00  0.00     0.139 C 
ATOM     17  C10 <0> d           0.943  -4.588  -0.375  0.00  0.00     0.139 C 
ATOM     18  C12 <0> d           3.574  -4.752  -1.609  0.00  0.00     0.117 C 
ATOM     19  N4  <0> d           3.143  -3.601  -0.804  0.00  0.00    -0.265 NA
ATOM     20  C11 <0> d           1.697  -3.374  -0.929  0.00  0.00     0.117 C 
BRANCH  14  21
ATOM     21  N2  <0> d           0.289  -6.585  -2.953  0.00  0.00    -0.384 N 
ATOM     22  H7  <0> d           0.975  -6.312  -3.582  0.00  0.00     0.157 HD
ATOM     23  H8  <0> d          -0.606  -6.787  -3.267  0.00  0.00     0.157 HD
ENDBRANCH  14  21
BRANCH  19  24
ATOM     24  C14 <0> d           3.858  -2.458  -1.145  0.00  0.00     0.104 A 
ATOM     25  C15 <0> d           4.619  -1.806  -0.179  0.00  0.00     0.073 A 
ATOM     26  C16 <0> d           5.326  -0.670  -0.533  0.00  0.00     0.044 A 
ATOM     27 Cl1  <0> d           4.680  -2.409   1.448  0.00  0.00    -0.081 Cl
ATOM     28  C17 <0> d           5.247  -0.223  -1.846  0.00  0.00     0.065 A 
ATOM     29  C18 <0> d           4.473  -0.919  -2.752  0.00  0.00     0.105 A 
ATOM     30  N6  <0> d           3.766  -2.038  -2.440  0.00  0.00    -0.354 N 
ATOM     31  H19 <0> d           3.198  -2.536  -3.135  0.00  0.00     0.166 HD
BRANCH  28  32
ATOM     32  C19 <0> d           6.001   1.009  -2.276  0.00  0.00     0.418 C 
ATOM     33  F1  <0> d           5.762   1.251  -3.634  0.00  0.00    -0.166 F 
ATOM     34  F2  <0> d           5.568   2.107  -1.524  0.00  0.00    -0.166 F 
ATOM     35  F3  <0> d           7.371   0.814  -2.071  0.00  0.00    -0.166 F 
ENDBRANCH  28  32
ENDBRANCH  19  24
ENDBRANCH   1  14
TORSDOF 7
