REMARK  6 active torsions:
REMARK  status: ('A' for Active; 'I' for Inactive)
REMARK       I    between atoms: N1_2  and  C3_4 
REMARK    1  A    between atoms: C3_4  and  C4_6 
REMARK    2  A    between atoms: C4_6  and  C5_7 
REMARK    3  A    between atoms: C10_12  and  N2_13 
REMARK       I    between atoms: N2_13  and  C11_14 
REMARK    4  A    between atoms: C11_14  and  C12_16 
REMARK       I    between atoms: C12_16  and  N3_18 
REMARK    5  A    between atoms: N3_18  and  C14_20 
REMARK    6  A    between atoms: C14_20  and  C15_21 
ROOT
ATOM      1  N2  <0> d           2.424  -1.942  -2.954  0.00  0.00    -0.318 N 
ATOM      2  C11 <0> d           3.603  -2.230  -3.541  0.00  0.00     0.314 C 
ATOM      3  O2  <0> d           3.641  -2.512  -4.721  0.00  0.00    -0.262 OA
ATOM      4  H13 <0> d           2.401  -1.644  -2.032  0.00  0.00     0.169 HD
ENDROOT
BRANCH   1   5
ATOM      5  C10 <0> d           1.235  -2.073  -3.676  0.00  0.00     0.042 A 
ATOM      6  C5  <0> d           0.071  -2.476  -3.033  0.00  0.00    -0.023 A 
ATOM      7  C6  <0> d          -1.104  -2.599  -3.748  0.00  0.00     0.010 A 
ATOM      8  C7  <0> d          -1.122  -2.327  -5.103  0.00  0.00     0.001 A 
ATOM      9  C8  <0> d           0.036  -1.931  -5.748  0.00  0.00     0.002 A 
ATOM     10  C9  <0> d           1.214  -1.807  -5.040  0.00  0.00     0.030 A 
BRANCH   6  11
ATOM     11  C4  <0> d           0.090  -2.773  -1.556  0.00  0.00     0.144 C 
BRANCH  11  12
ATOM     12  C3  <0> d          -0.099  -1.493  -0.783  0.00  0.00     0.223 C 
ATOM     13  N1  <0> d          -0.116  -1.514   0.564  0.00  0.00    -0.361 N 
ATOM     14  C1  <0> d          -0.300  -0.270   1.315  0.00  0.00     0.152 C 
ATOM     15  C2  <0> d           0.049  -2.783   1.278  0.00  0.00     0.152 C 
ATOM     16  O1  <0> d          -0.235  -0.442  -1.375  0.00  0.00    -0.273 OA
ENDBRANCH  11  12
ENDBRANCH   6  11
ENDBRANCH   1   5
BRANCH   2  17
ATOM     17  C12 <0> d           4.863  -2.202  -2.739  0.00  0.00     0.311 C 
ATOM     18  O3  <0> d           4.825  -1.915  -1.560  0.00  0.00    -0.262 OA
ATOM     19  N3  <0> d           6.041  -2.495  -3.324  0.00  0.00    -0.344 N 
ATOM     20  C13 <0> d           6.073  -2.961  -4.712  0.00  0.00     0.153 C 
BRANCH  19  21
ATOM     21  C14 <0> d           7.289  -2.348  -2.571  0.00  0.00     0.166 C 
BRANCH  21  22
ATOM     22  C15 <0> d           7.658  -3.669  -1.946  0.00  0.00    -0.019 A 
ATOM     23  C20 <0> d           8.755  -3.756  -1.108  0.00  0.00     0.042 A 
ATOM     24  C19 <0> d           9.089  -4.968  -0.530  0.00  0.00     0.024 A 
ATOM     25 Cl1  <0> d           9.707  -2.343  -0.775  0.00  0.00    -0.084 Cl
ATOM     26  C18 <0> d           8.334  -6.093  -0.800  0.00  0.00     0.002 A 
ATOM     27  C17 <0> d           7.241  -6.007  -1.642  0.00  0.00     0.001 A 
ATOM     28  C16 <0> d           6.903  -4.795  -2.215  0.00  0.00     0.010 A 
ENDBRANCH  21  22
ENDBRANCH  19  21
ENDBRANCH   2  17
TORSDOF 6
