REMARK  3 active torsions:
REMARK  status: ('A' for Active; 'I' for Inactive)
REMARK    1  A    between atoms: C3_3  and  N3_10 
REMARK       I    between atoms: N3_10  and  C6_11 
REMARK    2  A    between atoms: C6_11  and  C7_13 
REMARK    3  A    between atoms: C7_13  and  C8_14 
ROOT
ATOM      1  N3  <0> d          -1.470   4.283   0.039  0.00  0.00    -0.321 N 
ATOM      2  C6  <0> d          -2.809   4.160  -0.051  0.00  0.00     0.223 C 
ATOM      3  O2  <0> d          -3.319   3.059  -0.052  0.00  0.00    -0.273 OA
ATOM      4  H10 <0> d          -1.067   5.162   0.114  0.00  0.00     0.169 HD
ENDROOT
BRANCH   1   5
ATOM      5  C3  <0> d          -0.655   3.133   0.024  0.00  0.00     0.129 A 
ATOM      6  C2  <0> d           0.239   2.772   0.972  0.00  0.00     0.056 A 
ATOM      7  C1  <0> d           0.537   3.536   2.236  0.00  0.00     0.072 C 
ATOM      8  N2  <0> d           0.829   1.596   0.591  0.00  0.00    -0.296 N 
ATOM      9  N1  <0> d           0.296   1.192  -0.638  0.00  0.00    -0.263 N 
ATOM     10  C5  <0> d           1.854   0.875   1.350  0.00  0.00     0.177 C 
ATOM     11  C4  <0> d          -0.614   2.111  -1.022  0.00  0.00     0.288 A 
ATOM     12  H1  <0> d           0.540   0.392  -1.130  0.00  0.00     0.190 HD
ATOM     13  O1  <0> d          -1.276   2.093  -2.045  0.00  0.00    -0.264 OA
ENDBRANCH   1   5
BRANCH   2  14
ATOM     14  C7  <0> d          -3.674   5.391  -0.149  0.00  0.00     0.118 C 
BRANCH  14  15
ATOM     15  C8  <0> d          -5.143   4.976  -0.239  0.00  0.00     0.097 C 
ATOM     16  C11 <0> d          -5.424   4.316  -1.571  0.00  0.00     0.264 C 
ATOM     17  O3  <0> d          -6.304   5.051  -2.266  0.00  0.00    -0.316 OA
ATOM     18  O4  <0> d          -4.929   3.281  -1.952  0.00  0.00    -0.265 OA
ATOM     19  C10 <0> d          -7.047   5.921  -1.363  0.00  0.00     0.128 C 
ATOM     20  C9  <0> d          -6.056   6.222  -0.215  0.00  0.00     0.047 C 
ATOM     21  C12 <0> d          -7.447   7.215  -2.075  0.00  0.00     0.040 C 
ENDBRANCH  14  15
ENDBRANCH   2  14
TORSDOF 3
