REMARK  6 active torsions:
REMARK  status: ('A' for Active; 'I' for Inactive)
REMARK    1  A    between atoms: C3_4  and  C5_7 
REMARK    2  A    between atoms: C5_7  and  C6_8 
REMARK       I    between atoms: C6_8  and  N2_10 
REMARK    3  A    between atoms: N2_10  and  N3_11 
REMARK       I    between atoms: N3_11  and  C7_12 
REMARK    4  A    between atoms: C7_12  and  C8_14 
REMARK    5  A    between atoms: C8_14  and  O3_16 
REMARK    6  A    between atoms: O3_16  and  C10_17 
ROOT
ATOM      1  C10 <0> d          -9.144  -4.028   4.376  0.00  0.00     0.090 A 
ATOM      2  C11 <0> d          -9.158  -2.762   4.940  0.00  0.00     0.038 A 
ATOM      3  C12 <0> d         -10.297  -2.294   5.565  0.00  0.00     0.003 A 
ATOM      4  C13 <0> d         -11.433  -3.084   5.634  0.00  0.00     0.002 A 
ATOM      5  C14 <0> d         -11.437  -4.346   5.079  0.00  0.00     0.025 A 
ATOM      6  C15 <0> d         -10.293  -4.829   4.439  0.00  0.00     0.077 A 
ATOM      7  C16 <0> d         -10.292  -6.137   3.855  0.00  0.00     0.102 C 
ATOM      8  N4  <0> d         -10.292  -7.174   3.392  0.00  0.00    -0.191 NA
ENDROOT
BRANCH   1   9
ATOM      9  O3  <0> d          -8.025  -4.489   3.762  0.00  0.00    -0.335 OA
BRANCH   9  10
ATOM     10  C8  <0> d          -6.937  -3.573   3.624  0.00  0.00     0.218 C 
ATOM     11  C9  <0> d          -6.095  -3.586   4.902  0.00  0.00     0.050 C 
BRANCH  10  12
ATOM     12  C7  <0> d          -6.080  -3.983   2.454  0.00  0.00     0.265 C 
ATOM     13  N3  <0> d          -5.048  -3.206   2.070  0.00  0.00    -0.265 N 
ATOM     14  H9  <0> d          -4.856  -2.383   2.547  0.00  0.00     0.190 HD
ATOM     15  O2  <0> d          -6.319  -5.012   1.859  0.00  0.00    -0.269 OA
BRANCH  13  16
ATOM     16  N2  <0> d          -4.251  -3.587   0.983  0.00  0.00    -0.267 N 
ATOM     17  C6  <0> d          -3.219  -2.811   0.599  0.00  0.00     0.241 C 
ATOM     18  O1  <0> d          -2.979  -1.782   1.194  0.00  0.00    -0.271 OA
ATOM     19  H8  <0> d          -4.442  -4.410   0.506  0.00  0.00     0.190 HD
BRANCH  17  20
ATOM     20  C5  <0> d          -2.362  -3.220  -0.571  0.00  0.00     0.164 C 
BRANCH  20  21
ATOM     21  C3  <0> d          -1.286  -2.188  -0.792  0.00  0.00     0.050 A 
ATOM     22  N1  <0> d          -1.578  -0.915  -0.965  0.00  0.00    -0.250 NA
ATOM     23  C2  <0> d          -0.640  -0.021  -1.156  0.00  0.00     0.071 A 
ATOM     24  C1  <0> d          -0.792   1.464  -1.369  0.00  0.00     0.078 C 
ATOM     25  S1  <0> d           0.774  -0.932  -1.114  0.00  0.00    -0.085 SA
ATOM     26  C4  <0> d           0.028  -2.528  -0.822  0.00  0.00     0.079 A 
ENDBRANCH  20  21
ENDBRANCH  17  20
ENDBRANCH  13  16
ENDBRANCH  10  12
ENDBRANCH   9  10
ENDBRANCH   1   9
TORSDOF 6
