REMARK  7 active torsions:
REMARK  status: ('A' for Active; 'I' for Inactive)
REMARK    1  A    between atoms: C2_2  and  C3_3 
REMARK    2  A    between atoms: C13_15  and  C14_16 
REMARK    3  A    between atoms: C14_16  and  C15_17 
REMARK    4  A    between atoms: C15_17  and  S1_18 
REMARK    5  A    between atoms: N2_22  and  C19_25 
REMARK    6  A    between atoms: C19_25  and  C20_26 
REMARK    7  A    between atoms: C20_26  and  C21_27 
ROOT
ATOM      1  C3  <0> d           2.485   1.412  -0.014  0.00  0.00    -0.031 A 
ATOM      2  C4  <0> d           3.456   2.393  -0.017  0.00  0.00     0.009 A 
ATOM      3  C5  <0> d           3.099   3.728  -0.004  0.00  0.00     0.001 A 
ATOM      4  C6  <0> d           1.761   4.084   0.010  0.00  0.00     0.012 A 
ATOM      5  C7  <0> d           0.789   3.109   0.011  0.00  0.00     0.015 A 
ATOM      6  C8  <0> d           1.137   1.761   0.001  0.00  0.00     0.050 A 
ATOM      7  N1  <0> d          -0.011   0.966   0.007  0.00  0.00    -0.324 N 
ATOM      8  C9  <0> d          -1.139   1.702   0.016  0.00  0.00     0.264 A 
ATOM      9  O1  <0> d          -2.277   1.284   0.020  0.00  0.00    -0.270 OA
ATOM     10  C10 <0> d          -0.713   3.145   0.023  0.00  0.00     0.247 A 
ATOM     11  C11 <0> d          -1.268   3.894  -1.195  0.00  0.00     0.144 A 
ATOM     12  C12 <0> d          -2.533   4.622  -0.662  0.00  0.00     0.125 A 
ATOM     13  C13 <0> d          -2.619   4.230   0.828  0.00  0.00     0.202 C 
ATOM     14  C17 <0> d          -2.168   6.084  -0.774  0.00  0.00     0.233 A 
ATOM     15  O2  <0> d          -2.881   7.011  -0.453  0.00  0.00    -0.272 OA
ATOM     16  N2  <0> d          -0.936   6.197  -1.284  0.00  0.00    -0.287 N 
ATOM     17  C18 <0> d          -0.340   5.031  -1.558  0.00  0.00     0.234 A 
ATOM     18  O3  <0> d           0.772   4.906  -2.025  0.00  0.00    -0.272 OA
ATOM     19  H12 <0> d           0.002  -0.004   0.002  0.00  0.00     0.169 HD
ATOM     20  N3  <0> d          -1.247   3.851   1.175  0.00  0.00    -0.047 N 
ATOM     21  H29 <0> d          -0.686   4.688   1.369  0.00  0.00     0.279 HD
ATOM     22  H30 <0> d          -1.245   3.238   1.999  0.00  0.00     0.279 HD
ENDROOT
BRANCH  13  23
ATOM     23  C14 <0> d          -3.100   5.418   1.664  0.00  0.00     0.044 C 
BRANCH  23  24
ATOM     24  C15 <0> d          -3.296   4.974   3.115  0.00  0.00     0.075 C 
BRANCH  24  25
ATOM     25  S1  <0> d          -3.866   6.382   4.106  0.00  0.00    -0.173 SA
ATOM     26  C16 <0> d          -4.048   5.698   5.777  0.00  0.00     0.089 C 
ENDBRANCH  24  25
ENDBRANCH  23  24
ENDBRANCH  13  23
BRANCH   1  27
ATOM     27  C2  <0> d           2.885  -0.041  -0.028  0.00  0.00     0.036 C 
ATOM     28  C1  <0> d           2.886  -0.556  -1.468  0.00  0.00     0.010 C 
ENDBRANCH   1  27
BRANCH  16  29
ATOM     29  C19 <0> d          -0.292   7.491  -1.521  0.00  0.00     0.139 C 
BRANCH  29  30
ATOM     30  C20 <0> d          -0.622   7.972  -2.936  0.00  0.00     0.059 C 
BRANCH  30  31
ATOM     31  C21 <0> d           0.041   9.304  -3.180  0.00  0.00    -0.057 A 
ATOM     32  C26 <0> d           1.317   9.354  -3.709  0.00  0.00     0.007 A 
ATOM     33  C25 <0> d           1.924  10.576  -3.934  0.00  0.00     0.001 A 
ATOM     34  C24 <0> d           1.255  11.747  -3.630  0.00  0.00     0.000 A 
ATOM     35  C23 <0> d          -0.021  11.696  -3.101  0.00  0.00     0.001 A 
ATOM     36  C22 <0> d          -0.630  10.475  -2.881  0.00  0.00     0.007 A 
ENDBRANCH  30  31
ENDBRANCH  29  30
ENDBRANCH  16  29
TORSDOF 7
