REMARK  6 active torsions:
REMARK  status: ('A' for Active; 'I' for Inactive)
REMARK    1  A    between atoms: C7_7  and  N6_31 
REMARK    2  A    between atoms: C8_9  and  C9_11 
REMARK    3  A    between atoms: C9_11  and  N3_12 
REMARK       I    between atoms: N4_15  and  C14_18 
REMARK    4  A    between atoms: C14_18  and  C15_20 
REMARK    5  A    between atoms: C15_20  and  C16_21 
REMARK    6  A    between atoms: C18_24  and  C19_26 
ROOT
ATOM      1  N3  <0> d           5.372  -2.834  -1.447  0.00  0.00     0.098 N 
ATOM      2  C10 <0> d           4.468  -3.771  -2.128  0.00  0.00     0.292 C 
ATOM      3  C11 <0> d           4.831  -3.835  -3.615  0.00  0.00     0.156 C 
ATOM      4  N4  <0> d           6.261  -4.154  -3.734  0.00  0.00    -0.348 N 
ATOM      5  C12 <0> d           7.221  -3.343  -2.970  0.00  0.00     0.156 C 
ATOM      6  C13 <0> d           6.765  -3.298  -1.508  0.00  0.00     0.292 C 
ATOM      7  C14 <0> d           6.682  -5.163  -4.523  0.00  0.00     0.225 C 
ATOM      8  O1  <0> d           5.877  -5.821  -5.146  0.00  0.00    -0.273 OA
ENDROOT
BRANCH   1   9
ATOM      9  C9  <0> d           4.952  -2.612  -0.057  0.00  0.00     0.352 C 
BRANCH   9  10
ATOM     10  C8  <0> d           3.618  -1.911  -0.042  0.00  0.00     0.157 A 
ATOM     11  N1  <0> d           2.518  -2.646  -0.035  0.00  0.00    -0.214 NA
ATOM     12  C7  <0> d           1.313  -2.090  -0.021  0.00  0.00     0.136 A 
ATOM     13  C5  <0> d           1.229  -0.676  -0.013  0.00  0.00     0.038 A 
ATOM     14  C4  <0> d           2.436   0.065  -0.021  0.00  0.00     0.073 A 
ATOM     15  C6  <0> d           0.002  -0.004   0.002  0.00  0.00     0.017 A 
ATOM     16  C3  <0> d           2.380   1.466  -0.013  0.00  0.00     0.032 A 
ATOM     17  N2  <0> d           3.600  -0.599  -0.035  0.00  0.00    -0.231 NA
ATOM     18  C2  <0> d           1.168   2.091   0.002  0.00  0.00     0.002 A 
ATOM     19  C1  <0> d          -0.016   1.360   0.009  0.00  0.00     0.001 A 
BRANCH  12  20
ATOM     20  N6  <0> d           0.175  -2.867  -0.014  0.00  0.00    -0.383 N 
ATOM     21  H21 <0> d          -0.699  -2.447  -0.003  0.00  0.00     0.157 HD
ATOM     22  H22 <0> d           0.248  -3.834  -0.019  0.00  0.00     0.157 HD
ENDBRANCH  12  20
ENDBRANCH   9  10
ENDBRANCH   1   9
BRANCH   7  23
ATOM     23  C15 <0> d           8.153  -5.472  -4.630  0.00  0.00     0.162 C 
BRANCH  23  24
ATOM     24  C16 <0> d           8.355  -6.635  -5.568  0.00  0.00     0.051 A 
ATOM     25  N5  <0> d           7.727  -7.769  -5.354  0.00  0.00    -0.244 NA
ATOM     26  C18 <0> d           7.884  -8.805  -6.167  0.00  0.00     0.108 A 
ATOM     27  S1  <0> d           9.041  -8.141  -7.357  0.00  0.00    -0.079 SA
ATOM     28  C17 <0> d           9.190  -6.513  -6.631  0.00  0.00     0.079 A 
BRANCH  26  29
ATOM     29  C19 <0> d           7.271 -10.149  -6.103  0.00  0.00     0.007 A 
ATOM     30  C22 <0> d           6.396 -10.473  -5.101  0.00  0.00     0.063 A 
ATOM     31  S2  <0> d           5.980 -12.161  -5.506  0.00  0.00    -0.113 SA
ATOM     32  C21 <0> d           6.994 -12.334  -6.965  0.00  0.00     0.050 A 
ATOM     33  C20 <0> d           7.575 -11.117  -7.057  0.00  0.00     0.022 A 
ENDBRANCH  26  29
ENDBRANCH  23  24
ENDBRANCH   7  23
TORSDOF 6
