REMARK  5 active torsions:
REMARK  status: ('A' for Active; 'I' for Inactive)
REMARK    1  A    between atoms: C4_4  and  C7_7 
REMARK    2  A    between atoms: C7_7  and  C8_8 
REMARK    3  A    between atoms: C7_7  and  N6_25 
REMARK    4  A    between atoms: C8_8  and  N1_9 
REMARK    5  A    between atoms: N1_9  and  C9_10 
ROOT
ATOM      1  C7  <0> d          -2.597  -2.637  -0.048  0.00  0.00     0.238 C 
ENDROOT
BRANCH   1   2
ATOM      2  C4  <0> d          -2.595  -4.127   0.180  0.00  0.00    -0.026 A 
ATOM      3  C3  <0> d          -2.746  -4.990  -0.889  0.00  0.00     0.009 A 
ATOM      4  C2  <0> d          -2.744  -6.356  -0.680  0.00  0.00     0.001 A 
ATOM      5  C1  <0> d          -2.591  -6.860   0.598  0.00  0.00     0.000 A 
ATOM      6  C6  <0> d          -2.439  -5.997   1.667  0.00  0.00     0.001 A 
ATOM      7  C5  <0> d          -2.436  -4.631   1.458  0.00  0.00     0.009 A 
ENDBRANCH   1   2
BRANCH   1   8
ATOM      8  C8  <0> d          -1.156  -2.121  -0.058  0.00  0.00     0.159 C 
BRANCH   8   9
ATOM      9  N1  <0> d          -0.445  -2.680  -1.210  0.00  0.00    -0.372 N 
ATOM     10  H10 <0> d          -0.882  -3.332  -1.780  0.00  0.00     0.161 HD
BRANCH   9  11
ATOM     11  C9  <0> d           0.848  -2.279  -1.484  0.00  0.00     0.140 A 
ATOM     12  N5  <0> d           1.462  -1.388  -0.715  0.00  0.00    -0.224 NA
ATOM     13  C13 <0> d           2.698  -0.999  -0.971  0.00  0.00     0.237 A 
ATOM     14  N4  <0> d           3.391  -1.461  -1.988  0.00  0.00    -0.222 NA
ATOM     15  C12 <0> d           2.863  -2.359  -2.818  0.00  0.00     0.160 A 
ATOM     16  C10 <0> d           1.547  -2.806  -2.588  0.00  0.00     0.076 A 
ATOM     17  N3  <0> d           3.306  -3.013  -3.929  0.00  0.00    -0.261 N 
ATOM     18  C11 <0> d           1.246  -3.744  -3.599  0.00  0.00     0.158 A 
ATOM     19  N2  <0> d           2.281  -3.853  -4.382  0.00  0.00    -0.184 NA
ATOM     20  H2  <0> d           4.208  -2.911  -4.348  0.00  0.00     0.191 HD
ENDBRANCH   9  11
ENDBRANCH   8   9
ENDBRANCH   1   8
BRANCH   1  21
ATOM     21  N6  <0> d          -3.366  -1.963   1.041  0.00  0.00    -0.061 N 
ATOM     22  C14 <0> d          -3.345  -0.503   0.855  0.00  0.00     0.236 C 
ATOM     23  C15 <0> d          -4.556  -0.044   1.706  0.00  0.00     0.029 C 
ATOM     24  C16 <0> d          -5.592  -1.166   1.466  0.00  0.00     0.029 C 
ATOM     25  C17 <0> d          -4.767  -2.385   1.014  0.00  0.00     0.236 C 
ATOM     26  H21 <0> d          -2.949  -2.203   1.947  0.00  0.00     0.280 HD
ENDBRANCH   1  21
TORSDOF 5
