REMARK  6 active torsions:
REMARK  status: ('A' for Active; 'I' for Inactive)
REMARK    1  A    between atoms: C4_4  and  N1_7 
REMARK    2  A    between atoms: C8_10  and  S1_17 
REMARK    3  A    between atoms: S1_17  and  C12_18 
REMARK    4  A    between atoms: C12_18  and  C13_19 
REMARK       I    between atoms: C13_19  and  N5_21 
REMARK    5  A    between atoms: N5_21  and  C14_22 
REMARK    6  A    between atoms: C14_22  and  C15_23 
ROOT
ATOM      1  N1  <0> d           3.623  -0.651  -0.037  0.00  0.00    -0.215 N 
ATOM      2  C7  <0> d           3.885  -1.839   0.584  0.00  0.00     0.170 A 
ATOM      3  N2  <0> d           3.175  -2.677   1.335  0.00  0.00    -0.202 NA
ATOM      4  C8  <0> d           3.721  -3.785   1.809  0.00  0.00     0.193 A 
ATOM      5  N3  <0> d           4.986  -4.115   1.566  0.00  0.00    -0.195 NA
ATOM      6  C9  <0> d           5.767  -3.340   0.828  0.00  0.00     0.218 A 
ATOM      7  O1  <0> d           7.054  -3.684   0.587  0.00  0.00    -0.169 OA
ATOM      8  C10 <0> d           5.231  -2.150   0.302  0.00  0.00     0.087 A 
ATOM      9  C11 <0> d           5.737  -1.105  -0.502  0.00  0.00     0.159 A 
ATOM     10  N4  <0> d           4.786  -0.236  -0.698  0.00  0.00    -0.177 NA
ENDROOT
BRANCH   4  11
ATOM     11  S1  <0> d           2.738  -4.861   2.798  0.00  0.00    -0.081 SA
BRANCH  11  12
ATOM     12  C12 <0> d           3.863  -6.219   3.221  0.00  0.00     0.185 C 
BRANCH  12  13
ATOM     13  C13 <0> d           3.138  -7.225   4.078  0.00  0.00     0.227 C 
ATOM     14  O2  <0> d           1.976  -7.043   4.374  0.00  0.00    -0.273 OA
ATOM     15  N5  <0> d           3.780  -8.326   4.515  0.00  0.00    -0.356 N 
ATOM     16  H9  <0> d           4.710  -8.472   4.278  0.00  0.00     0.162 HD
BRANCH  15  17
ATOM     17  C14 <0> d           3.075  -9.303   5.348  0.00  0.00     0.162 C 
BRANCH  17  18
ATOM     18  C15 <0> d           4.010 -10.432   5.699  0.00  0.00    -0.019 A 
ATOM     19  C20 <0> d           4.929 -10.276   6.721  0.00  0.00     0.042 A 
ATOM     20  C19 <0> d           5.784 -11.315   7.046  0.00  0.00     0.024 A 
ATOM     21 Cl1  <0> d           5.006  -8.781   7.599  0.00  0.00    -0.084 Cl
ATOM     22  C18 <0> d           5.726 -12.503   6.343  0.00  0.00     0.002 A 
ATOM     23  C17 <0> d           4.810 -12.656   5.318  0.00  0.00     0.001 A 
ATOM     24  C16 <0> d           3.953 -11.621   4.996  0.00  0.00     0.010 A 
ENDBRANCH  17  18
ENDBRANCH  15  17
ENDBRANCH  12  13
ENDBRANCH  11  12
ENDBRANCH   4  11
BRANCH   1  25
ATOM     25  C4  <0> d           2.400   0.031  -0.021  0.00  0.00     0.060 A 
ATOM     26  C3  <0> d           2.377   1.419  -0.013  0.00  0.00     0.031 A 
ATOM     27  C2  <0> d           1.170   2.089   0.002  0.00  0.00     0.002 A 
ATOM     28  C1  <0> d          -0.017   1.379   0.010  0.00  0.00     0.000 A 
ATOM     29  C6  <0> d           0.002  -0.004   0.002  0.00  0.00     0.002 A 
ATOM     30  C5  <0> d           1.206  -0.680  -0.013  0.00  0.00     0.031 A 
ENDBRANCH   1  25
TORSDOF 6
