REMARK  1 active torsions:
REMARK  status: ('A' for Active; 'I' for Inactive)
REMARK    1  A    between atoms: C5_5  and  C8_11 
REMARK       I    between atoms: C8_11  and  N3_13 
REMARK       I    between atoms: N3_13  and  C10_15 
REMARK       I    between atoms: C10_15  and  N4_17 
ROOT
ATOM      1  C1  <0> d          -0.068   2.642   0.124  0.00  0.00     0.072 C 
ATOM      2  C2  <0> d          -0.776   2.284   1.405  0.00  0.00     0.052 A 
ATOM      3  C3  <0> d          -0.010   2.016   2.608  0.00  0.00     0.027 A 
ATOM      4  C4  <0> d           1.383   2.026   2.825  0.00  0.00     0.035 A 
ATOM      5  C5  <0> d           1.862   1.728   4.097  0.00  0.00     0.051 A 
ATOM      6  C6  <0> d           0.965   1.423   5.131  0.00  0.00     0.135 A 
ATOM      7  N1  <0> d          -0.331   1.418   4.909  0.00  0.00    -0.250 NA
ATOM      8  C7  <0> d          -0.826   1.695   3.722  0.00  0.00     0.127 A 
ATOM      9  S1  <0> d          -2.462   1.790   3.041  0.00  0.00     0.032 SA
ATOM     10  N2  <0> d          -2.071   2.221   1.435  0.00  0.00    -0.214 NA
ENDROOT
BRANCH   5  11
ATOM     11  C8  <0> d           3.314   1.731   4.357  0.00  0.00     0.262 C 
ATOM     12  O1  <0> d           4.080   1.271   3.534  0.00  0.00    -0.267 OA
ATOM     13  N3  <0> d           3.791   2.245   5.508  0.00  0.00    -0.270 N 
ATOM     14  C9  <0> d           2.864   2.705   6.545  0.00  0.00     0.164 C 
ATOM     15  C10 <0> d           5.121   2.336   5.706  0.00  0.00     0.324 C 
ATOM     16  O2  <0> d           5.891   1.954   4.846  0.00  0.00    -0.247 OA
ATOM     17  N4  <0> d           5.598   2.850   6.857  0.00  0.00    -0.347 N 
ATOM     18  C11 <0> d           7.044   2.948   7.072  0.00  0.00     0.151 C 
ATOM     19  H9  <0> d           4.984   3.154   7.543  0.00  0.00     0.163 HD
ENDBRANCH   5  11
TORSDOF 1
