REMARK  5 active torsions:
REMARK  status: ('A' for Active; 'I' for Inactive)
REMARK    1  A    between atoms: C5_5  and  S1_9 
REMARK    2  A    between atoms: S1_9  and  C9_10 
REMARK    3  A    between atoms: C9_10  and  C10_11 
REMARK    4  A    between atoms: C9_10  and  C14_17 
REMARK    5  A    between atoms: C14_17  and  N1_19 
ROOT
ATOM      1  C9  <0> d           0.104  -5.095  -1.770  0.00  0.00     0.122 C 
ENDROOT
BRANCH   1   2
ATOM      2  S1  <0> d           0.087  -4.699  -0.000  0.00  0.00    -0.118 SA
BRANCH   2   3
ATOM      3  C5  <0> d          -1.596  -4.921   0.471  0.00  0.00     0.001 A 
ATOM      4  C4  <0> d          -2.560  -5.188  -0.494  0.00  0.00     0.019 A 
ATOM      5  C3  <0> d          -3.878  -5.363  -0.122  0.00  0.00     0.008 A 
ATOM      6  C2  <0> d          -4.239  -5.272   1.210  0.00  0.00    -0.056 A 
ATOM      7  C1  <0> d          -5.679  -5.463   1.613  0.00  0.00     0.049 C 
ATOM      8  C7  <0> d          -3.284  -5.001   2.173  0.00  0.00    -0.055 A 
ATOM      9  C6  <0> d          -1.963  -4.831   1.808  0.00  0.00     0.025 A 
ATOM     10  C8  <0> d          -3.684  -4.896   3.622  0.00  0.00     0.049 C 
ENDBRANCH   2   3
ENDBRANCH   1   2
BRANCH   1  11
ATOM     11  C10 <0> d          -0.151  -6.568  -1.958  0.00  0.00    -0.000 A 
ATOM     12  S2  <0> d           0.791  -7.958  -1.353  0.00  0.00    -0.104 SA
ATOM     13  C13 <0> d          -0.218  -9.263  -2.034  0.00  0.00     0.069 A 
ATOM     14  C12 <0> d          -1.187  -8.563  -2.674  0.00  0.00     0.018 A 
ATOM     15  C11 <0> d          -1.153  -7.182  -2.635  0.00  0.00     0.035 A 
ATOM     16 Br1  <0> d          -2.565  -9.463  -3.605  0.00  0.00    -0.051 Br
ENDBRANCH   1  11
BRANCH   1  17
ATOM     17  C14 <0> d           1.468  -4.734  -2.361  0.00  0.00     0.198 C 
ATOM     18  C15 <0> d           1.710  -3.231  -2.205  0.00  0.00     0.041 C 
BRANCH  17  19
ATOM     19  N1  <0> d           1.494  -5.089  -3.786  0.00  0.00    -0.074 N 
ATOM     20  H17 <0> d           1.335  -6.080  -3.889  0.00  0.00     0.274 HD
ATOM     21  H18 <0> d           0.772  -4.580  -4.273  0.00  0.00     0.274 HD
ATOM     22  H19 <0> d           2.394  -4.851  -4.176  0.00  0.00     0.274 HD
ENDBRANCH  17  19
ENDBRANCH   1  17
TORSDOF 5
