REMARK  5 active torsions:
REMARK  status: ('A' for Active; 'I' for Inactive)
REMARK    1  A    between atoms: C3_3  and  N5_15 
REMARK    2  A    between atoms: C6_6  and  C7_7 
REMARK    3  A    between atoms: N4_11  and  C8_12 
REMARK       I    between atoms: N5_15  and  C11_16 
REMARK    4  A    between atoms: C11_16  and  C12_18 
REMARK    5  A    between atoms: N6_22  and  C16_24 
ROOT
ATOM      1  N5  <0> d          -0.083   1.272  -0.143  0.00  0.00    -0.327 N 
ATOM      2  C11 <0> d          -1.301   1.840  -0.255  0.00  0.00     0.228 C 
ATOM      3  O1  <0> d          -2.296   1.147  -0.240  0.00  0.00    -0.273 OA
ATOM      4  H11 <0> d           0.814   1.905  -0.078  0.00  0.00     0.169 HD
ENDROOT
BRANCH   2   5
ATOM      5  C12 <0> d          -1.425   3.335  -0.396  0.00  0.00     0.105 C 
ATOM      6  C15 <0> d          -2.906   3.759  -0.508  0.00  0.00     0.146 C 
ATOM      7  N6  <0> d          -3.194   3.802  -1.946  0.00  0.00    -0.317 N 
ATOM      8  C14 <0> d          -2.062   3.838  -2.670  0.00  0.00     0.225 C 
ATOM      9  C13 <0> d          -0.858   3.811  -1.754  0.00  0.00     0.119 C 
ATOM     10  O2  <0> d          -2.013   3.884  -3.881  0.00  0.00    -0.273 OA
BRANCH   7  11
ATOM     11  C16 <0> d          -4.482   3.806  -2.494  0.00  0.00     0.037 A 
ATOM     12  C21 <0> d          -4.654   3.734  -3.869  0.00  0.00     0.037 A 
ATOM     13  C20 <0> d          -5.927   3.732  -4.411  0.00  0.00    -0.050 A 
ATOM     14  C19 <0> d          -7.030   3.815  -3.582  0.00  0.00    -0.052 A 
ATOM     15  C22 <0> d          -6.376   3.658  -5.855  0.00  0.00     0.039 C 
ATOM     16  C18 <0> d          -6.859   3.893  -2.209  0.00  0.00     0.010 A 
ATOM     17  C24 <0> d          -8.296   3.801  -4.412  0.00  0.00     0.039 C 
ATOM     18  C17 <0> d          -5.592   3.889  -1.663  0.00  0.00     0.030 A 
ATOM     19  C23 <0> d          -7.867   3.263  -5.793  0.00  0.00     0.009 C 
ENDBRANCH   7  11
ENDBRANCH   2   5
BRANCH   1  20
ATOM     20  C3  <0> d           0.038  -0.119  -0.110  0.00  0.00     0.034 A 
ATOM     21  C2  <0> d           1.134  -0.734  -0.705  0.00  0.00     0.030 A 
ATOM     22  C1  <0> d           1.257  -2.106  -0.674  0.00  0.00     0.017 A 
ATOM     23  C6  <0> d           0.280  -2.879  -0.044  0.00  0.00     0.013 A 
ATOM     24  C5  <0> d          -0.819  -2.259   0.552  0.00  0.00     0.017 A 
ATOM     25  C4  <0> d          -0.933  -0.886   0.523  0.00  0.00     0.030 A 
BRANCH  23  26
ATOM     26  C7  <0> d           0.409  -4.352  -0.009  0.00  0.00     0.181 A 
ATOM     27  N4  <0> d          -0.236  -5.198   0.832  0.00  0.00    -0.225 N 
ATOM     28  N3  <0> d           0.213  -6.483   0.479  0.00  0.00    -0.044 NA
ATOM     29  N2  <0> d           1.048  -6.333  -0.492  0.00  0.00    -0.023 NA
ATOM     30  N1  <0> d           1.168  -5.090  -0.792  0.00  0.00    -0.108 NA
BRANCH  27  31
ATOM     31  C8  <0> d          -1.195  -4.849   1.883  0.00  0.00     0.114 A 
ATOM     32  C10 <0> d          -2.646  -5.296   1.693  0.00  0.00     0.029 A 
ATOM     33  C9  <0> d          -1.761  -5.989   2.731  0.00  0.00     0.029 A 
ENDBRANCH  27  31
ENDBRANCH  23  26
ENDBRANCH   1  20
TORSDOF 5
