REMARK  2 active torsions:
REMARK  status: ('A' for Active; 'I' for Inactive)
REMARK    1  A    between atoms: C5_7  and  N3_11 
REMARK       I    between atoms: N3_11  and  C9_12 
REMARK       I    between atoms: C9_12  and  N4_14 
REMARK       I    between atoms: N5_17  and  C14_20 
REMARK    2  A    between atoms: C14_20  and  C15_22 
ROOT
ATOM      1  N3  <0> d          -1.202  -3.924  -0.498  0.00  0.00    -0.334 N 
ATOM      2  C9  <0> d          -0.745  -4.904   0.306  0.00  0.00     0.319 C 
ATOM      3  O1  <0> d           0.421  -4.914   0.649  0.00  0.00    -0.247 OA
ATOM      4  N4  <0> d          -1.581  -5.873   0.729  0.00  0.00    -0.331 N 
ATOM      5  C10 <0> d          -2.961  -5.942   0.228  0.00  0.00     0.147 C 
ATOM      6  C11 <0> d          -3.197  -7.336  -0.366  0.00  0.00     0.146 C 
ATOM      7  N5  <0> d          -2.745  -8.343   0.604  0.00  0.00    -0.345 N 
ATOM      8  C12 <0> d          -1.365  -8.274   1.105  0.00  0.00     0.146 C 
ATOM      9  C13 <0> d          -1.127  -6.883   1.695  0.00  0.00     0.147 C 
ATOM     10  C14 <0> d          -3.580  -9.312   1.027  0.00  0.00     0.254 C 
ATOM     11  O2  <0> d          -3.229 -10.079   1.903  0.00  0.00    -0.267 OA
ATOM     12  H12 <0> d          -2.113  -3.954  -0.831  0.00  0.00     0.165 HD
ENDROOT
BRANCH   1  13
ATOM     13  C5  <0> d          -0.324  -2.811  -0.868  0.00  0.00     0.123 C 
ATOM     14  C3  <0> d          -0.367  -1.751   0.204  0.00  0.00     0.008 A 
ATOM     15  C2  <0> d          -0.457  -0.419  -0.045  0.00  0.00     0.040 A 
ATOM     16  C4  <0> d          -0.329  -1.928   1.585  0.00  0.00     0.150 A 
ATOM     17  N1  <0> d          -0.475   0.220   1.136  0.00  0.00    -0.278 N 
ATOM     18  C8  <0> d          -0.518   0.180  -1.428  0.00  0.00     0.059 C 
ATOM     19  C1  <0> d          -0.565   1.669   1.331  0.00  0.00     0.179 C 
ATOM     20  N2  <0> d          -0.387  -0.746   2.149  0.00  0.00    -0.184 NA
ATOM     21  C7  <0> d          -0.053  -0.878  -2.435  0.00  0.00     0.008 C 
ATOM     22  C6  <0> d          -0.806  -2.188  -2.184  0.00  0.00     0.030 C 
ENDBRANCH   1  13
BRANCH  10  23
ATOM     23  C15 <0> d          -4.919  -9.443   0.428  0.00  0.00     0.039 A 
ATOM     24  C18 <0> d          -5.152  -9.128  -0.891  0.00  0.00     0.066 A 
ATOM     25  S1  <0> d          -6.788  -9.434  -1.105  0.00  0.00    -0.113 SA
ATOM     26  C17 <0> d          -7.220  -9.976   0.534  0.00  0.00     0.050 A 
ATOM     27  C16 <0> d          -6.049  -9.901   1.199  0.00  0.00     0.024 A 
ENDBRANCH  10  23
TORSDOF 2
