REMARK  3 active torsions:
REMARK  status: ('A' for Active; 'I' for Inactive)
REMARK    1  A    between atoms: C6_7  and  N2_8 
REMARK       I    between atoms: N2_8  and  C7_9 
REMARK    2  A    between atoms: C7_9  and  C8_11 
REMARK    3  A    between atoms: C12_16  and  C13_17 
ROOT
ATOM      1  C8  <0> d          -1.903   2.092   3.649  0.00  0.00     0.045 C 
ATOM      2  C9  <0> d          -0.582   1.869   3.550  0.00  0.00     0.018 C 
ATOM      3  N3  <0> d           0.019   1.799   2.323  0.00  0.00    -0.362 N 
ATOM      4  C10 <0> d          -0.721   1.554   1.198  0.00  0.00     0.020 C 
ATOM      5  C11 <0> d          -2.054   1.765   1.197  0.00  0.00     0.023 C 
ATOM      6  C12 <0> d          -2.754   2.278   2.430  0.00  0.00     0.099 C 
ATOM      7  C19 <0> d          -2.826   1.517   0.048  0.00  0.00     0.158 C 
ATOM      8  O2  <0> d          -4.027   1.698   0.086  0.00  0.00    -0.293 OA
ATOM      9  C20 <0> d          -2.192   1.031  -1.227  0.00  0.00     0.084 C 
ATOM     10  C21 <0> d          -0.744   1.530  -1.285  0.00  0.00     0.014 C 
ATOM     11  C22 <0> d          -0.012   1.043  -0.032  0.00  0.00     0.058 C 
ATOM     12  C23 <0> d           0.244   1.696   4.799  0.00  0.00     0.069 C 
ATOM     13  H9  <0> d           1.107   1.939   2.235  0.00  0.00     0.165 HD
ENDROOT
BRANCH   1  14
ATOM     14  C7  <0> d          -2.502   2.152   4.931  0.00  0.00     0.256 C 
ATOM     15  N2  <0> d          -2.334   3.244   5.703  0.00  0.00    -0.307 N 
ATOM     16  H8  <0> d          -1.804   4.122   5.306  0.00  0.00     0.170 HD
ATOM     17  O1  <0> d          -3.170   1.218   5.335  0.00  0.00    -0.267 OA
BRANCH  15  18
ATOM     18  C6  <0> d          -2.832   3.260   7.004  0.00  0.00     0.136 A 
ATOM     19  C2  <0> d          -2.558   4.343   7.832  0.00  0.00    -0.016 A 
ATOM     20  C1  <0> d          -1.727   5.496   7.332  0.00  0.00     0.052 C 
ATOM     21  C3  <0> d          -3.059   4.347   9.122  0.00  0.00     0.012 A 
ATOM     22  C4  <0> d          -3.819   3.264   9.541  0.00  0.00     0.020 A 
ATOM     23  C5  <0> d          -4.052   2.222   8.664  0.00  0.00     0.119 A 
ATOM     24  N1  <0> d          -3.566   2.248   7.438  0.00  0.00    -0.243 NA
ENDBRANCH  15  18
ENDBRANCH   1  14
BRANCH   6  25
ATOM     25  C13 <0> d          -3.054   3.744   2.255  0.00  0.00    -0.021 A 
ATOM     26  C18 <0> d          -4.350   4.206   2.393  0.00  0.00     0.063 A 
ATOM     27  C17 <0> d          -4.624   5.555   2.238  0.00  0.00     0.056 A 
ATOM     28 Cl1  <0> d          -5.632   3.097   2.769  0.00  0.00    -0.082 Cl
ATOM     29  C16 <0> d          -3.603   6.436   1.932  0.00  0.00     0.026 A 
ATOM     30 Cl2  <0> d          -6.249   6.137   2.418  0.00  0.00    -0.083 Cl
ATOM     31  C15 <0> d          -2.309   5.972   1.788  0.00  0.00     0.002 A 
ATOM     32  C14 <0> d          -2.034   4.627   1.950  0.00  0.00     0.010 A 
ENDBRANCH   6  25
TORSDOF 3
