REMARK  7 active torsions:
REMARK  status: ('A' for Active; 'I' for Inactive)
REMARK    1  A    between atoms: C2_2  and  C3_3 
REMARK    2  A    between atoms: C3_3  and  C4_4 
REMARK    3  A    between atoms: C3_3  and  N4_22 
REMARK    4  A    between atoms: C4_4  and  C5_5 
REMARK    5  A    between atoms: C4_4  and  S2_11 
REMARK    6  A    between atoms: S2_11  and  C9_12 
REMARK    7  A    between atoms: N3_18  and  C11_19 
ROOT
ATOM      1  C4  <0> d           0.966  -2.004  -1.152  0.00  0.00     0.125 C 
ENDROOT
BRANCH   1   2
ATOM      2  C3  <0> d           0.554  -0.530  -1.169  0.00  0.00     0.202 C 
BRANCH   2   3
ATOM      3  C2  <0> d          -0.420  -0.260  -0.020  0.00  0.00     0.030 C 
ATOM      4  C1  <0> d          -0.729   1.237   0.045  0.00  0.00     0.007 C 
ENDBRANCH   2   3
BRANCH   2   5
ATOM      5  N4  <0> d          -0.099  -0.219  -2.448  0.00  0.00    -0.074 N 
ATOM      6  H16 <0> d          -0.370   0.752  -2.459  0.00  0.00     0.274 HD
ATOM      7  H17 <0> d           0.544  -0.398  -3.205  0.00  0.00     0.274 HD
ATOM      8  H18 <0> d          -0.917  -0.799  -2.557  0.00  0.00     0.274 HD
ENDBRANCH   2   5
ENDBRANCH   1   2
BRANCH   1   9
ATOM      9  C5  <0> d           1.859  -2.289  -2.332  0.00  0.00     0.000 A 
ATOM     10  S1  <0> d           3.434  -1.562  -2.752  0.00  0.00    -0.081 SA
ATOM     11  C8  <0> d           3.741  -2.476  -4.255  0.00  0.00     0.075 A 
ATOM     12  C7  <0> d           2.635  -3.256  -4.339  0.00  0.00     0.032 A 
ATOM     13 Cl1  <0> d           5.099  -2.384  -5.332  0.00  0.00    -0.076 Cl
ATOM     14  C6  <0> d           1.670  -3.160  -3.353  0.00  0.00     0.018 A 
ENDBRANCH   1   9
BRANCH   1  15
ATOM     15  S2  <0> d           1.862  -2.363   0.384  0.00  0.00    -0.078 SA
BRANCH  15  16
ATOM     16  C9  <0> d           2.060  -4.114   0.362  0.00  0.00     0.193 A 
ATOM     17  N3  <0> d           2.775  -4.852   1.278  0.00  0.00    -0.271 N 
ATOM     18  C10 <0> d           2.692  -6.152   0.932  0.00  0.00     0.345 A 
ATOM     19  N2  <0> d           1.946  -6.228  -0.189  0.00  0.00    -0.226 N 
ATOM     20  O1  <0> d           3.203  -7.088   1.521  0.00  0.00    -0.245 OA
ATOM     21  N1  <0> d           1.561  -4.923  -0.526  0.00  0.00    -0.145 NA
ATOM     22  H3  <0> d           1.719  -7.037  -0.674  0.00  0.00     0.194 HD
BRANCH  17  23
ATOM     23  C11 <0> d           3.498  -4.317   2.435  0.00  0.00     0.097 A 
ATOM     24  C13 <0> d           3.072  -4.805   3.821  0.00  0.00     0.028 A 
ATOM     25  C12 <0> d           4.394  -5.281   3.215  0.00  0.00     0.028 A 
ENDBRANCH  17  23
ENDBRANCH  15  16
ENDBRANCH   1  15
TORSDOF 7
