REMARK  5 active torsions:
REMARK  status: ('A' for Active; 'I' for Inactive)
REMARK    1  A    between atoms: N1_4  and  S1_9 
REMARK    2  A    between atoms: S1_9  and  N2_12 
REMARK    3  A    between atoms: N2_12  and  C7_13 
REMARK    4  A    between atoms: C7_13  and  C8_14 
REMARK    5  A    between atoms: C8_14  and  N3_20 
ROOT
ATOM      1  N2  <0> d          -1.216  -3.384  -2.073  0.00  0.00    -0.300 N 
ATOM      2  H13 <0> d          -1.434  -3.095  -2.973  0.00  0.00     0.173 HD
ENDROOT
BRANCH   1   3
ATOM      3  S1  <0> d          -2.225  -3.006  -0.815  0.00  0.00     0.317 S 
ATOM      4  O2  <0> d          -2.443  -4.211  -0.094  0.00  0.00    -0.183 OA
ATOM      5  O3  <0> d          -3.290  -2.243  -1.363  0.00  0.00    -0.183 OA
BRANCH   3   6
ATOM      6  N1  <0> d          -1.389  -1.995   0.196  0.00  0.00    -0.289 N 
ATOM      7  C3  <0> d          -1.436  -0.536   0.015  0.00  0.00     0.168 C 
ATOM      8  C2  <0> d           0.002  -0.004   0.002  0.00  0.00     0.136 C 
ATOM      9  C1  <0> d          -0.019   1.526   0.010  0.00  0.00     0.041 C 
ATOM     10  O1  <0> d           0.691  -0.479   1.161  0.00  0.00    -0.378 OA
ATOM     11  C5  <0> d           0.818  -1.901   1.226  0.00  0.00     0.136 C 
ATOM     12  C4  <0> d          -0.578  -2.530   1.302  0.00  0.00     0.168 C 
ATOM     13  C6  <0> d           1.621  -2.288   2.469  0.00  0.00     0.041 C 
ENDBRANCH   3   6
ENDBRANCH   1   3
BRANCH   1  14
ATOM     14  C7  <0> d           0.005  -4.155  -1.827  0.00  0.00     0.172 C 
BRANCH  14  15
ATOM     15  C8  <0> d           0.550  -4.684  -3.155  0.00  0.00     0.140 C 
ATOM     16  C13 <0> d           1.825  -5.489  -2.898  0.00  0.00     0.040 C 
ATOM     17  C12 <0> d           1.508  -6.665  -1.972  0.00  0.00     0.002 C 
ATOM     18  C11 <0> d           0.461  -7.565  -2.632  0.00  0.00     0.000 C 
ATOM     19  C10 <0> d          -0.814  -6.760  -2.888  0.00  0.00     0.002 C 
ATOM     20  C9  <0> d          -0.497  -5.584  -3.814  0.00  0.00     0.040 C 
BRANCH  15  21
ATOM     21  N3  <0> d           0.855  -3.555  -4.044  0.00  0.00    -0.069 N 
ATOM     22  H26 <0> d           1.545  -2.961  -3.609  0.00  0.00     0.275 HD
ATOM     23  H27 <0> d           1.214  -3.904  -4.920  0.00  0.00     0.275 HD
ATOM     24  H28 <0> d           0.014  -3.024  -4.213  0.00  0.00     0.275 HD
ENDBRANCH  15  21
ENDBRANCH  14  15
ENDBRANCH   1  14
TORSDOF 5
