REMARK  5 active torsions:
REMARK  status: ('A' for Active; 'I' for Inactive)
REMARK    1  A    between atoms: C7_7  and  N1_8 
REMARK       I    between atoms: N1_8  and  C8_9 
REMARK    2  A    between atoms: C8_9  and  C9_11 
REMARK    3  A    between atoms: C9_11  and  C10_12 
REMARK    4  A    between atoms: C9_11  and  N2_18 
REMARK       I    between atoms: N2_18  and  C16_19 
REMARK    5  A    between atoms: C16_19  and  C17_21 
ROOT
ATOM      1  C9  <0> d          -0.039   0.194   4.850  0.00  0.00     0.210 C 
ENDROOT
BRANCH   1   2
ATOM      2  C8  <0> d           0.011  -0.589   3.564  0.00  0.00     0.249 C 
ATOM      3  N1  <0> d           0.139   0.055   2.387  0.00  0.00    -0.324 N 
ATOM      4  H9  <0> d           0.264   1.017   2.371  0.00  0.00     0.169 HD
ATOM      5  O1  <0> d          -0.063  -1.800   3.588  0.00  0.00    -0.270 OA
BRANCH   3   6
ATOM      6  C7  <0> d           0.092  -0.664   1.187  0.00  0.00     0.046 A 
ATOM      7  C2  <0> d           1.258  -0.899   0.470  0.00  0.00    -0.035 A 
ATOM      8  C1  <0> d           2.576  -0.379   0.983  0.00  0.00     0.050 C 
ATOM      9  C3  <0> d           1.209  -1.614  -0.710  0.00  0.00     0.009 A 
ATOM     10  C4  <0> d          -0.000  -2.090  -1.182  0.00  0.00     0.001 A 
ATOM     11  C5  <0> d          -1.164  -1.853  -0.473  0.00  0.00     0.009 A 
ATOM     12  C6  <0> d          -1.122  -1.139   0.708  0.00  0.00    -0.035 A 
ATOM     13  C20 <0> d          -2.390  -0.881   1.480  0.00  0.00     0.050 C 
ENDBRANCH   3   6
ENDBRANCH   1   2
BRANCH   1  14
ATOM     14  C10 <0> d           1.233   0.987   5.005  0.00  0.00    -0.026 A 
ATOM     15  C15 <0> d           1.252   2.332   4.686  0.00  0.00     0.010 A 
ATOM     16  C14 <0> d           2.418   3.061   4.833  0.00  0.00     0.001 A 
ATOM     17  C13 <0> d           3.566   2.442   5.290  0.00  0.00     0.000 A 
ATOM     18  C12 <0> d           3.548   1.096   5.604  0.00  0.00     0.001 A 
ATOM     19  C11 <0> d           2.381   0.369   5.462  0.00  0.00     0.010 A 
ENDBRANCH   1  14
BRANCH   1  20
ATOM     20  N2  <0> d          -0.181  -0.729   5.979  0.00  0.00    -0.342 N 
ATOM     21  C16 <0> d          -0.738  -0.305   7.130  0.00  0.00     0.249 C 
ATOM     22  O2  <0> d          -1.123   0.841   7.232  0.00  0.00    -0.271 OA
ATOM     23  H15 <0> d           0.127  -1.645   5.898  0.00  0.00     0.163 HD
BRANCH  21  24
ATOM     24  C17 <0> d          -0.883  -1.254   8.292  0.00  0.00     0.247 A 
ATOM     25  N4  <0> d          -1.838  -0.725   9.281  0.00  0.00    -0.174 NA
ATOM     26  N3  <0> d          -1.223  -0.561  10.342  0.00  0.00    -0.167 NA
ATOM     27  C19 <0> d           0.084  -0.901  10.292  0.00  0.00     0.139 A 
ATOM     28  C18 <0> d           0.413  -1.344   9.077  0.00  0.00     0.032 A 
ENDBRANCH  21  24
ENDBRANCH   1  20
TORSDOF 5
