REMARK  4 active torsions:
REMARK  status: ('A' for Active; 'I' for Inactive)
REMARK    1  A    between atoms: N1_2  and  C2_3 
REMARK       I    between atoms: N1_2  and  C7_9 
REMARK    2  A    between atoms: C2_3  and  C3_4 
REMARK    3  A    between atoms: C7_9  and  C8_11 
REMARK    4  A    between atoms: C8_11  and  C13_16 
ROOT
ATOM      1  C8  <0> d          -0.124   0.083  -2.467  0.00  0.00     0.093 C 
ATOM      2  C9  <0> d          -0.133  -0.706  -3.787  0.00  0.00     0.027 C 
ATOM      3  C10 <0> d           1.223  -0.436  -4.471  0.00  0.00     0.002 C 
ATOM      4  C11 <0> d           2.163  -0.036  -3.307  0.00  0.00     0.002 C 
ATOM      5  C12 <0> d           1.237   0.806  -2.394  0.00  0.00     0.027 C 
ENDROOT
BRANCH   1   6
ATOM      6  C7  <0> d          -0.271  -0.860  -1.300  0.00  0.00     0.235 C 
ATOM      7  N1  <0> d          -0.131  -0.401  -0.041  0.00  0.00    -0.353 N 
ATOM      8  C1  <0> d           0.050   1.032   0.201  0.00  0.00     0.152 C 
ATOM      9  O2  <0> d          -0.515  -2.032  -1.495  0.00  0.00    -0.272 OA
BRANCH   7  10
ATOM     10  C2  <0> d          -0.160  -1.336   1.087  0.00  0.00     0.157 C 
BRANCH  10  11
ATOM     11  C3  <0> d          -1.599  -1.498   1.579  0.00  0.00     0.139 C 
ATOM     12  O1  <0> d          -2.103  -0.244   2.066  0.00  0.00    -0.384 OA
ATOM     13  C6  <0> d          -2.946  -0.467   3.205  0.00  0.00     0.168 C 
ATOM     14  C5  <0> d          -2.953  -1.984   3.491  0.00  0.00     0.029 C 
ATOM     15  C4  <0> d          -1.648  -2.456   2.795  0.00  0.00     0.035 C 
ENDBRANCH  10  11
ENDBRANCH   7  10
ENDBRANCH   1   6
BRANCH   1  16
ATOM     16  C13 <0> d          -1.245   1.091  -2.459  0.00  0.00     0.089 C 
ATOM     17  S1  <0> d          -0.915   2.654  -2.527  0.00  0.00    -0.065 SA
ATOM     18  N2  <0> d          -2.525   0.675  -2.395  0.00  0.00    -0.392 N 
ATOM     19  H21 <0> d          -2.724  -0.268  -2.280  0.00  0.00     0.156 HD
ATOM     20  H22 <0> d          -3.248   1.318  -2.463  0.00  0.00     0.156 HD
ENDBRANCH   1  16
TORSDOF 4
