REMARK  5 active torsions:
REMARK  status: ('A' for Active; 'I' for Inactive)
REMARK    1  A    between atoms: C3_3  and  C6_6 
REMARK    2  A    between atoms: C6_6  and  C7_7 
REMARK       I    between atoms: C7_7  and  N1_9 
REMARK    3  A    between atoms: N1_9  and  C8_10 
REMARK    4  A    between atoms: C8_10  and  C9_11 
REMARK       I    between atoms: C9_11  and  N2_13 
REMARK    5  A    between atoms: N2_13  and  C10_14 
ROOT
ATOM      1  C8  <0> d           6.043  -2.255  -1.047  0.00  0.00     0.225 C 
ENDROOT
BRANCH   1   2
ATOM      2  N1  <0> d           5.388  -1.150  -0.343  0.00  0.00    -0.352 N 
ATOM      3  C7  <0> d           4.167  -0.732  -0.733  0.00  0.00     0.218 C 
ATOM      4  O1  <0> d           3.611  -1.271  -1.667  0.00  0.00    -0.274 OA
ATOM      5  H11 <0> d           5.832  -0.719   0.404  0.00  0.00     0.162 HD
BRANCH   3   6
ATOM      6  C6  <0> d           3.493   0.405  -0.009  0.00  0.00     0.111 C 
BRANCH   6   7
ATOM      7  C3  <0> d           2.129   0.678  -0.646  0.00  0.00     0.017 C 
ATOM      8  C2  <0> d           1.472   1.920  -0.002  0.00  0.00     0.012 C 
ATOM      9  C1  <0> d          -0.018   1.507   0.010  0.00  0.00     0.027 C 
ATOM     10  C5  <0> d           0.002  -0.004   0.002  0.00  0.00    -0.030 C 
ATOM     11  C4  <0> d           1.173  -0.456  -0.356  0.00  0.00    -0.026 C 
ENDBRANCH   6   7
ENDBRANCH   3   6
ENDBRANCH   1   2
BRANCH   1  12
ATOM     12  C9  <0> d           7.386  -2.523  -0.419  0.00  0.00     0.235 C 
ATOM     13  O2  <0> d           7.760  -1.857   0.523  0.00  0.00    -0.272 OA
ATOM     14  N2  <0> d           8.173  -3.504  -0.905  0.00  0.00    -0.354 N 
ATOM     15  H14 <0> d           7.875  -4.036  -1.659  0.00  0.00     0.162 HD
BRANCH  14  16
ATOM     16  C10 <0> d           9.479  -3.765  -0.295  0.00  0.00     0.099 C 
ATOM     17  C13 <0> d          10.417  -4.408  -1.345  0.00  0.00     0.165 C 
ATOM     18  S1  <0> d          11.485  -5.499  -0.319  0.00  0.00     0.146 S 
ATOM     19  C12 <0> d          10.710  -5.221   1.329  0.00  0.00     0.142 C 
ATOM     20  O3  <0> d          12.805  -4.974  -0.304  0.00  0.00    -0.228 OA
ATOM     21  O4  <0> d          11.274  -6.849  -0.707  0.00  0.00    -0.228 OA
ATOM     22  C11 <0> d           9.303  -4.715   0.901  0.00  0.00     0.041 C 
ENDBRANCH  14  16
ENDBRANCH   1  12
TORSDOF 5
