REMARK  4 active torsions:
REMARK  status: ('A' for Active; 'I' for Inactive)
REMARK    1  A    between atoms: C5_6  and  C6_7 
REMARK    2  A    between atoms: C6_7  and  C7_8 
REMARK    3  A    between atoms: C6_7  and  N2_11 
REMARK    4  A    between atoms: C7_8  and  N1_10 
ROOT
ATOM      1  C6  <0> d           0.028  -0.169   2.592  0.00  0.00     0.259 C 
ENDROOT
BRANCH   1   2
ATOM      2  C5  <0> d           0.023  -0.572   1.140  0.00  0.00     0.021 A 
ATOM      3  C2  <0> d           0.034   0.214   0.036  0.00  0.00    -0.046 A 
ATOM      4  C1  <0> d           0.053   1.715   0.166  0.00  0.00     0.049 C 
ATOM      5  C3  <0> d           0.033  -0.382  -1.211  0.00  0.00     0.015 A 
ATOM      6  C4  <0> d           0.015  -1.735  -1.293  0.00  0.00     0.051 A 
ATOM      7  S1  <0> d          -0.001  -2.209   0.428  0.00  0.00    -0.104 SA
ENDBRANCH   1   2
BRANCH   1   8
ATOM      8  C7  <0> d          -1.369  -0.373   3.183  0.00  0.00     0.215 C 
ATOM      9  C8  <0> d          -1.717  -1.863   3.164  0.00  0.00     0.042 C 
BRANCH   8  10
ATOM     10  N1  <0> d          -2.352   0.369   2.383  0.00  0.00    -0.073 N 
ATOM     11  H11 <0> d          -2.402  -0.028   1.457  0.00  0.00     0.274 HD
ATOM     12  H12 <0> d          -3.258   0.310   2.824  0.00  0.00     0.274 HD
ATOM     13  H22 <0> d          -2.072   1.337   2.320  0.00  0.00     0.274 HD
ENDBRANCH   8  10
ENDBRANCH   1   8
BRANCH   1  14
ATOM     14  N2  <0> d           0.996  -0.995   3.326  0.00  0.00    -0.052 N 
ATOM     15  C16 <0> d           2.371  -0.734   2.845  0.00  0.00     0.275 C 
ATOM     16  C15 <0> d           3.263  -0.881   4.057  0.00  0.00    -0.025 A 
ATOM     17  C10 <0> d           2.471  -0.802   5.190  0.00  0.00    -0.025 A 
ATOM     18  C14 <0> d           4.627  -1.065   4.180  0.00  0.00     0.009 A 
ATOM     19  C9  <0> d           1.038  -0.601   4.753  0.00  0.00     0.275 C 
ATOM     20  C11 <0> d           3.045  -0.907   6.442  0.00  0.00     0.009 A 
ATOM     21  C12 <0> d           4.410  -1.092   6.564  0.00  0.00     0.001 A 
ATOM     22  C13 <0> d           5.200  -1.170   5.433  0.00  0.00     0.001 A 
ATOM     23  H21 <0> d           0.768  -1.973   3.234  0.00  0.00     0.281 HD
ENDBRANCH   1  14
TORSDOF 4
