REMARK  4 active torsions:
REMARK  status: ('A' for Active; 'I' for Inactive)
REMARK    1  A    between atoms: C2_2  and  C3_3 
REMARK    2  A    between atoms: C3_3  and  N1_4 
REMARK    3  A    between atoms: C6_8  and  C7_9 
REMARK    4  A    between atoms: C15_22  and  S1_23 
ROOT
ATOM      1  N1  <0> d           3.399   2.398  -1.020  0.00  0.00    -0.289 N 
ATOM      2  C4  <0> d           2.359   1.586  -0.734  0.00  0.00     0.265 A 
ATOM      3  O1  <0> d           2.458   0.378  -0.836  0.00  0.00    -0.267 OA
ATOM      4  C5  <0> d           1.094   2.214  -0.297  0.00  0.00     0.106 A 
ATOM      5  C6  <0> d          -0.018   1.460   0.010  0.00  0.00     0.073 C 
ATOM      6  C14 <0> d           1.079   3.693  -0.198  0.00  0.00     0.285 A 
ATOM      7  O2  <0> d           0.075   4.285   0.159  0.00  0.00    -0.265 OA
ATOM      8  N4  <0> d           2.196   4.363  -0.512  0.00  0.00    -0.185 NA
ATOM      9  C15 <0> d           3.291   3.750  -0.900  0.00  0.00     0.172 A 
ENDROOT
BRANCH   5  10
ATOM     10  C7  <0> d           0.077  -0.001   0.052  0.00  0.00     0.130 A 
ATOM     11  N3  <0> d           1.014  -0.681   0.675  0.00  0.00    -0.229 NA
ATOM     12  C13 <0> d           0.801  -1.997   0.515  0.00  0.00     0.085 A 
ATOM     13  C8  <0> d          -0.356  -2.143  -0.279  0.00  0.00     0.062 A 
ATOM     14  C12 <0> d           1.478  -3.143   0.960  0.00  0.00     0.034 A 
ATOM     15  N2  <0> d          -0.795  -0.869  -0.558  0.00  0.00    -0.339 N 
ATOM     16  C9  <0> d          -0.810  -3.413  -0.610  0.00  0.00     0.032 A 
ATOM     17  H1  <0> d          -1.596  -0.622  -1.103  0.00  0.00     0.167 HD
ATOM     18  C10 <0> d          -0.127  -4.522  -0.159  0.00  0.00     0.002 A 
ATOM     19  C11 <0> d           1.014  -4.379   0.623  0.00  0.00     0.002 A 
ENDBRANCH   5  10
BRANCH   1  20
ATOM     20  C3  <0> d           4.668   1.813  -1.461  0.00  0.00     0.161 C 
BRANCH  20  21
ATOM     21  C2  <0> d           5.533   1.527  -0.262  0.00  0.00    -0.017 C 
ATOM     22  C1  <0> d           6.006   0.321  -0.067  0.00  0.00     0.008 C 
ENDBRANCH  20  21
ENDBRANCH   1  20
BRANCH   9  23
ATOM     23  S1  <0> d           4.701   4.734  -1.288  0.00  0.00    -0.105 SA
ATOM     24  H12 <0> d           4.178   6.019  -1.040  0.00  0.00     0.110 HD
ENDBRANCH   9  23
TORSDOF 4
