REMARK  3 active torsions:
REMARK  status: ('A' for Active; 'I' for Inactive)
REMARK    1  A    between atoms: O1_2  and  C2_3 
REMARK    2  A    between atoms: C5_6  and  N1_9 
REMARK    3  A    between atoms: C12_19  and  C13_20 
ROOT
ATOM      1  N1  <0> d           2.459  -2.458  -4.303  0.00  0.00    -0.246 N 
ATOM      2  C8  <0> d           2.950  -1.789  -5.361  0.00  0.00     0.266 C 
ATOM      3  O2  <0> d           3.039  -0.577  -5.437  0.00  0.00    -0.267 OA
ATOM      4  C9  <0> d           3.342  -2.681  -6.360  0.00  0.00     0.080 C 
ATOM      5  H1  <0> d           4.019  -4.902  -8.499  0.00  0.00     0.194 HD
ATOM      6  C10 <0> d           3.501  -4.009  -5.607  0.00  0.00     0.285 C 
ATOM      7  C11 <0> d           2.635  -3.795  -4.402  0.00  0.00     0.268 C 
ATOM      8  O3  <0> d           2.183  -4.647  -3.668  0.00  0.00    -0.269 OA
ATOM      9  O4  <0> d           2.991  -4.920  -6.592  0.00  0.00    -0.260 OA
ATOM     10  N2  <0> d           3.634  -4.391  -7.770  0.00  0.00    -0.264 N 
ATOM     11  C12 <0> d           3.593  -3.009  -7.656  0.00  0.00     0.079 C 
ENDROOT
BRANCH   1  12
ATOM     12  C5  <0> d           1.836  -1.836  -3.211  0.00  0.00     0.045 A 
ATOM     13  C4  <0> d           1.479  -2.583  -2.097  0.00  0.00     0.033 A 
ATOM     14  C3  <0> d           0.867  -1.970  -1.022  0.00  0.00     0.039 A 
ATOM     15  C2  <0> d           0.608  -0.607  -1.055  0.00  0.00     0.068 A 
ATOM     16  C7  <0> d           0.959   0.139  -2.171  0.00  0.00     0.039 A 
ATOM     17  C6  <0> d           1.577  -0.472  -3.244  0.00  0.00     0.033 A 
BRANCH  15  18
ATOM     18  O1  <0> d           0.004  -0.004   0.003  0.00  0.00    -0.356 OA
ATOM     19  C1  <0> d          -0.330  -0.833   1.119  0.00  0.00     0.210 C 
ENDBRANCH  15  18
ENDBRANCH   1  12
BRANCH  11  20
ATOM     20  C13 <0> d           3.790  -2.050  -8.761  0.00  0.00    -0.007 A 
ATOM     21  C18 <0> d           4.043  -2.513 -10.055  0.00  0.00     0.015 A 
ATOM     22  C17 <0> d           4.220  -1.613 -11.084  0.00  0.00     0.020 A 
ATOM     23  C16 <0> d           4.161  -0.252 -10.835  0.00  0.00     0.011 A 
ATOM     24  C15 <0> d           3.917   0.214  -9.554  0.00  0.00     0.020 A 
ATOM     25 Br1  <0> d           4.414   0.976 -12.251  0.00  0.00    -0.051 Br
ATOM     26  C14 <0> d           3.732  -0.676  -8.517  0.00  0.00     0.015 A 
ENDBRANCH  11  20
TORSDOF 3
