REMARK  8 active torsions:
REMARK  status: ('A' for Active; 'I' for Inactive)
REMARK    1  A    between atoms: C2_2  and  S1_3 
REMARK    2  A    between atoms: S1_3  and  N1_6 
REMARK    3  A    between atoms: N1_6  and  C3_7 
REMARK    4  A    between atoms: C3_7  and  C4_8 
REMARK    5  A    between atoms: C4_8  and  C5_9 
REMARK    6  A    between atoms: C5_9  and  N2_10 
REMARK       I    between atoms: N2_10  and  C6_11 
REMARK    7  A    between atoms: C6_11  and  C7_13 
REMARK       I    between atoms: C7_13  and  N3_15 
REMARK    8  A    between atoms: N3_15  and  C8_16 
ROOT
ATOM      1  N2  <0> d           2.520  -6.548  -0.280  0.00  0.00    -0.353 N 
ATOM      2  C6  <0> d           3.128  -7.372  -1.157  0.00  0.00     0.309 C 
ATOM      3  O3  <0> d           3.587  -6.928  -2.189  0.00  0.00    -0.262 OA
ATOM      4  H13 <0> d           2.154  -6.903   0.545  0.00  0.00     0.162 HD
ENDROOT
BRANCH   2   5
ATOM      5  C7  <0> d           3.239  -8.831  -0.858  0.00  0.00     0.313 C 
ATOM      6  O4  <0> d           2.781  -9.275   0.174  0.00  0.00    -0.262 OA
ATOM      7  N3  <0> d           3.847  -9.654  -1.734  0.00  0.00    -0.318 N 
ATOM      8  H14 <0> d           4.142  -9.315  -2.594  0.00  0.00     0.169 HD
BRANCH   7   9
ATOM      9  C8  <0> d           4.053 -10.996  -1.405  0.00  0.00     0.041 A 
ATOM     10  C13 <0> d           4.178 -11.948  -2.409  0.00  0.00    -0.035 A 
ATOM     11  C12 <0> d           4.388 -13.273  -2.079  0.00  0.00     0.009 A 
ATOM     12  C14 <0> d           4.090 -11.535  -3.855  0.00  0.00     0.050 C 
ATOM     13  C11 <0> d           4.462 -13.654  -0.752  0.00  0.00     0.007 A 
ATOM     14  C10 <0> d           4.333 -12.710   0.250  0.00  0.00    -0.060 A 
ATOM     15  C9  <0> d           4.129 -11.382  -0.072  0.00  0.00     0.037 A 
ATOM     16  C15 <0> d           4.415 -13.129   1.695  0.00  0.00     0.048 C 
ENDBRANCH   7   9
ENDBRANCH   2   5
BRANCH   1  17
ATOM     17  C5  <0> d           2.412  -5.117  -0.574  0.00  0.00     0.125 C 
BRANCH  17  18
ATOM     18  C4  <0> d           1.684  -4.415   0.574  0.00  0.00     0.040 C 
BRANCH  18  19
ATOM     19  C3  <0> d           1.571  -2.920   0.268  0.00  0.00     0.133 C 
BRANCH  19  20
ATOM     20  N1  <0> d           0.873  -2.248   1.367  0.00  0.00    -0.319 N 
ATOM     21  H6  <0> d           0.380  -2.769   2.019  0.00  0.00     0.172 HD
BRANCH  20  22
ATOM     22  S1  <0> d           0.929  -0.598   1.496  0.00  0.00     0.226 S 
ATOM     23  O1  <0> d           2.310  -0.274   1.419  0.00  0.00    -0.206 OA
ATOM     24  O2  <0> d           0.180  -0.300   2.667  0.00  0.00    -0.206 OA
BRANCH  22  25
ATOM     25  C2  <0> d           0.060   0.014   0.026  0.00  0.00     0.158 C 
ATOM     26  C1  <0> d           0.049   1.544   0.040  0.00  0.00     0.023 C 
ENDBRANCH  22  25
ENDBRANCH  20  22
ENDBRANCH  19  20
ENDBRANCH  18  19
ENDBRANCH  17  18
ENDBRANCH   1  17
TORSDOF 8
