REMARK  3 active torsions:
REMARK  status: ('A' for Active; 'I' for Inactive)
REMARK    1  A    between atoms: C3_3  and  C6_8 
REMARK    2  A    between atoms: C6_8  and  N3_10 
REMARK    3  A    between atoms: N3_10  and  C8_11 
ROOT
ATOM      1  N3  <0> d          -0.581  -1.375  -3.381  0.00  0.00    -0.059 N 
ATOM      2  H13 <0> d           0.022  -2.184  -3.371  0.00  0.00     0.278 HD
ATOM      3  H26 <0> d          -1.492  -1.630  -3.032  0.00  0.00     0.278 HD
ENDROOT
BRANCH   1   4
ATOM      4  C6  <0> d          -0.006  -0.327  -2.527  0.00  0.00     0.219 C 
ATOM      5  C7  <0> d           1.425  -0.028  -2.980  0.00  0.00     0.045 C 
BRANCH   4   6
ATOM      6  C3  <0> d           0.008  -0.796  -1.095  0.00  0.00     0.015 A 
ATOM      7  C2  <0> d           0.002  -0.004   0.002  0.00  0.00     0.036 A 
ATOM      8  C1  <0> d          -0.018   1.503   0.010  0.00  0.00     0.070 C 
ATOM      9  N2  <0> d           0.024  -0.805   1.088  0.00  0.00    -0.278 N 
ATOM     10  N1  <0> d           0.035  -2.134   0.643  0.00  0.00    -0.184 NA
ATOM     11  C5  <0> d           0.031  -0.364   2.485  0.00  0.00     0.179 C 
ATOM     12  C4  <0> d           0.028  -2.127  -0.666  0.00  0.00     0.150 A 
ENDBRANCH   4   6
ENDBRANCH   1   4
BRANCH   1  13
ATOM     13  C8  <0> d          -0.705  -0.874  -4.756  0.00  0.00     0.220 C 
ATOM     14  C14 <0> d          -1.711   0.257  -4.797  0.00  0.00    -0.021 A 
ATOM     15  C13 <0> d          -1.845   1.020  -5.927  0.00  0.00    -0.050 A 
ATOM     16  C15 <0> d          -2.497   0.511  -3.687  0.00  0.00     0.010 A 
ATOM     17  C12 <0> d          -0.980   0.743  -7.138  0.00  0.00     0.039 C 
ATOM     18  C18 <0> d          -2.767   2.051  -5.969  0.00  0.00     0.007 A 
ATOM     19  C11 <0> d          -1.438  -0.574  -7.771  0.00  0.00     0.005 C 
ATOM     20  C10 <0> d          -0.765  -1.757  -7.104  0.00  0.00     0.003 C 
ATOM     21  C9  <0> d          -1.196  -1.998  -5.671  0.00  0.00     0.038 C 
ATOM     22  C17 <0> d          -3.548   2.315  -4.861  0.00  0.00     0.001 A 
ATOM     23  C16 <0> d          -3.417   1.543  -3.722  0.00  0.00     0.001 A 
ENDBRANCH   1  13
TORSDOF 3
