REMARK  3 active torsions:
REMARK  status: ('A' for Active; 'I' for Inactive)
REMARK    1  A    between atoms: C6_6  and  N1_9 
REMARK    2  A    between atoms: N1_9  and  C9_10 
REMARK    3  A    between atoms: C9_10  and  C11_12 
ROOT
ATOM      1  C9  <0> d           0.071  -4.261   2.379  0.00  0.00     0.118 C 
ATOM      2  C10 <0> d          -1.360  -4.789   2.257  0.00  0.00     0.037 C 
ENDROOT
BRANCH   1   3
ATOM      3  N1  <0> d           0.051  -2.796   2.390  0.00  0.00    -0.381 N 
ATOM      4  H12 <0> d           0.049  -2.318   3.234  0.00  0.00     0.160 HD
BRANCH   3   5
ATOM      5  C6  <0> d           0.036  -2.089   1.186  0.00  0.00     0.035 A 
ATOM      6  C5  <0> d           0.039  -2.773  -0.023  0.00  0.00     0.029 A 
ATOM      7  C4  <0> d           0.024  -2.071  -1.212  0.00  0.00     0.003 A 
ATOM      8  C3  <0> d           0.006  -0.688  -1.200  0.00  0.00     0.007 A 
ATOM      9  C2  <0> d           0.002  -0.004   0.002  0.00  0.00    -0.054 A 
ATOM     10  C1  <0> d          -0.018   1.503   0.010  0.00  0.00     0.049 C 
ATOM     11  C7  <0> d           0.023  -0.700   1.194  0.00  0.00    -0.030 A 
ATOM     12  C8  <0> d           0.025   0.046   2.504  0.00  0.00     0.051 C 
ENDBRANCH   3   5
ENDBRANCH   1   3
BRANCH   1  13
ATOM     13  C11 <0> d           0.684  -4.765   3.660  0.00  0.00     0.056 A 
ATOM     14  C14 <0> d           0.170  -4.366   4.911  0.00  0.00     0.257 A 
ATOM     15  N3  <0> d           0.748  -4.848   6.032  0.00  0.00    -0.311 N 
ATOM     16  O1  <0> d          -0.781  -3.605   4.979  0.00  0.00    -0.267 OA
ATOM     17  C13 <0> d           1.802  -5.683   5.938  0.00  0.00     0.103 A 
ATOM     18  H2  <0> d           0.409  -4.590   6.903  0.00  0.00     0.170 HD
ATOM     19  N2  <0> d           2.282  -6.048   4.779  0.00  0.00    -0.240 NA
ATOM     20  C15 <0> d           2.441  -6.207   7.198  0.00  0.00     0.091 C 
ATOM     21  C12 <0> d           1.751  -5.612   3.635  0.00  0.00     0.046 A 
ATOM     22  C16 <0> d           2.330  -6.055   2.316  0.00  0.00     0.071 C 
ENDBRANCH   1  13
TORSDOF 3
