REMARK  6 active torsions:
REMARK  status: ('A' for Active; 'I' for Inactive)
REMARK    1  A    between atoms: C4_5  and  C5_7 
REMARK    2  A    between atoms: C5_7  and  N2_8 
REMARK    3  A    between atoms: N2_8  and  C6_9 
REMARK    4  A    between atoms: C6_9  and  C7_10 
REMARK    5  A    between atoms: C7_10  and  C8_11 
REMARK    6  A    between atoms: C7_10  and  O1_18 
ROOT
ATOM      1  C6  <0> d          -1.344  -4.204   3.815  0.00  0.00     0.306 C 
ENDROOT
BRANCH   1   2
ATOM      2  N2  <0> d          -1.324  -3.282   2.671  0.00  0.00     0.092 N 
ATOM      3  H8  <0> d          -1.851  -2.445   2.872  0.00  0.00     0.316 HD
BRANCH   2   4
ATOM      4  C5  <0> d           0.055  -2.955   2.284  0.00  0.00     0.336 C 
BRANCH   4   5
ATOM      5  C4  <0> d           0.036  -2.009   1.111  0.00  0.00     0.103 A 
ATOM      6  S1  <0> d           0.032  -2.379  -0.531  0.00  0.00    -0.083 SA
ATOM      7  C3  <0> d           0.006  -0.708  -1.159  0.00  0.00     0.078 A 
ATOM      8  C2  <0> d           0.002  -0.004   0.002  0.00  0.00     0.038 A 
ATOM      9  C1  <0> d          -0.018   1.503   0.010  0.00  0.00     0.071 C 
ATOM     10  N1  <0> d           0.023  -0.699   1.122  0.00  0.00    -0.249 NA
ENDBRANCH   4   5
ENDBRANCH   2   4
ENDBRANCH   1   2
BRANCH   1  11
ATOM     11  C7  <0> d          -2.794  -4.521   4.189  0.00  0.00     0.179 C 
BRANCH  11  12
ATOM     12  C8  <0> d          -2.817  -5.367   5.435  0.00  0.00    -0.027 A 
ATOM     13  C13 <0> d          -3.078  -4.785   6.661  0.00  0.00     0.028 A 
ATOM     14  C12 <0> d          -3.105  -5.563   7.804  0.00  0.00     0.011 A 
ATOM     15  C11 <0> d          -2.861  -6.922   7.722  0.00  0.00     0.019 A 
ATOM     16 Br1  <0> d          -3.470  -4.769   9.481  0.00  0.00    -0.051 Br
ATOM     17  C10 <0> d          -2.594  -7.503   6.496  0.00  0.00     0.002 A 
ATOM     18  C9  <0> d          -2.572  -6.726   5.353  0.00  0.00     0.010 A 
ENDBRANCH  11  12
BRANCH  11  19
ATOM     19  O1  <0> d          -3.417  -5.232   3.118  0.00  0.00    -0.389 OA
ATOM     20  H15 <0> d          -2.989  -6.072   2.901  0.00  0.00     0.210 HD
ENDBRANCH  11  19
ENDBRANCH   1  11
TORSDOF 6
