REMARK  4 active torsions:
REMARK  status: ('A' for Active; 'I' for Inactive)
REMARK       I    between atoms: N2_4  and  C6_11 
REMARK    1  A    between atoms: C3_5  and  C5_7 
REMARK    2  A    between atoms: C3_5  and  O1_10 
REMARK    3  A    between atoms: C6_11  and  C7_13 
REMARK    4  A    between atoms: C9_15  and  C10_18 
ROOT
ATOM      1  C7  <0> d           0.026  -2.703  -3.190  0.00  0.00     0.250 A 
ATOM      2  C8  <0> d          -1.388  -2.409  -3.658  0.00  0.00     0.046 A 
ATOM      3  C9  <0> d          -1.614  -3.338  -4.606  0.00  0.00     0.087 A 
ATOM      4  N3  <0> d          -0.524  -4.137  -4.757  0.00  0.00    -0.154 NA
ATOM      5  N4  <0> d           0.425  -3.854  -4.016  0.00  0.00    -0.173 NA
ENDROOT
BRANCH   1   6
ATOM      6  C6  <0> d           0.037  -3.068  -1.728  0.00  0.00     0.273 C 
ATOM      7  N2  <0> d           0.028  -2.099  -0.791  0.00  0.00    -0.194 N 
ATOM      8  N1  <0> d           0.008  -0.729  -1.041  0.00  0.00    -0.176 NA
ATOM      9  C3  <0> d           0.038  -2.314   0.665  0.00  0.00     0.222 A 
ATOM     10  C2  <0> d           0.002  -0.004   0.002  0.00  0.00     0.034 A 
ATOM     11  C1  <0> d          -0.018   1.503   0.010  0.00  0.00     0.067 C 
ATOM     12  C4  <0> d           0.026  -0.880   1.234  0.00  0.00     0.125 A 
ATOM     13  O2  <0> d           0.055  -4.234  -1.394  0.00  0.00    -0.269 OA
BRANCH   9  14
ATOM     14  C5  <0> d          -1.208  -3.085   1.106  0.00  0.00     0.410 C 
ATOM     15  F1  <0> d          -1.221  -4.341   0.491  0.00  0.00    -0.209 F 
ATOM     16  F2  <0> d          -1.190  -3.246   2.496  0.00  0.00    -0.209 F 
ENDBRANCH   9  14
BRANCH   9  17
ATOM     17  O1  <0> d           1.225  -3.001   1.066  0.00  0.00    -0.364 OA
ATOM     18  H8  <0> d           1.321  -3.881   0.677  0.00  0.00     0.213 HD
ENDBRANCH   9  17
ENDBRANCH   1   6
BRANCH   3  19
ATOM     19  C10 <0> d          -2.874  -3.472  -5.378  0.00  0.00    -0.003 A 
ATOM     20  C15 <0> d          -3.002  -4.473  -6.339  0.00  0.00     0.053 A 
ATOM     21  C14 <0> d          -4.179  -4.597  -7.053  0.00  0.00     0.105 A 
ATOM     22  C13 <0> d          -5.233  -3.716  -6.818  0.00  0.00     0.105 A 
ATOM     23  O3  <0> d          -4.556  -5.476  -8.028  0.00  0.00    -0.323 OA
ATOM     24  C12 <0> d          -5.102  -2.717  -5.864  0.00  0.00     0.040 A 
ATOM     25  O4  <0> d          -6.268  -4.043  -7.645  0.00  0.00    -0.323 OA
ATOM     26  C11 <0> d          -3.930  -2.592  -5.146  0.00  0.00     0.017 A 
ATOM     27  C16 <0> d          -5.991  -5.382  -8.097  0.00  0.00     0.352 C 
ENDBRANCH   3  19
TORSDOF 4
