REMARK  6 active torsions:
REMARK  status: ('A' for Active; 'I' for Inactive)
REMARK    1  A    between atoms: C3_4  and  C4_5 
REMARK    2  A    between atoms: C7_8  and  O2_13 
REMARK    3  A    between atoms: C8_9  and  O1_11 
REMARK    4  A    between atoms: O2_13  and  C11_14 
REMARK    5  A    between atoms: C11_14  and  C12_15 
REMARK    6  A    between atoms: C15_18  and  N2_21 
ROOT
ATOM      1  C4  <0> d           1.763   0.256   0.895  0.00  0.00    -0.031 A 
ATOM      2  C5  <0> d           1.617   1.560   1.381  0.00  0.00     0.014 A 
ATOM      3  C6  <0> d           0.392   1.990   1.841  0.00  0.00     0.040 A 
ATOM      4  C7  <0> d          -0.700   1.133   1.824  0.00  0.00     0.102 A 
ATOM      5  C8  <0> d          -0.565  -0.166   1.336  0.00  0.00     0.102 A 
ATOM      6  C9  <0> d           0.661  -0.608   0.878  0.00  0.00     0.051 A 
ENDROOT
BRANCH   1   7
ATOM      7  C3  <0> d           3.068  -0.206   0.403  0.00  0.00     0.047 C 
ATOM      8  C2  <0> d           3.849   0.626  -0.331  0.00  0.00     0.120 A 
ATOM      9  N1  <0> d           5.170   0.403  -0.736  0.00  0.00    -0.182 N 
ATOM     10  C18 <0> d           3.482   1.948  -0.857  0.00  0.00     0.287 A 
ATOM     11  C1  <0> d           5.975  -0.786  -0.443  0.00  0.00     0.176 C 
ATOM     12  C19 <0> d           5.574   1.497  -1.458  0.00  0.00     0.681 A 
ATOM     13  N3  <0> d           4.556   2.417  -1.522  0.00  0.00    -0.154 N 
ATOM     14  N4  <0> d           6.787   1.584  -1.984  0.00  0.00    -0.234 N 
ATOM     15  H17 <0> d           4.604   3.273  -1.976  0.00  0.00     0.187 HD
ATOM     16  H18 <0> d           7.055   2.415  -2.513  0.00  0.00     0.174 HD
ATOM     17  H19 <0> d           7.457   0.817  -1.859  0.00  0.00     0.174 HD
ATOM     18  O5  <0> d           2.413   2.513  -0.719  0.00  0.00    -0.265 OA
ENDBRANCH   1   7
BRANCH   5  19
ATOM     19  O1  <0> d          -1.639  -1.000   1.316  0.00  0.00    -0.353 OA
ATOM     20  C10 <0> d          -1.427  -2.318   0.808  0.00  0.00     0.210 C 
ENDBRANCH   5  19
BRANCH   4  21
ATOM     21  O2  <0> d          -1.906   1.563   2.279  0.00  0.00    -0.344 OA
BRANCH  21  22
ATOM     22  C11 <0> d          -1.976   2.907   2.760  0.00  0.00     0.214 C 
BRANCH  22  23
ATOM     23  C12 <0> d          -3.381   3.203   3.220  0.00  0.00    -0.034 A 
ATOM     24  C17 <0> d          -3.745   2.960   4.531  0.00  0.00     0.012 A 
ATOM     25  C16 <0> d          -5.033   3.232   4.953  0.00  0.00     0.037 A 
ATOM     26  C15 <0> d          -5.957   3.748   4.064  0.00  0.00     0.102 A 
ATOM     27  C14 <0> d          -5.593   3.991   2.752  0.00  0.00     0.037 A 
ATOM     28  C13 <0> d          -4.303   3.724   2.332  0.00  0.00     0.012 A 
BRANCH  26  29
ATOM     29  N2  <0> d          -7.336   4.039   4.515  0.00  0.00    -0.116 N 
ATOM     30  O3  <0> d          -7.657   3.824   5.670  0.00  0.00    -0.532 OA
ATOM     31  O4  <0> d          -8.150   4.493   3.731  0.00  0.00    -0.532 OA
ENDBRANCH  26  29
ENDBRANCH  22  23
ENDBRANCH  21  22
ENDBRANCH   4  21
TORSDOF 6
