REMARK  7 active torsions:
REMARK  status: ('A' for Active; 'I' for Inactive)
REMARK    1  A    between atoms: C2_2  and  S1_3 
REMARK    2  A    between atoms: S1_3  and  C3_4 
REMARK    3  A    between atoms: C4_6  and  N3_19 
REMARK    4  A    between atoms: N3_19  and  C14_20 
REMARK    5  A    between atoms: C14_20  and  C15_21 
REMARK    6  A    between atoms: C15_21  and  C16_22 
REMARK    7  A    between atoms: C16_22  and  N4_26 
ROOT
ATOM      1  C3  <0> d           0.015   0.012   0.219  0.00  0.00     0.191 A 
ATOM      2  N1  <0> d           1.159  -0.662   0.197  0.00  0.00    -0.204 NA
ATOM      3  C4  <0> d           2.320  -0.068  -0.020  0.00  0.00     0.140 A 
ATOM      4  C5  <0> d           2.353   1.339  -0.238  0.00  0.00     0.053 A 
ATOM      5  C6  <0> d           3.506   2.200  -0.495  0.00  0.00    -0.023 A 
ATOM      6  C7  <0> d           3.264   3.516  -0.669  0.00  0.00     0.016 A 
ATOM      7  S2  <0> d           1.509   3.688  -0.505  0.00  0.00    -0.071 SA
ATOM      8  C8  <0> d           1.102   1.988  -0.201  0.00  0.00     0.115 A 
ATOM      9  N2  <0> d          -0.015   1.323   0.022  0.00  0.00    -0.215 NA
ATOM     10  C9  <0> d           4.285   4.577  -0.943  0.00  0.00     0.215 C 
ATOM     11  O1  <0> d           5.582   4.021  -0.673  0.00  0.00    -0.376 OA
ATOM     12  C10 <0> d           5.791   2.742  -1.277  0.00  0.00     0.058 C 
ATOM     13  C11 <0> d           4.940   1.681  -0.573  0.00  0.00     0.078 C 
ATOM     14  C12 <0> d           5.398   2.809  -2.755  0.00  0.00     0.046 C 
ATOM     15  C13 <0> d           7.268   2.362  -1.162  0.00  0.00     0.046 C 
ENDROOT
BRANCH   3  16
ATOM     16  N3  <0> d           3.490  -0.805  -0.035  0.00  0.00    -0.374 N 
ATOM     17  H16 <0> d           4.346  -0.355  -0.113  0.00  0.00     0.161 HD
BRANCH  16  18
ATOM     18  C14 <0> d           3.437  -2.265   0.069  0.00  0.00     0.123 C 
BRANCH  18  19
ATOM     19  C15 <0> d           4.858  -2.831   0.028  0.00  0.00     0.047 C 
BRANCH  19  20
ATOM     20  C16 <0> d           4.803  -4.356   0.136  0.00  0.00     0.231 C 
BRANCH  20  21
ATOM     21  N4  <0> d           6.177  -4.889   0.118  0.00  0.00    -0.079 N 
ATOM     22  H23 <0> d           6.158  -5.906   0.167  0.00  0.00     0.274 HD
ATOM     23  H24 <0> d           6.653  -4.599  -0.735  0.00  0.00     0.274 HD
ATOM     24  H25 <0> d           6.691  -4.524   0.929  0.00  0.00     0.274 HD
ENDBRANCH  20  21
ENDBRANCH  19  20
ENDBRANCH  18  19
ENDBRANCH  16  18
ENDBRANCH   3  16
BRANCH   1  25
ATOM     25  S1  <0> d          -1.492  -0.853   0.514  0.00  0.00    -0.090 SA
BRANCH  25  26
ATOM     26  C2  <0> d          -2.665   0.523   0.432  0.00  0.00     0.078 C 
ATOM     27  C1  <0> d          -4.083  -0.001   0.666  0.00  0.00     0.016 C 
ENDBRANCH  25  26
ENDBRANCH   1  25
TORSDOF 7
