REMARK  3 active torsions:
REMARK  status: ('A' for Active; 'I' for Inactive)
REMARK    1  A    between atoms: C2_2  and  C3_3 
REMARK    2  A    between atoms: C2_2  and  N4_9 
REMARK    3  A    between atoms: N4_9  and  C6_10 
ROOT
ATOM      1  N4  <0> d          -1.279  -0.513   0.084  0.00  0.00    -0.056 N 
ATOM      2  H10 <0> d          -1.504   0.069   0.876  0.00  0.00     0.278 HD
ATOM      3  H19 <0> d          -0.283  -0.489  -0.079  0.00  0.00     0.278 HD
ENDROOT
BRANCH   1   4
ATOM      4  C2  <0> d          -1.696  -1.895   0.357  0.00  0.00     0.253 C 
ATOM      5  C1  <0> d          -1.175  -2.813  -0.750  0.00  0.00     0.048 C 
BRANCH   4   6
ATOM      6  C3  <0> d          -1.134  -2.337   1.683  0.00  0.00     0.160 A 
ATOM      7  N3  <0> d          -1.802  -3.001   2.658  0.00  0.00    -0.330 N 
ATOM      8  C4  <0> d          -0.910  -3.191   3.660  0.00  0.00     0.235 A 
ATOM      9  C5  <0> d          -3.203  -3.428   2.632  0.00  0.00     0.158 C 
ATOM     10  N2  <0> d           0.218  -2.654   3.283  0.00  0.00    -0.143 NA
ATOM     11  N1  <0> d           0.085  -2.147   2.108  0.00  0.00    -0.133 NA
ENDBRANCH   4   6
ENDBRANCH   1   4
BRANCH   1  12
ATOM     12  C6  <0> d          -1.982  -0.015  -1.106  0.00  0.00     0.221 C 
ATOM     13  C10 <0> d          -1.460  -0.740  -2.310  0.00  0.00    -0.011 A 
ATOM     14  C9  <0> d          -2.222  -1.106  -3.402  0.00  0.00     0.009 A 
ATOM     15  C11 <0> d          -0.102  -1.052  -2.309  0.00  0.00     0.011 A 
ATOM     16  S1  <0> d          -3.954  -0.774  -3.485  0.00  0.00    -0.129 SA
ATOM     17  C14 <0> d          -1.630  -1.762  -4.482  0.00  0.00     0.019 A 
ATOM     18  C8  <0> d          -4.224   0.380  -2.108  0.00  0.00     0.082 C 
ATOM     19  C7  <0> d          -3.476  -0.184  -0.892  0.00  0.00     0.048 C 
ATOM     20  C13 <0> d          -0.290  -2.064  -4.469  0.00  0.00     0.001 A 
ATOM     21  C12 <0> d           0.477  -1.706  -3.375  0.00  0.00     0.001 A 
ENDBRANCH   1  12
TORSDOF 3
