REMARK  7 active torsions:
REMARK  status: ('A' for Active; 'I' for Inactive)
REMARK    1  A    between atoms: N1_2  and  C2_3 
REMARK    2  A    between atoms: N1_2  and  S1_7 
REMARK    3  A    between atoms: C2_3  and  C3_4 
REMARK    4  A    between atoms: S1_7  and  C6_10 
REMARK    5  A    between atoms: C9_13  and  C12_17 
REMARK    6  A    between atoms: C13_18  and  C14_19 
REMARK    7  A    between atoms: C14_19  and  N2_20 
ROOT
ATOM      1  C6  <0> d           1.682  -1.059  -1.905  0.00  0.00     0.101 A 
ATOM      2  C7  <0> d           2.205  -2.338  -1.975  0.00  0.00     0.028 A 
ATOM      3  C8  <0> d           3.522  -2.529  -2.341  0.00  0.00     0.022 A 
ATOM      4  C9  <0> d           4.326  -1.429  -2.642  0.00  0.00     0.019 A 
ATOM      5  C10 <0> d           3.793  -0.142  -2.570  0.00  0.00     0.046 A 
ATOM      6  C11 <0> d           2.473   0.036  -2.208  0.00  0.00     0.058 A 
ATOM      7 Cl1  <0> d           1.805   1.636  -2.124  0.00  0.00    -0.083 Cl
ENDROOT
BRANCH   1   8
ATOM      8  S1  <0> d          -0.000  -0.824  -1.437  0.00  0.00     0.262 S 
ATOM      9  O1  <0> d          -0.531  -2.115  -1.167  0.00  0.00    -0.200 OA
ATOM     10  O2  <0> d          -0.572   0.049  -2.401  0.00  0.00    -0.200 OA
BRANCH   8  11
ATOM     11  N1  <0> d           0.002  -0.004   0.002  0.00  0.00    -0.311 N 
ATOM     12  C1  <0> d          -0.018   1.461   0.010  0.00  0.00     0.163 C 
BRANCH  11  13
ATOM     13  C2  <0> d           0.024  -0.743   1.267  0.00  0.00     0.139 C 
BRANCH  13  14
ATOM     14  C3  <0> d          -1.406  -0.912   1.784  0.00  0.00     0.004 A 
ATOM     15  C5  <0> d          -1.607  -1.762   3.040  0.00  0.00     0.007 A 
ATOM     16  C4  <0> d          -1.760  -0.242   3.113  0.00  0.00     0.007 A 
ENDBRANCH  13  14
ENDBRANCH  11  13
ENDBRANCH   8  11
ENDBRANCH   1   8
BRANCH   4  17
ATOM     17  C12 <0> d           5.694  -1.621  -3.022  0.00  0.00    -0.065 C 
ATOM     18  C13 <0> d           6.814  -1.779  -3.334  0.00  0.00    -0.074 C 
BRANCH  18  19
ATOM     19  C14 <0> d           8.220  -1.976  -3.724  0.00  0.00     0.323 C 
BRANCH  19  20
ATOM     20  N2  <0> d           8.843  -0.672  -3.986  0.00  0.00    -0.069 N 
ATOM     21  H16 <0> d           8.348  -0.207  -4.732  0.00  0.00     0.275 HD
ATOM     22  H17 <0> d           8.802  -0.106  -3.152  0.00  0.00     0.275 HD
ATOM     23  H18 <0> d           9.806  -0.807  -4.254  0.00  0.00     0.275 HD
ENDBRANCH  19  20
ENDBRANCH  18  19
ENDBRANCH   4  17
TORSDOF 7
