REMARK  3 active torsions:
REMARK  status: ('A' for Active; 'I' for Inactive)
REMARK    1  A    between atoms: C3_3  and  C5_6 
REMARK    2  A    between atoms: C5_6  and  N1_7 
REMARK    3  A    between atoms: C8_11  and  C9_12 
ROOT
ATOM      1  C9  <0> d           5.737   2.418   5.540  0.00  0.00     0.034 A 
ATOM      2  C10 <0> d           6.036   3.478   6.384  0.00  0.00     0.030 A 
ATOM      3  C11 <0> d           6.573   3.210   7.662  0.00  0.00    -0.006 A 
ATOM      4  C12 <0> d           6.886   4.268   8.533  0.00  0.00     0.053 A 
ATOM      5  C13 <0> d           7.407   4.005   9.768  0.00  0.00     0.105 A 
ATOM      6  C14 <0> d           7.632   2.683  10.174  0.00  0.00     0.107 A 
ATOM      7  C15 <0> d           7.329   1.630   9.329  0.00  0.00     0.070 A 
ATOM      8  C16 <0> d           6.799   1.879   8.068  0.00  0.00     0.048 A 
ATOM      9  N2  <0> d           6.500   0.827   7.226  0.00  0.00    -0.322 N 
ATOM     10  H1  <0> d           6.661  -0.083   7.521  0.00  0.00     0.169 HD
ATOM     11  C17 <0> d           5.982   1.045   6.002  0.00  0.00     0.256 A 
ATOM     12  O3  <0> d           5.720   0.103   5.276  0.00  0.00    -0.267 OA
ATOM     13  O4  <0> d           8.151   2.700  11.435  0.00  0.00    -0.323 OA
ATOM     14  C18 <0> d           8.626   4.043  11.639  0.00  0.00     0.352 C 
ATOM     15  O5  <0> d           7.788   4.839  10.780  0.00  0.00    -0.323 OA
ENDROOT
BRANCH   1  16
ATOM     16  C8  <0> d           5.179   2.663   4.210  0.00  0.00     0.041 C 
ATOM     17  C7  <0> d           4.127   3.512   4.059  0.00  0.00     0.077 A 
ATOM     18  C6  <0> d           3.488   4.008   2.826  0.00  0.00     0.266 A 
ATOM     19  S1  <0> d           3.139   4.334   5.302  0.00  0.00    -0.055 SA
ATOM     20  N1  <0> d           2.468   4.836   2.978  0.00  0.00    -0.292 N 
ATOM     21  O2  <0> d           3.879   3.671   1.724  0.00  0.00    -0.266 OA
ATOM     22  C19 <0> d           2.040   5.211   4.201  0.00  0.00     0.149 A 
ATOM     23  S2  <0> d           0.755   6.268   4.601  0.00  0.00    -0.052 SA
BRANCH  20  24
ATOM     24  C5  <0> d           1.791   5.363   1.790  0.00  0.00     0.198 C 
BRANCH  24  25
ATOM     25  C3  <0> d           2.457   6.645   1.360  0.00  0.00     0.070 A 
ATOM     26  C2  <0> d           3.484   6.747   0.497  0.00  0.00     0.036 A 
ATOM     27  C1  <0> d           3.788   8.123   0.384  0.00  0.00     0.027 A 
ATOM     28  C4  <0> d           2.930   8.779   1.184  0.00  0.00     0.142 A 
ATOM     29  O1  <0> d           2.126   7.879   1.773  0.00  0.00    -0.325 OA
ENDBRANCH  24  25
ENDBRANCH  20  24
ENDBRANCH   1  16
TORSDOF 3
