REMARK  2 active torsions:
REMARK  status: ('A' for Active; 'I' for Inactive)
REMARK    1  A    between atoms: C5_5  and  N1_8 
REMARK       I    between atoms: N1_8  and  C8_9 
REMARK    2  A    between atoms: C8_9  and  C9_11 
ROOT
ATOM      1  C9  <0> d           0.309  -6.349   1.121  0.00  0.00     0.171 C 
ATOM      2  C10 <0> d           0.810  -6.828   2.459  0.00  0.00     0.250 C 
ATOM      3  O2  <0> d           0.646  -6.114   3.426  0.00  0.00    -0.271 OA
ATOM      4  N2  <0> d           1.424  -7.994   2.631  0.00  0.00    -0.324 N 
ATOM      5  C11 <0> d           1.804  -8.888   1.635  0.00  0.00     0.051 A 
ATOM      6  C12 <0> d           2.116 -10.199   1.982  0.00  0.00     0.031 A 
ATOM      7  C13 <0> d           2.486 -11.107   1.011  0.00  0.00     0.002 A 
ATOM      8  C14 <0> d           2.550 -10.727  -0.317  0.00  0.00     0.002 A 
ATOM      9  C15 <0> d           2.246  -9.427  -0.677  0.00  0.00     0.021 A 
ATOM     10  C16 <0> d           1.878  -8.510   0.295  0.00  0.00     0.029 A 
ATOM     11  S1  <0> d           1.509  -6.843  -0.154  0.00  0.00    -0.098 SA
ATOM     12  C17 <0> d          -1.051  -6.983   0.821  0.00  0.00     0.048 C 
ATOM     13  H9  <0> d           1.627  -8.248   3.545  0.00  0.00     0.169 HD
ENDROOT
BRANCH   1  14
ATOM     14  C8  <0> d           0.175  -4.848   1.138  0.00  0.00     0.250 C 
ATOM     15  N1  <0> d           0.059  -4.170  -0.021  0.00  0.00    -0.325 N 
ATOM     16  H8  <0> d          -0.007  -4.651  -0.861  0.00  0.00     0.169 HD
ATOM     17  O1  <0> d           0.173  -4.251   2.193  0.00  0.00    -0.271 OA
BRANCH  15  18
ATOM     18  C5  <0> d           0.032  -2.771  -0.013  0.00  0.00     0.034 A 
ATOM     19  C4  <0> d          -0.581  -2.092   1.033  0.00  0.00     0.030 A 
ATOM     20  C3  <0> d          -0.604  -0.712   1.038  0.00  0.00     0.009 A 
ATOM     21  C2  <0> d          -0.018  -0.004   0.005  0.00  0.00    -0.062 A 
ATOM     22  C1  <0> d          -0.046   1.502   0.014  0.00  0.00     0.048 C 
ATOM     23  C7  <0> d           0.589  -0.677  -1.040  0.00  0.00     0.009 A 
ATOM     24  C6  <0> d           0.620  -2.058  -1.049  0.00  0.00     0.030 A 
ENDBRANCH  15  18
ENDBRANCH   1  14
TORSDOF 2
