REMARK  3 active torsions:
REMARK  status: ('A' for Active; 'I' for Inactive)
REMARK    1  A    between atoms: C7_7  and  C9_13 
REMARK       I    between atoms: C9_13  and  N3_15 
REMARK    2  A    between atoms: N3_15  and  N4_16 
REMARK    3  A    between atoms: N4_16  and  C10_17 
ROOT
ATOM      1  C9  <0> d           0.075  -2.972  -0.017  0.00  0.00     0.289 C 
ATOM      2  O2  <0> d          -1.009  -2.443   0.124  0.00  0.00    -0.264 OA
ATOM      3  N3  <0> d           0.160  -4.311  -0.145  0.00  0.00    -0.264 N 
ATOM      4  H6  <0> d           1.025  -4.734  -0.259  0.00  0.00     0.190 HD
ENDROOT
BRANCH   3   5
ATOM      5  N4  <0> d          -1.003  -5.092  -0.115  0.00  0.00    -0.292 N 
ATOM      6  H7  <0> d          -1.873  -4.666  -0.089  0.00  0.00     0.187 HD
BRANCH   5   7
ATOM      7  C10 <0> d          -0.912  -6.425  -0.123  0.00  0.00     0.129 A 
ATOM      8  C17 <0> d          -2.037  -7.418  -0.214  0.00  0.00     0.275 A 
ATOM      9  N5  <0> d          -1.505  -8.627  -0.193  0.00  0.00    -0.320 N 
ATOM     10  O3  <0> d          -3.224  -7.156  -0.297  0.00  0.00    -0.266 OA
ATOM     11  C16 <0> d          -0.146  -8.566  -0.087  0.00  0.00     0.065 A 
ATOM     12  H10 <0> d          -2.015  -9.450  -0.241  0.00  0.00     0.169 HD
ATOM     13  C11 <0> d           0.265  -7.209  -0.040  0.00  0.00     0.027 A 
ATOM     14  C15 <0> d           0.822  -9.565  -0.024  0.00  0.00     0.040 A 
ATOM     15  C12 <0> d           1.624  -6.890   0.068  0.00  0.00     0.035 A 
ATOM     16  C13 <0> d           2.562  -7.903   0.130  0.00  0.00     0.013 A 
ATOM     17  C14 <0> d           2.163  -9.230   0.084  0.00  0.00     0.040 A 
ATOM     18 Br2  <0> d           4.399  -7.477   0.275  0.00  0.00    -0.051 Br
ATOM     19 Br1  <0> d           0.306 -11.383  -0.085  0.00  0.00    -0.049 Br
ENDBRANCH   5   7
ENDBRANCH   3   5
BRANCH   1  20
ATOM     20  C7  <0> d           1.310  -2.142  -0.049  0.00  0.00     0.143 A 
ATOM     21  C5  <0> d           1.230  -0.678  -0.029  0.00  0.00     0.025 A 
ATOM     22  C4  <0> d           2.435   0.056  -0.060  0.00  0.00     0.049 A 
ATOM     23  C6  <0> d           0.006  -0.006   0.021  0.00  0.00     0.016 A 
ATOM     24  C3  <0> d           2.392   1.444  -0.042  0.00  0.00     0.030 A 
ATOM     25  N2  <0> d           3.626  -0.635  -0.109  0.00  0.00    -0.306 N 
ATOM     26  C2  <0> d           1.172   2.086   0.008  0.00  0.00     0.002 A 
ATOM     27  C1  <0> d          -0.012   1.360   0.039  0.00  0.00     0.001 A 
ATOM     28  C8  <0> d           3.625  -1.981  -0.125  0.00  0.00     0.347 A 
ATOM     29  H1  <0> d           4.466  -0.151  -0.131  0.00  0.00     0.171 HD
ATOM     30  N1  <0> d           2.501  -2.706  -0.096  0.00  0.00    -0.188 NA
ATOM     31  O1  <0> d           4.694  -2.564  -0.169  0.00  0.00    -0.245 OA
ENDBRANCH   1  20
TORSDOF 3
