REMARK  5 active torsions:
REMARK  status: ('A' for Active; 'I' for Inactive)
REMARK    1  A    between atoms: C2_2  and  C3_3 
REMARK    2  A    between atoms: C2_2  and  N3_22 
REMARK    3  A    between atoms: C3_3  and  C4_4 
REMARK    4  A    between atoms: C3_3  and  S1_11 
REMARK    5  A    between atoms: S1_11  and  C10_12 
ROOT
ATOM      1  C3  <0> d           0.849  -0.512   1.171  0.00  0.00     0.119 C 
ENDROOT
BRANCH   1   2
ATOM      2  C2  <0> d          -0.069   0.127   0.126  0.00  0.00     0.198 C 
ATOM      3  C1  <0> d          -0.306   1.595   0.485  0.00  0.00     0.041 C 
BRANCH   2   4
ATOM      4  N3  <0> d           0.562   0.042  -1.198  0.00  0.00    -0.074 N 
ATOM      5  H15 <0> d          -0.043   0.463  -1.886  0.00  0.00     0.274 HD
ATOM      6  H16 <0> d           1.445   0.531  -1.181  0.00  0.00     0.274 HD
ATOM      7  H17 <0> d           0.719  -0.927  -1.434  0.00  0.00     0.274 HD
ENDBRANCH   2   4
ENDBRANCH   1   2
BRANCH   1   8
ATOM      8  C4  <0> d           1.061  -1.965   0.832  0.00  0.00    -0.025 A 
ATOM      9  C9  <0> d           0.146  -2.913   1.250  0.00  0.00     0.018 A 
ATOM     10  C8  <0> d           0.339  -4.246   0.935  0.00  0.00     0.019 A 
ATOM     11 Br1  <0> d          -1.373  -2.388   2.246  0.00  0.00    -0.051 Br
ATOM     12  C7  <0> d           1.452  -4.631   0.211  0.00  0.00     0.001 A 
ATOM     13  C6  <0> d           2.370  -3.683  -0.202  0.00  0.00     0.001 A 
ATOM     14  C5  <0> d           2.174  -2.350   0.108  0.00  0.00     0.010 A 
ENDBRANCH   1   8
BRANCH   1  15
ATOM     15  S1  <0> d           2.446   0.348   1.178  0.00  0.00    -0.080 SA
BRANCH  15  16
ATOM     16  C10 <0> d           3.292  -0.335   2.565  0.00  0.00     0.168 A 
ATOM     17  N2  <0> d           2.774  -1.183   3.420  0.00  0.00    -0.223 NA
ATOM     18  C16 <0> d           3.700  -1.506   4.361  0.00  0.00     0.086 A 
ATOM     19  C11 <0> d           4.868  -0.788   4.055  0.00  0.00     0.063 A 
ATOM     20  C15 <0> d           3.682  -2.347   5.476  0.00  0.00     0.034 A 
ATOM     21  N1  <0> d           4.583  -0.055   2.914  0.00  0.00    -0.333 N 
ATOM     22  C12 <0> d           5.991  -0.918   4.858  0.00  0.00     0.032 A 
ATOM     23  H3  <0> d           5.187   0.545   2.450  0.00  0.00     0.168 HD
ATOM     24  C13 <0> d           5.957  -1.753   5.955  0.00  0.00     0.002 A 
ATOM     25  C14 <0> d           4.806  -2.464   6.262  0.00  0.00     0.002 A 
ENDBRANCH  15  16
ENDBRANCH   1  15
TORSDOF 5
