REMARK  5 active torsions:
REMARK  status: ('A' for Active; 'I' for Inactive)
REMARK    1  A    between atoms: C2_2  and  C3_3 
REMARK    2  A    between atoms: C10_11  and  C12_14 
REMARK    3  A    between atoms: C11_12  and  N1_13 
REMARK    4  A    between atoms: C12_14  and  N2_15 
REMARK    5  A    between atoms: N3_18  and  C17_21 
ROOT
ATOM      1  C3  <0> d           0.731  -0.503   1.223  0.00  0.00    -0.025 A 
ATOM      2  C4  <0> d           2.075  -0.807   1.145  0.00  0.00     0.010 A 
ATOM      3  C5  <0> d           2.745  -1.266   2.264  0.00  0.00     0.001 A 
ATOM      4  C6  <0> d           2.068  -1.422   3.458  0.00  0.00     0.012 A 
ATOM      5  C7  <0> d           0.719  -1.120   3.542  0.00  0.00     0.006 A 
ATOM      6  C8  <0> d           0.048  -0.651   2.426  0.00  0.00     0.083 A 
ATOM      7  O1  <0> d          -1.270  -0.327   2.467  0.00  0.00    -0.349 OA
ATOM      8  C9  <0> d          -2.044  -0.816   3.563  0.00  0.00     0.184 C 
ATOM      9  C10 <0> d          -1.293  -0.504   4.864  0.00  0.00     0.073 C 
ATOM     10  C11 <0> d           0.014  -1.308   4.861  0.00  0.00     0.227 C 
ENDROOT
BRANCH   9  11
ATOM     11  C12 <0> d          -2.147  -0.916   6.065  0.00  0.00     0.281 C 
BRANCH  11  12
ATOM     12  N2  <0> d          -3.359  -0.088   6.111  0.00  0.00     0.092 N 
ATOM     13  C16 <0> d          -4.313  -0.606   7.102  0.00  0.00     0.302 C 
ATOM     14  C15 <0> d          -5.591   0.235   7.063  0.00  0.00     0.302 C 
ATOM     15  N3  <0> d          -5.259   1.640   7.340  0.00  0.00     0.091 N 
ATOM     16  C14 <0> d          -4.305   2.158   6.350  0.00  0.00     0.302 C 
ATOM     17  C13 <0> d          -3.027   1.317   6.388  0.00  0.00     0.302 C 
BRANCH  15  18
ATOM     18  C17 <0> d          -6.471   2.468   7.387  0.00  0.00     0.268 C 
ATOM     19  C18 <0> d          -7.325   2.055   8.587  0.00  0.00     0.037 C 
ENDBRANCH  15  18
ENDBRANCH  11  12
ENDBRANCH   9  11
BRANCH  10  20
ATOM     20  N1  <0> d          -0.272  -2.735   5.064  0.00  0.00    -0.070 N 
ATOM     21  H13 <0> d           0.594  -3.254   5.067  0.00  0.00     0.275 HD
ATOM     22  H29 <0> d          -0.744  -2.862   5.946  0.00  0.00     0.275 HD
ATOM     23  H30 <0> d          -0.861  -3.069   4.316  0.00  0.00     0.275 HD
ENDBRANCH  10  20
BRANCH   1  24
ATOM     24  C2  <0> d           0.002  -0.004   0.002  0.00  0.00     0.037 C 
ATOM     25  C1  <0> d          -0.019   1.526   0.010  0.00  0.00     0.010 C 
ENDBRANCH   1  24
TORSDOF 5
