REMARK  6 active torsions:
REMARK  status: ('A' for Active; 'I' for Inactive)
REMARK    1  A    between atoms: C5_5  and  N1_8 
REMARK       I    between atoms: N1_8  and  C8_9 
REMARK    2  A    between atoms: C8_9  and  C9_11 
REMARK    3  A    between atoms: C9_11  and  S1_12 
REMARK    4  A    between atoms: S1_12  and  C10_13 
REMARK    5  A    between atoms: C11_16  and  C18_24 
REMARK    6  A    between atoms: N4_17  and  C12_18 
ROOT
ATOM      1  C10 <0> d           4.023   7.398  -2.338  0.00  0.00     0.196 A 
ATOM      2  N2  <0> d           4.954   6.607  -1.857  0.00  0.00    -0.122 NA
ATOM      3  N3  <0> d           6.100   7.184  -1.932  0.00  0.00    -0.133 NA
ATOM      4  C11 <0> d           5.972   8.368  -2.461  0.00  0.00     0.139 A 
ATOM      5  N4  <0> d           4.644   8.546  -2.744  0.00  0.00    -0.275 N 
ENDROOT
BRANCH   1   6
ATOM      6  S1  <0> d           2.300   7.043  -2.446  0.00  0.00    -0.081 SA
BRANCH   6   7
ATOM      7  C9  <0> d           2.276   5.380  -1.733  0.00  0.00     0.185 C 
BRANCH   7   8
ATOM      8  C8  <0> d           0.862   4.858  -1.723  0.00  0.00     0.227 C 
ATOM      9  N1  <0> d           0.601   3.630  -1.234  0.00  0.00    -0.356 N 
ATOM     10  H14 <0> d           1.323   3.081  -0.888  0.00  0.00     0.162 HD
ATOM     11  O1  <0> d          -0.040   5.543  -2.154  0.00  0.00    -0.273 OA
BRANCH   9  12
ATOM     12  C5  <0> d          -0.773   3.123  -1.223  0.00  0.00     0.084 C 
ATOM     13  C4  <0> d          -0.753   1.593  -1.232  0.00  0.00     0.025 C 
ATOM     14  C3  <0> d          -0.013   1.086   0.008  0.00  0.00     0.006 C 
ATOM     15  C2  <0> d          -0.729   1.579   1.267  0.00  0.00    -0.019 C 
ATOM     16  C1  <0> d           0.011   1.072   2.506  0.00  0.00     0.010 C 
ATOM     17  C7  <0> d          -0.750   3.109   1.275  0.00  0.00     0.006 C 
ATOM     18  C6  <0> d          -1.490   3.616   0.036  0.00  0.00     0.025 C 
ENDBRANCH   9  12
ENDBRANCH   7   8
ENDBRANCH   6   7
ENDBRANCH   1   6
BRANCH   5  19
ATOM     19  C12 <0> d           4.046   9.673  -3.327  0.00  0.00     0.043 A 
ATOM     20  C17 <0> d           3.145  10.437  -2.599  0.00  0.00     0.030 A 
ATOM     21  C16 <0> d           2.557  11.546  -3.175  0.00  0.00     0.002 A 
ATOM     22  C15 <0> d           2.865  11.895  -4.477  0.00  0.00     0.000 A 
ATOM     23  C14 <0> d           3.762  11.136  -5.206  0.00  0.00     0.002 A 
ATOM     24  C13 <0> d           4.357  10.029  -4.632  0.00  0.00     0.030 A 
ENDBRANCH   5  19
BRANCH   4  25
ATOM     25  C18 <0> d           7.081   9.356  -2.717  0.00  0.00     0.058 A 
ATOM     26  C20 <0> d           7.890   9.839  -1.512  0.00  0.00     0.013 A 
ATOM     27  C19 <0> d           8.519   8.872  -2.518  0.00  0.00     0.013 A 
ENDBRANCH   4  25
TORSDOF 6
