REMARK  5 active torsions:
REMARK  status: ('A' for Active; 'I' for Inactive)
REMARK    1  A    between atoms: N1_4  and  C14_20 
REMARK    2  A    between atoms: N3_9  and  C8_12 
REMARK    3  A    between atoms: C8_12  and  C9_13 
REMARK    4  A    between atoms: C9_13  and  N5_14 
REMARK    5  A    between atoms: C14_20  and  C15_21 
ROOT
ATOM      1  C1  <0> d           1.945   8.691   3.500  0.00  0.00     0.051 C 
ATOM      2  C2  <0> d           2.343   8.775   2.049  0.00  0.00    -0.022 A 
ATOM      3  C3  <0> d           2.546   9.898   1.334  0.00  0.00     0.017 A 
ATOM      4  N1  <0> d           2.895   9.567   0.052  0.00  0.00    -0.330 N 
ATOM      5  C4  <0> d           2.924   8.210  -0.091  0.00  0.00     0.146 A 
ATOM      6  C5  <0> d           2.581   7.657   1.146  0.00  0.00     0.062 A 
ATOM      7  C6  <0> d           2.536   6.197   1.271  0.00  0.00     0.116 A 
ATOM      8  N2  <0> d           2.221   5.617   2.405  0.00  0.00    -0.384 N 
ATOM      9  N3  <0> d           2.839   5.457   0.142  0.00  0.00    -0.326 N 
ATOM     10  C7  <0> d           3.166   6.097  -1.013  0.00  0.00     0.213 A 
ATOM     11  N4  <0> d           3.200   7.391  -1.122  0.00  0.00    -0.225 NA
ATOM     12  C21 <0> d           2.412  11.302   1.864  0.00  0.00     0.069 C 
ATOM     13  H4  <0> d           2.195   4.519   2.472  0.00  0.00     0.157 HD
ATOM     14  H28 <0> d           1.984   6.228   3.288  0.00  0.00     0.157 HD
ENDROOT
BRANCH   9  15
ATOM     15  C8  <0> d           2.815   3.993   0.191  0.00  0.00     0.161 C 
BRANCH  15  16
ATOM     16  C9  <0> d           1.387   3.498  -0.050  0.00  0.00     0.292 C 
BRANCH  16  17
ATOM     17  N5  <0> d           1.362   2.030  -0.000  0.00  0.00     0.094 N 
ATOM     18  C13 <0> d           2.108   1.530   1.164  0.00  0.00     0.298 C 
ATOM     19  C12 <0> d           2.108  -0.001   1.144  0.00  0.00     0.198 C 
ATOM     20  O1  <0> d           0.757  -0.472   1.123  0.00  0.00    -0.388 OA
ATOM     21  C11 <0> d           0.002  -0.004   0.002  0.00  0.00     0.198 C 
ATOM     22  C10 <0> d          -0.019   1.527   0.010  0.00  0.00     0.298 C 
ENDBRANCH  16  17
ENDBRANCH  15  16
ENDBRANCH   9  15
BRANCH   4  23
ATOM     23  C14 <0> d           3.193  10.529  -1.012  0.00  0.00     0.169 C 
BRANCH  23  24
ATOM     24  C15 <0> d           1.925  10.869  -1.752  0.00  0.00    -0.040 A 
ATOM     25  C20 <0> d           1.141  11.928  -1.331  0.00  0.00     0.009 A 
ATOM     26  C19 <0> d          -0.022  12.239  -2.010  0.00  0.00     0.001 A 
ATOM     27  C18 <0> d          -0.402  11.493  -3.109  0.00  0.00     0.000 A 
ATOM     28  C17 <0> d           0.382  10.435  -3.530  0.00  0.00     0.001 A 
ATOM     29  C16 <0> d           1.548  10.126  -2.855  0.00  0.00     0.009 A 
ENDBRANCH  23  24
ENDBRANCH   4  23
TORSDOF 5
