REMARK  8 active torsions:
REMARK  status: ('A' for Active; 'I' for Inactive)
REMARK    1  A    between atoms: C6_6  and  C7_7 
REMARK    2  A    between atoms: C7_7  and  N1_8 
REMARK       I    between atoms: N1_8  and  C8_9 
REMARK    3  A    between atoms: C8_9  and  C9_11 
REMARK    4  A    between atoms: N2_13  and  C11_16 
REMARK    5  A    between atoms: C11_16  and  C12_17 
REMARK    6  A    between atoms: C12_17  and  N5_26 
REMARK    7  A    between atoms: C13_18  and  C14_19 
REMARK    8  A    between atoms: C13_18  and  N5_26 
ROOT
ATOM      1  C9  <0> d          -6.311   8.469  -3.228  0.00  0.00     0.165 A 
ATOM      2  C10 <0> d          -5.076   7.937  -3.468  0.00  0.00     0.153 A 
ATOM      3  N2  <0> d          -5.034   6.747  -2.837  0.00  0.00    -0.259 N 
ATOM      4  N3  <0> d          -6.273   6.580  -2.203  0.00  0.00    -0.066 NA
ATOM      5  N4  <0> d          -7.000   7.613  -2.455  0.00  0.00    -0.125 NA
ENDROOT
BRANCH   1   6
ATOM      6  C8  <0> d          -6.803   9.767  -3.728  0.00  0.00     0.273 C 
ATOM      7  N1  <0> d          -8.046  10.183  -3.414  0.00  0.00    -0.351 N 
ATOM      8  H7  <0> d          -8.617   9.629  -2.859  0.00  0.00     0.163 HD
ATOM      9  O1  <0> d          -6.087  10.462  -4.423  0.00  0.00    -0.266 OA
BRANCH   7  10
ATOM     10  C7  <0> d          -8.534  11.472  -3.910  0.00  0.00     0.161 C 
BRANCH  10  11
ATOM     11  C6  <0> d          -9.941  11.698  -3.420  0.00  0.00    -0.040 A 
ATOM     12  C1  <0> d         -11.014  11.267  -4.178  0.00  0.00     0.012 A 
ATOM     13  C2  <0> d         -12.305  11.470  -3.728  0.00  0.00     0.043 A 
ATOM     14  C3  <0> d         -12.524  12.114  -2.522  0.00  0.00     0.116 A 
ATOM     15  C4  <0> d         -11.448  12.550  -1.766  0.00  0.00     0.043 A 
ATOM     16  F1  <0> d         -13.785  12.317  -2.083  0.00  0.00    -0.206 F 
ATOM     17  C5  <0> d         -10.158  12.341  -2.216  0.00  0.00     0.012 A 
ENDBRANCH  10  11
ENDBRANCH   7  10
ENDBRANCH   1   6
BRANCH   3  18
ATOM     18  C11 <0> d          -3.907   5.810  -2.813  0.00  0.00     0.179 C 
BRANCH  18  19
ATOM     19  C12 <0> d          -3.532   5.502  -1.362  0.00  0.00     0.254 C 
BRANCH  19  20
ATOM     20  N5  <0> d          -2.398   4.559  -1.347  0.00  0.00    -0.070 N 
ATOM     21  H18 <0> d          -1.598   4.983  -1.831  0.00  0.00     0.277 HD
ATOM     22  H19 <0> d          -2.670   3.694  -1.828  0.00  0.00     0.277 HD
BRANCH  20  23
ATOM     23  C13 <0> d          -2.014   4.243   0.042  0.00  0.00     0.271 C 
BRANCH  23  24
ATOM     24  C14 <0> d          -0.855   3.279   0.027  0.00  0.00    -0.026 A 
ATOM     25  C17 <0> d           0.421   3.738   0.017  0.00  0.00     0.058 A 
ATOM     26  S1  <0> d           1.359   2.219   0.001  0.00  0.00    -0.113 SA
ATOM     27  C16 <0> d          -0.013   1.076   0.008  0.00  0.00     0.050 A 
ATOM     28  C15 <0> d          -1.077   1.915   0.017  0.00  0.00     0.016 A 
ENDBRANCH  23  24
ENDBRANCH  20  23
ENDBRANCH  19  20
ENDBRANCH  18  19
ENDBRANCH   3  18
TORSDOF 8
