REMARK  4 active torsions:
REMARK  status: ('A' for Active; 'I' for Inactive)
REMARK    1  A    between atoms: C2_2  and  C9_12 
REMARK    2  A    between atoms: C9_12  and  C10_13 
REMARK    3  A    between atoms: C9_12  and  N1_20 
REMARK    4  A    between atoms: C10_13  and  C11_14 
ROOT
ATOM      1  C1  <0> d          -0.017   1.382   0.010  0.00  0.00     0.050 A 
ATOM      2  C2  <0> d           1.170   2.091   0.002  0.00  0.00     0.005 A 
ATOM      3  C3  <0> d           2.379   1.420  -0.014  0.00  0.00     0.045 A 
ATOM      4  C4  <0> d           2.404   0.037  -0.023  0.00  0.00     0.064 A 
ATOM      5  C5  <0> d           1.217  -0.679  -0.016  0.00  0.00     0.103 A 
ATOM      6  C6  <0> d           0.002  -0.004   0.002  0.00  0.00     0.102 A 
ATOM      7  O1  <0> d          -1.175  -0.688   0.017  0.00  0.00    -0.346 OA
ATOM      8  C7  <0> d          -1.123  -2.066  -0.368  0.00  0.00     0.202 C 
ATOM      9  C8  <0> d           0.060  -2.723   0.357  0.00  0.00     0.202 C 
ATOM     10  O2  <0> d           1.258  -2.040  -0.029  0.00  0.00    -0.346 OA
ATOM     11 Cl1  <0> d           3.867   2.314  -0.023  0.00  0.00    -0.084 Cl
ENDROOT
BRANCH   2  12
ATOM     12  C9  <0> d           1.146   3.598   0.011  0.00  0.00     0.333 C 
BRANCH  12  13
ATOM     13  C10 <0> d           1.402   4.104   1.432  0.00  0.00     0.373 C 
ATOM     14  F4  <0> d           0.407   3.617   2.287  0.00  0.00    -0.193 F 
ATOM     15  F5  <0> d           2.653   3.655   1.868  0.00  0.00    -0.193 F 
BRANCH  13  16
ATOM     16  C11 <0> d           1.378   5.634   1.441  0.00  0.00     0.457 C 
ATOM     17  F1  <0> d           0.127   6.083   1.004  0.00  0.00    -0.165 F 
ATOM     18  F2  <0> d           1.612   6.096   2.740  0.00  0.00    -0.165 F 
ATOM     19  F3  <0> d           2.372   6.121   0.586  0.00  0.00    -0.165 F 
ENDBRANCH  13  16
ENDBRANCH  12  13
BRANCH  12  20
ATOM     20  N1  <0> d          -0.168   4.070  -0.448  0.00  0.00     0.093 N 
ATOM     21  H8  <0> d          -0.903   3.731   0.154  0.00  0.00     0.314 HD
ATOM     22  H9  <0> d          -0.188   5.077  -0.512  0.00  0.00     0.314 HD
ENDBRANCH  12  20
ENDBRANCH   2  12
TORSDOF 4
