REMARK  7 active torsions:
REMARK  status: ('A' for Active; 'I' for Inactive)
REMARK    1  A    between atoms: C2_2  and  C3_3 
REMARK    2  A    between atoms: C6_6  and  C9_9 
REMARK    3  A    between atoms: C9_9  and  C10_10 
REMARK    4  A    between atoms: C9_9  and  N4_29 
REMARK    5  A    between atoms: C10_10  and  N1_11 
REMARK    6  A    between atoms: N1_11  and  S1_12 
REMARK    7  A    between atoms: S1_12  and  C11_15 
ROOT
ATOM      1  S1  <0> d           1.647   1.107  -6.987  0.00  0.00     0.258 S 
ATOM      2  O1  <0> d           0.324   1.292  -7.473  0.00  0.00    -0.201 OA
ATOM      3  O2  <0> d           2.259   2.014  -6.080  0.00  0.00    -0.201 OA
ENDROOT
BRANCH   1   4
ATOM      4  N1  <0> d           1.682  -0.382  -6.263  0.00  0.00    -0.313 N 
ATOM      5  H15 <0> d           0.878  -0.922  -6.227  0.00  0.00     0.172 HD
BRANCH   4   6
ATOM      6  C10 <0> d           2.928  -0.882  -5.678  0.00  0.00     0.170 C 
BRANCH   6   7
ATOM      7  C9  <0> d           2.616  -2.037  -4.724  0.00  0.00     0.238 C 
BRANCH   7   8
ATOM      8  C6  <0> d           1.800  -1.525  -3.565  0.00  0.00    -0.026 A 
ATOM      9  C5  <0> d           0.430  -1.707  -3.550  0.00  0.00     0.010 A 
ATOM     10  C4  <0> d          -0.318  -1.238  -2.487  0.00  0.00     0.007 A 
ATOM     11  C3  <0> d           0.304  -0.587  -1.438  0.00  0.00    -0.059 A 
ATOM     12  C8  <0> d           1.674  -0.400  -1.455  0.00  0.00     0.007 A 
ATOM     13  C7  <0> d           2.423  -0.873  -2.517  0.00  0.00     0.010 A 
BRANCH  11  14
ATOM     14  C2  <0> d          -0.511  -0.075  -0.278  0.00  0.00     0.034 C 
ATOM     15  C1  <0> d          -0.967   1.356  -0.568  0.00  0.00     0.010 C 
ENDBRANCH  11  14
ENDBRANCH   7   8
BRANCH   7  16
ATOM     16  N4  <0> d           3.872  -2.612  -4.223  0.00  0.00    -0.069 N 
ATOM     17  C19 <0> d           3.572  -3.690  -3.272  0.00  0.00     0.270 C 
ATOM     18  C20 <0> d           4.646  -3.153  -5.348  0.00  0.00     0.270 C 
ATOM     19  H25 <0> d           4.409  -1.894  -3.760  0.00  0.00     0.279 HD
ENDBRANCH   7  16
ENDBRANCH   6   7
ENDBRANCH   4   6
ENDBRANCH   1   4
BRANCH   1  20
ATOM     20  C11 <0> d           2.696   1.025  -8.401  0.00  0.00     0.080 A 
ATOM     21  C16 <0> d           2.174   0.645  -9.620  0.00  0.00     0.044 A 
ATOM     22  C15 <0> d           3.007   0.586 -10.734  0.00  0.00     0.060 A 
ATOM     23  C14 <0> d           4.372   0.902 -10.610  0.00  0.00     0.052 A 
ATOM     24  C17 <0> d           2.501   0.192 -12.061  0.00  0.00     0.261 A 
ATOM     25  C13 <0> d           4.879   1.276  -9.375  0.00  0.00     0.032 A 
ATOM     26  N3  <0> d           5.179   0.829 -11.736  0.00  0.00    -0.308 N 
ATOM     27  C12 <0> d           4.041   1.336  -8.279  0.00  0.00     0.027 A 
ATOM     28  C18 <0> d           4.667   0.464 -12.923  0.00  0.00     0.327 A 
ATOM     29  H3  <0> d           6.122   1.044 -11.665  0.00  0.00     0.170 HD
ATOM     30  N2  <0> d           3.372   0.153 -13.092  0.00  0.00    -0.275 N 
ATOM     31  O4  <0> d           5.408   0.412 -13.886  0.00  0.00    -0.247 OA
ATOM     32  H2  <0> d           3.056  -0.105 -13.973  0.00  0.00     0.173 HD
ATOM     33  O3  <0> d           1.330  -0.091 -12.223  0.00  0.00    -0.267 OA
ENDBRANCH   1  20
TORSDOF 7
