REMARK  5 active torsions:
REMARK  status: ('A' for Active; 'I' for Inactive)
REMARK    1  A    between atoms: C7_7  and  C8_8 
REMARK    2  A    between atoms: C8_8  and  C9_9 
REMARK    3  A    between atoms: C8_8  and  N3_15 
REMARK       I    between atoms: N3_15  and  C13_16 
REMARK    4  A    between atoms: C13_16  and  C14_18 
REMARK    5  A    between atoms: C14_18  and  N4_20 
ROOT
ATOM      1  C8  <0> d           0.285   0.295   2.518  0.00  0.00     0.188 C 
ENDROOT
BRANCH   1   2
ATOM      2  C7  <0> d           0.528  -0.233   1.127  0.00  0.00    -0.022 A 
ATOM      3  C2  <0> d          -0.525  -0.733   0.385  0.00  0.00    -0.053 A 
ATOM      4  C1  <0> d          -1.915  -0.750   0.965  0.00  0.00     0.049 C 
ATOM      5  C3  <0> d          -0.303  -1.212  -0.893  0.00  0.00     0.007 A 
ATOM      6  C4  <0> d           0.972  -1.196  -1.425  0.00  0.00     0.001 A 
ATOM      7  C5  <0> d           2.026  -0.701  -0.680  0.00  0.00     0.001 A 
ATOM      8  C6  <0> d           1.805  -0.221   0.597  0.00  0.00     0.010 A 
ENDBRANCH   1   2
BRANCH   1   9
ATOM      9  C9  <0> d           1.460   1.136   2.948  0.00  0.00     0.133 A 
ATOM     10  N2  <0> d           1.527   2.483   2.890  0.00  0.00    -0.346 N 
ATOM     11  C11 <0> d           2.754   2.849   3.375  0.00  0.00     0.111 A 
ATOM     12  C12 <0> d           0.481   3.385   2.402  0.00  0.00     0.157 C 
ATOM     13  C10 <0> d           3.397   1.713   3.704  0.00  0.00     0.136 A 
ATOM     14  N1  <0> d           2.583   0.682   3.433  0.00  0.00    -0.243 NA
ENDBRANCH   1   9
BRANCH   1  15
ATOM     15  N3  <0> d           0.122  -0.827   3.445  0.00  0.00    -0.344 N 
ATOM     16  C13 <0> d          -0.564  -0.659   4.593  0.00  0.00     0.251 C 
ATOM     17  O1  <0> d          -1.047   0.422   4.858  0.00  0.00    -0.271 OA
ATOM     18  H15 <0> d           0.508  -1.691   3.233  0.00  0.00     0.163 HD
BRANCH  16  19
ATOM     19  C14 <0> d          -0.732  -1.813   5.546  0.00  0.00     0.310 C 
ATOM     20  C15 <0> d          -1.712  -2.827   4.953  0.00  0.00     0.053 C 
BRANCH  19  21
ATOM     21  N4  <0> d          -1.255  -1.319   6.827  0.00  0.00     0.105 N 
ATOM     22  C19 <0> d          -2.667  -0.930   6.705  0.00  0.00     0.299 C 
ATOM     23  C18 <0> d          -3.154  -0.366   8.042  0.00  0.00     0.198 C 
ATOM     24  O2  <0> d          -2.948  -1.341   9.068  0.00  0.00    -0.388 OA
ATOM     25  C17 <0> d          -1.583  -1.742   9.215  0.00  0.00     0.198 C 
ATOM     26  C16 <0> d          -1.081  -2.320   7.889  0.00  0.00     0.299 C 
ENDBRANCH  19  21
ENDBRANCH  16  19
ENDBRANCH   1  15
TORSDOF 5
