REMARK  5 active torsions:
REMARK  status: ('A' for Active; 'I' for Inactive)
REMARK    1  A    between atoms: N1_2  and  C3_4 
REMARK    2  A    between atoms: C7_8  and  N2_10 
REMARK    3  A    between atoms: N2_10  and  C9_11 
REMARK    4  A    between atoms: N5_21  and  C16_23 
REMARK    5  A    between atoms: C16_23  and  C17_24 
ROOT
ATOM      1  C9  <0> d           0.069  -0.665  -6.010  0.00  0.00     0.708 A 
ATOM      2  N3  <0> d           0.162   0.033  -7.174  0.00  0.00    -0.154 N 
ATOM      3  H1  <0> d           0.158   1.003  -7.163  0.00  0.00     0.187 HD
ATOM      4  C10 <0> d           0.259  -0.632  -8.344  0.00  0.00     0.269 A 
ATOM      5  O1  <0> d           0.343  -0.023  -9.398  0.00  0.00    -0.267 OA
ATOM      6  C11 <0> d           0.262  -2.041  -8.329  0.00  0.00     0.061 A 
ATOM      7  C12 <0> d           0.172  -2.686  -7.135  0.00  0.00     0.068 A 
ATOM      8  N4  <0> d           0.081  -1.981  -6.004  0.00  0.00    -0.068 NA
ATOM      9  C13 <0> d           0.182  -4.191  -7.050  0.00  0.00     0.088 C 
ATOM     10  C14 <0> d          -0.111  -4.789  -8.427  0.00  0.00     0.241 C 
ATOM     11  N5  <0> d           0.788  -4.167  -9.410  0.00  0.00    -0.063 N 
ATOM     12  C15 <0> d           0.363  -2.782  -9.634  0.00  0.00     0.281 C 
ATOM     13  H26 <0> d           1.734  -4.177  -9.057  0.00  0.00     0.280 HD
ENDROOT
BRANCH   1  14
ATOM     14  N2  <0> d          -0.032   0.013  -4.823  0.00  0.00    -0.190 N 
ATOM     15  H12 <0> d          -0.124   0.979  -4.823  0.00  0.00     0.184 HD
BRANCH  14  16
ATOM     16  C7  <0> d          -0.004  -0.686  -3.613  0.00  0.00     0.051 A 
ATOM     17  C6  <0> d           0.772  -1.832  -3.490  0.00  0.00     0.030 A 
ATOM     18  C5  <0> d           0.800  -2.525  -2.294  0.00  0.00     0.004 A 
ATOM     19  C4  <0> d           0.058  -2.080  -1.218  0.00  0.00     0.029 A 
ATOM     20  C3  <0> d          -0.720  -0.934  -1.333  0.00  0.00     0.031 A 
ATOM     21  C8  <0> d          -0.755  -0.240  -2.534  0.00  0.00     0.059 A 
BRANCH  20  22
ATOM     22  N1  <0> d          -1.470  -0.486  -0.244  0.00  0.00    -0.389 N 
ATOM     23  C1  <0> d          -2.295   0.719  -0.369  0.00  0.00     0.149 C 
ATOM     24  C2  <0> d          -1.433  -1.219   1.023  0.00  0.00     0.149 C 
ENDBRANCH  20  22
ENDBRANCH  14  16
ENDBRANCH   1  14
BRANCH  11  25
ATOM     25  C16 <0> d           0.725  -4.911 -10.675  0.00  0.00     0.273 C 
BRANCH  25  26
ATOM     26  C17 <0> d           1.736  -4.348 -11.640  0.00  0.00    -0.033 A 
ATOM     27  C22 <0> d           3.020  -4.859 -11.672  0.00  0.00     0.009 A 
ATOM     28  C21 <0> d           3.946  -4.345 -12.560  0.00  0.00     0.001 A 
ATOM     29  C20 <0> d           3.591  -3.315 -13.411  0.00  0.00     0.000 A 
ATOM     30  C19 <0> d           2.308  -2.801 -13.376  0.00  0.00     0.001 A 
ATOM     31  C18 <0> d           1.381  -3.317 -12.490  0.00  0.00     0.009 A 
ENDBRANCH  25  26
ENDBRANCH  11  25
TORSDOF 5
