REMARK  3 active torsions:
REMARK  status: ('A' for Active; 'I' for Inactive)
REMARK    1  A    between atoms: C6_6  and  C7_7 
REMARK    2  A    between atoms: N1_11  and  C11_15 
REMARK    3  A    between atoms: C11_15  and  C12_16 
REMARK       I    between atoms: C12_16  and  N3_18 
ROOT
ATOM      1  C7  <0> d           1.177   3.557   0.010  0.00  0.00     0.046 C 
ATOM      2  C8  <0> d           2.342   4.243   0.105  0.00  0.00     0.106 A 
ATOM      3  C9  <0> d           2.514   5.700   0.223  0.00  0.00     0.279 A 
ATOM      4  O1  <0> d           1.635   6.541   0.256  0.00  0.00    -0.265 OA
ATOM      5  N1  <0> d           3.844   5.916   0.291  0.00  0.00    -0.256 N 
ATOM      6  C10 <0> d           4.499   4.747   0.217  0.00  0.00     0.330 A 
ATOM      7  O2  <0> d           5.709   4.634   0.248  0.00  0.00    -0.246 OA
ATOM      8  N2  <0> d           3.641   3.718   0.105  0.00  0.00    -0.304 N 
ATOM      9  H6  <0> d           3.879   2.780   0.037  0.00  0.00     0.171 HD
ENDROOT
BRANCH   5  10
ATOM     10  C11 <0> d           4.478   7.230   0.419  0.00  0.00     0.240 C 
BRANCH  10  11
ATOM     11  C12 <0> d           4.743   7.796  -0.953  0.00  0.00     0.238 C 
ATOM     12  O3  <0> d           4.433   7.164  -1.940  0.00  0.00    -0.272 OA
ATOM     13  N3  <0> d           5.325   9.005  -1.082  0.00  0.00    -0.347 N 
ATOM     14  C16 <0> d           5.594   9.578  -2.410  0.00  0.00     0.152 C 
ATOM     15  C13 <0> d           5.705   9.793   0.101  0.00  0.00     0.152 C 
ATOM     16  C15 <0> d           7.058  10.030  -2.455  0.00  0.00     0.187 C 
ATOM     17  O4  <0> d           7.324  10.875  -1.333  0.00  0.00    -0.388 OA
ATOM     18  C14 <0> d           7.169  10.232  -0.066  0.00  0.00     0.187 C 
ENDBRANCH  10  11
ENDBRANCH   5  10
BRANCH   1  19
ATOM     19  C6  <0> d           1.182   2.088   0.068  0.00  0.00    -0.034 A 
ATOM     20  C1  <0> d           2.231   1.413   0.702  0.00  0.00     0.013 A 
ATOM     21  C2  <0> d           2.229   0.035   0.753  0.00  0.00     0.020 A 
ATOM     22  C3  <0> d           1.191  -0.681   0.179  0.00  0.00     0.011 A 
ATOM     23  C4  <0> d           0.149  -0.020  -0.450  0.00  0.00     0.020 A 
ATOM     24 Br1  <0> d           1.198  -2.570   0.254  0.00  0.00    -0.051 Br
ATOM     25  C5  <0> d           0.137   1.357  -0.509  0.00  0.00     0.013 A 
ENDBRANCH   1  19
TORSDOF 3
