REMARK  10 active torsions:
REMARK  status: ('A' for Active; 'I' for Inactive)
REMARK    1  A    between atoms: C3_3  and  C8_11 
REMARK    2  A    between atoms: N1_5  and  C5_7 
REMARK    3  A    between atoms: C5_7  and  C6_8 
REMARK    4  A    between atoms: C6_8  and  O1_9 
REMARK    5  A    between atoms: C8_11  and  N3_12 
REMARK    6  A    between atoms: N3_12  and  C9_13 
REMARK    7  A    between atoms: C9_13  and  C10_14 
REMARK    8  A    between atoms: C10_14  and  C11_15 
REMARK    9  A    between atoms: C11_15  and  C12_16 
REMARK   10  A    between atoms: C12_16  and  N4_17 
ROOT
ATOM      1  N3  <0> d           1.374  -0.169  -3.038  0.00  0.00    -0.071 N 
ATOM      2  H16 <0> d           1.843   0.513  -2.461  0.00  0.00     0.277 HD
ATOM      3  H38 <0> d           1.863  -1.050  -2.981  0.00  0.00     0.277 HD
ENDROOT
BRANCH   1   4
ATOM      4  C8  <0> d          -0.006  -0.343  -2.566  0.00  0.00     0.274 C 
BRANCH   4   5
ATOM      5  C3  <0> d           0.008  -0.818  -1.135  0.00  0.00     0.017 A 
ATOM      6  C2  <0> d           0.002  -0.004   0.002  0.00  0.00     0.061 A 
ATOM      7  C1  <0> d          -0.018   1.503   0.010  0.00  0.00     0.073 C 
ATOM      8  N2  <0> d           0.023  -0.777   1.058  0.00  0.00    -0.177 NA
ATOM      9  N1  <0> d           0.034  -2.109   0.625  0.00  0.00    -0.272 N 
ATOM     10  C4  <0> d           0.028  -2.107  -0.725  0.00  0.00     0.036 A 
ATOM     11  C7  <0> d           0.040  -3.323  -1.615  0.00  0.00     0.070 C 
BRANCH   9  12
ATOM     12  C5  <0> d           0.055  -3.295   1.485  0.00  0.00     0.177 C 
BRANCH  12  13
ATOM     13  C6  <0> d           1.504  -3.688   1.777  0.00  0.00     0.185 C 
BRANCH  13  14
ATOM     14  O1  <0> d           1.524  -4.844   2.616  0.00  0.00    -0.399 OA
ATOM     15  H10 <0> d           2.413  -5.150   2.843  0.00  0.00     0.209 HD
ENDBRANCH  13  14
ENDBRANCH  12  13
ENDBRANCH   9  12
ENDBRANCH   4   5
ENDBRANCH   1   4
BRANCH   1  16
ATOM     16  C9  <0> d           1.360   0.294  -4.432  0.00  0.00     0.232 C 
BRANCH  16  17
ATOM     17  C10 <0> d           2.798   0.475  -4.923  0.00  0.00     0.029 C 
BRANCH  17  18
ATOM     18  C11 <0> d           2.784   0.957  -6.375  0.00  0.00     0.029 C 
BRANCH  18  19
ATOM     19  C12 <0> d           4.221   1.138  -6.867  0.00  0.00     0.235 C 
BRANCH  19  20
ATOM     20  N4  <0> d           4.207   1.601  -8.261  0.00  0.00    -0.070 N 
ATOM     21  C17 <0> d           5.580   1.888  -8.693  0.00  0.00     0.239 C 
ATOM     22  C16 <0> d           5.564   2.448 -10.117  0.00  0.00     0.008 C 
ATOM     23  C15 <0> d           4.937   1.415 -11.058  0.00  0.00     0.011 C 
ATOM     24  C18 <0> d           6.996   2.745 -10.566  0.00  0.00     0.011 C 
ATOM     25  C14 <0> d           3.533   1.067 -10.555  0.00  0.00     0.008 C 
ATOM     26  C13 <0> d           3.624   0.559  -9.115  0.00  0.00     0.239 C 
ATOM     27  C19 <0> d           2.649   2.315 -10.602  0.00  0.00     0.011 C 
ATOM     28  H37 <0> d           3.651   2.440  -8.330  0.00  0.00     0.279 HD
ENDBRANCH  19  20
ENDBRANCH  18  19
ENDBRANCH  17  18
ENDBRANCH  16  17
ENDBRANCH   1  16
TORSDOF 10
