REMARK  3 active torsions:
REMARK  status: ('A' for Active; 'I' for Inactive)
REMARK       I    between atoms: C2_2  and  N1_4 
REMARK    1  A    between atoms: C5_7  and  C8_10 
REMARK       I    between atoms: C8_10  and  N2_12 
REMARK    2  A    between atoms: C10_14  and  C17_22 
REMARK       I    between atoms: C17_22  and  N4_24 
REMARK    3  A    between atoms: N4_24  and  C18_25 
ROOT
ATOM      1  C8  <0> d          -4.290  -2.550   2.367  0.00  0.00     0.224 C 
ATOM      2  O2  <0> d          -4.688  -1.828   3.256  0.00  0.00    -0.273 OA
ATOM      3  N2  <0> d          -4.599  -3.862   2.376  0.00  0.00    -0.350 N 
ATOM      4  C9  <0> d          -4.116  -4.916   1.453  0.00  0.00     0.140 C 
ATOM      5  C10 <0> d          -3.884  -6.149   2.354  0.00  0.00     0.106 C 
ATOM      6  C11 <0> d          -4.796  -5.922   3.572  0.00  0.00    -0.007 C 
ATOM      7  C12 <0> d          -5.495  -4.579   3.316  0.00  0.00     0.136 C 
ATOM      8  C13 <0> d          -3.964  -5.843   4.848  0.00  0.00     0.039 C 
ATOM      9  C14 <0> d          -4.897  -5.674   6.050  0.00  0.00     0.233 C 
ATOM     10  N3  <0> d          -5.824  -6.811   6.116  0.00  0.00    -0.075 N 
ATOM     11  C15 <0> d          -6.684  -6.825   4.927  0.00  0.00     0.233 C 
ATOM     12  C16 <0> d          -5.826  -7.042   3.677  0.00  0.00     0.039 C 
ATOM     13  H23 <0> d          -5.297  -7.670   6.159  0.00  0.00     0.277 HD
ATOM     14  H41 <0> d          -6.397  -6.728   6.943  0.00  0.00     0.277 HD
ENDROOT
BRANCH   5  15
ATOM     15  C17 <0> d          -2.441  -6.222   2.783  0.00  0.00     0.224 C 
ATOM     16  O3  <0> d          -1.808  -5.202   2.956  0.00  0.00    -0.273 OA
ATOM     17  N4  <0> d          -1.855  -7.420   2.974  0.00  0.00    -0.354 N 
ATOM     18  H28 <0> d          -2.362  -8.236   2.836  0.00  0.00     0.162 HD
BRANCH  17  19
ATOM     19  C18 <0> d          -0.452  -7.491   3.391  0.00  0.00     0.114 C 
ATOM     20  C22 <0> d          -0.198  -8.819   4.117  0.00  0.00     0.013 C 
ATOM     21  C21 <0> d          -0.487  -9.966   3.135  0.00  0.00     0.034 C 
ATOM     22  C23 <0> d           1.284  -8.881   4.508  0.00  0.00     0.034 C 
ATOM     23  C20 <0> d           0.419  -9.813   1.912  0.00  0.00     0.235 C 
ATOM     24  N5  <0> d           1.269  -8.629   2.064  0.00  0.00    -0.069 N 
ATOM     25  C19 <0> d           0.453  -7.417   2.160  0.00  0.00     0.260 C 
ATOM     26  C24 <0> d           2.135  -8.763   3.238  0.00  0.00     0.235 C 
ATOM     27  H40 <0> d           1.853  -8.557   1.243  0.00  0.00     0.280 HD
ENDBRANCH  17  19
ENDBRANCH   5  15
BRANCH   1  28
ATOM     28  C5  <0> d          -3.451  -1.982   1.252  0.00  0.00     0.081 C 
ATOM     29  C4  <0> d          -4.354  -1.611   0.073  0.00  0.00     0.034 C 
ATOM     30  C3  <0> d          -3.493  -1.066  -1.071  0.00  0.00     0.126 C 
ATOM     31  N1  <0> d          -2.679   0.046  -0.562  0.00  0.00    -0.352 N 
ATOM     32  C2  <0> d          -2.699   1.248  -1.173  0.00  0.00     0.215 C 
ATOM     33  C7  <0> d          -1.838  -0.178   0.622  0.00  0.00     0.126 C 
ATOM     34  C1  <0> d          -3.567   1.462  -2.386  0.00  0.00     0.117 C 
ATOM     35  O1  <0> d          -2.018   2.156  -0.746  0.00  0.00    -0.274 OA
ATOM     36  C6  <0> d          -2.721  -0.732   1.750  0.00  0.00     0.034 C 
ENDBRANCH   1  28
TORSDOF 3
