REMARK  9 active torsions:
REMARK  status: ('A' for Active; 'I' for Inactive)
REMARK    1  A    between atoms: C2_2  and  C3_3 
REMARK    2  A    between atoms: C3_3  and  N1_4 
REMARK    3  A    between atoms: N1_4  and  C4_5 
REMARK    4  A    between atoms: N1_4  and  C8_10 
REMARK    5  A    between atoms: C4_5  and  C5_6 
REMARK    6  A    between atoms: C5_6  and  N2_7 
REMARK    7  A    between atoms: C8_10  and  C9_11 
REMARK    8  A    between atoms: C8_10  and  C13_17 
REMARK    9  A    between atoms: C13_17  and  N3_19 
ROOT
ATOM      1  C8  <0> d          -0.205  -2.976  -1.695  0.00  0.00     0.292 C 
ENDROOT
BRANCH   1   2
ATOM      2  N1  <0> d           0.790  -2.101  -1.060  0.00  0.00     0.101 N 
BRANCH   2   3
ATOM      3  C3  <0> d           0.238  -0.759  -0.828  0.00  0.00     0.273 C 
BRANCH   3   4
ATOM      4  C2  <0> d          -0.778  -0.817   0.314  0.00  0.00     0.026 C 
ATOM      5  C1  <0> d          -1.255   0.599   0.644  0.00  0.00     0.007 C 
ENDBRANCH   3   4
ENDBRANCH   2   3
BRANCH   2   6
ATOM      6  C4  <0> d           2.019  -2.033  -1.862  0.00  0.00     0.301 C 
BRANCH   6   7
ATOM      7  C5  <0> d           3.171  -1.532  -0.989  0.00  0.00     0.264 C 
BRANCH   7   8
ATOM      8  N2  <0> d           4.400  -1.464  -1.790  0.00  0.00    -0.077 N 
ATOM      9  C6  <0> d           5.477  -0.870  -0.987  0.00  0.00     0.269 C 
ATOM     10  C7  <0> d           4.788  -2.818  -2.207  0.00  0.00     0.269 C 
ATOM     11  H28 <0> d           4.237  -0.894  -2.608  0.00  0.00     0.279 HD
ENDBRANCH   7   8
ENDBRANCH   6   7
ENDBRANCH   2   6
ENDBRANCH   1   2
BRANCH   1  12
ATOM     12  C9  <0> d           0.134  -4.415  -1.403  0.00  0.00     0.019 A 
ATOM     13  S1  <0> d           1.737  -5.193  -1.294  0.00  0.00    -0.085 SA
ATOM     14  C12 <0> d           1.188  -6.851  -0.922  0.00  0.00     0.051 A 
ATOM     15  C11 <0> d          -0.160  -6.705  -0.914  0.00  0.00     0.028 A 
ATOM     16 Br1  <0> d           2.219  -8.408  -0.625  0.00  0.00    -0.043 Br
ATOM     17  C10 <0> d          -0.700  -5.456  -1.160  0.00  0.00     0.019 A 
ENDBRANCH   1  12
BRANCH   1  18
ATOM     18  C13 <0> d          -0.195  -2.747  -3.207  0.00  0.00     0.217 C 
ATOM     19  C14 <0> d          -1.246  -3.643  -3.866  0.00  0.00     0.042 C 
BRANCH  18  20
ATOM     20  N3  <0> d          -0.505  -1.339  -3.491  0.00  0.00    -0.073 N 
ATOM     21  H25 <0> d           0.272  -0.761  -3.209  0.00  0.00     0.274 HD
ATOM     22  H26 <0> d          -0.668  -1.224  -4.480  0.00  0.00     0.274 HD
ATOM     23  H27 <0> d          -1.330  -1.067  -2.979  0.00  0.00     0.274 HD
ENDBRANCH  18  20
ENDBRANCH   1  18
TORSDOF 9
