REMARK  5 active torsions:
REMARK  status: ('A' for Active; 'I' for Inactive)
REMARK    1  A    between atoms: C3_3  and  C6_7 
REMARK    2  A    between atoms: C6_7  and  C7_8 
REMARK    3  A    between atoms: C7_8  and  N2_9 
REMARK    4  A    between atoms: N2_9  and  S1_10 
REMARK    5  A    between atoms: S1_10  and  C8_13 
ROOT
ATOM      1  N2  <0> d           5.907   1.893   2.293  0.00  0.00    -0.319 N 
ATOM      2  H15 <0> d           6.359   2.246   1.511  0.00  0.00     0.172 HD
ENDROOT
BRANCH   1   3
ATOM      3  C7  <0> d           4.580   1.287   2.160  0.00  0.00     0.132 C 
BRANCH   3   4
ATOM      4  C6  <0> d           3.987   1.651   0.798  0.00  0.00     0.026 C 
BRANCH   4   5
ATOM      5  C3  <0> d           2.601   1.018   0.659  0.00  0.00     0.013 C 
ATOM      6  C2  <0> d           1.955   1.482  -0.649  0.00  0.00     0.008 C 
ATOM      7  C1  <0> d           0.603   0.783  -0.816  0.00  0.00     0.028 C 
ATOM      8  C5  <0> d           0.810  -0.732  -0.778  0.00  0.00     0.232 C 
ATOM      9  N1  <0> d           1.406  -1.116   0.507  0.00  0.00    -0.075 N 
ATOM     10  C4  <0> d           2.734  -0.507   0.642  0.00  0.00     0.237 C 
ATOM     11  H8  <0> d           1.492  -2.121   0.550  0.00  0.00     0.277 HD
ATOM     12  H25 <0> d           0.813  -0.799   1.260  0.00  0.00     0.277 HD
ENDBRANCH   4   5
ENDBRANCH   3   4
ENDBRANCH   1   3
BRANCH   1  13
ATOM     13  S1  <0> d           6.635   1.976   3.779  0.00  0.00     0.230 S 
ATOM     14  O1  <0> d           7.885   2.605   3.535  0.00  0.00    -0.206 OA
ATOM     15  O2  <0> d           5.668   2.587   4.622  0.00  0.00    -0.206 OA
BRANCH  13  16
ATOM     16  C8  <0> d           6.889   0.248   4.270  0.00  0.00     0.131 C 
ATOM     17  C12 <0> d           7.750  -0.451   3.222  0.00  0.00     0.037 C 
ATOM     18  C11 <0> d           7.754  -1.961   3.471  0.00  0.00     0.142 C 
ATOM     19  S2  <0> d           8.518  -2.288   5.087  0.00  0.00     0.144 S 
ATOM     20  C10 <0> d           7.547  -1.219   6.189  0.00  0.00     0.142 C 
ATOM     21  O3  <0> d           8.271  -3.643   5.438  0.00  0.00    -0.228 OA
ATOM     22  O4  <0> d           9.857  -1.812   5.061  0.00  0.00    -0.228 OA
ATOM     23  C9  <0> d           7.566   0.209   5.637  0.00  0.00     0.037 C 
ENDBRANCH  13  16
ENDBRANCH   1  13
TORSDOF 5
