REMARK  6 active torsions:
REMARK  status: ('A' for Active; 'I' for Inactive)
REMARK    1  A    between atoms: C2_2  and  N1_3 
REMARK    2  A    between atoms: N1_3  and  C3_4 
REMARK    3  A    between atoms: C3_4  and  C4_5 
REMARK    4  A    between atoms: C5_6  and  N4_13 
REMARK    5  A    between atoms: C13_18  and  C14_19 
REMARK    6  A    between atoms: C14_19  and  O1_20 
ROOT
ATOM      1  C4  <0> d           1.285  -2.378  -2.187  0.00  0.00     0.089 A 
ATOM      2  C5  <0> d           0.793  -2.715  -3.397  0.00  0.00     0.154 A 
ATOM      3  N2  <0> d           1.823  -3.046  -4.194  0.00  0.00    -0.204 NA
ATOM      4  C6  <0> d           2.934  -2.928  -3.523  0.00  0.00     0.179 A 
ATOM      5  N3  <0> d           2.675  -2.504  -2.247  0.00  0.00    -0.299 N 
ATOM      6  C7  <0> d           3.760  -2.326  -1.416  0.00  0.00     0.106 A 
ATOM      7  C8  <0> d           4.998  -2.558  -1.851  0.00  0.00     0.071 A 
ATOM      8  S1  <0> d           4.705  -3.076  -3.535  0.00  0.00    -0.062 SA
ENDROOT
BRANCH   2   9
ATOM      9  N4  <0> d          -0.562  -2.718  -3.762  0.00  0.00    -0.357 N 
ATOM     10  C13 <0> d          -1.401  -3.899  -3.518  0.00  0.00     0.109 C 
ATOM     11  C12 <0> d          -2.075  -4.311  -4.825  0.00  0.00     0.027 C 
ATOM     12  C11 <0> d          -2.830  -3.113  -5.406  0.00  0.00     0.004 C 
ATOM     13  C10 <0> d          -1.844  -1.982  -5.704  0.00  0.00     0.020 C 
ATOM     14  C9  <0> d          -1.168  -1.542  -4.401  0.00  0.00     0.125 C 
BRANCH  10  15
ATOM     15  C14 <0> d          -0.530  -5.050  -3.008  0.00  0.00     0.189 C 
BRANCH  15  16
ATOM     16  O1  <0> d           0.379  -5.450  -4.035  0.00  0.00    -0.399 OA
ATOM     17  H22 <0> d           0.964  -6.177  -3.782  0.00  0.00     0.209 HD
ENDBRANCH  15  16
ENDBRANCH  10  15
ENDBRANCH   2   9
BRANCH   1  18
ATOM     18  C3  <0> d           0.481  -1.940  -0.990  0.00  0.00     0.293 C 
BRANCH  18  19
ATOM     19  N1  <0> d           0.429  -0.472  -0.946  0.00  0.00    -0.070 N 
ATOM     20  H7  <0> d          -0.005  -0.126  -1.788  0.00  0.00     0.277 HD
ATOM     21  H23 <0> d           1.366  -0.105  -0.875  0.00  0.00     0.277 HD
BRANCH  19  22
ATOM     22  C2  <0> d          -0.354  -0.045   0.221  0.00  0.00     0.228 C 
ATOM     23  C1  <0> d          -0.408   1.483   0.267  0.00  0.00     0.034 C 
ENDBRANCH  19  22
ENDBRANCH  18  19
ENDBRANCH   1  18
TORSDOF 6
