REMARK  5 active torsions:
REMARK  status: ('A' for Active; 'I' for Inactive)
REMARK    1  A    between atoms: C4_4  and  C13_14 
REMARK    2  A    between atoms: N1_6  and  C6_7 
REMARK    3  A    between atoms: C13_14  and  N2_15 
REMARK    4  A    between atoms: N2_15  and  C14_16 
REMARK    5  A    between atoms: C14_16  and  C15_17 
ROOT
ATOM      1  C1  <0> d          -0.018   1.503   0.010  0.00  0.00     0.068 C 
ATOM      2  C2  <0> d           0.002  -0.004   0.002  0.00  0.00     0.014 A 
ATOM      3  C3  <0> d           0.008  -0.789  -1.095  0.00  0.00     0.035 A 
ATOM      4  C4  <0> d           0.029  -2.128  -0.656  0.00  0.00    -0.008 A 
ATOM      5  C5  <0> d           0.035  -2.113   0.692  0.00  0.00     0.021 A 
ATOM      6  N1  <0> d           0.024  -0.811   1.104  0.00  0.00    -0.320 N 
ATOM      7  C12 <0> d           0.056  -3.323   1.589  0.00  0.00     0.069 C 
ENDROOT
BRANCH   4   8
ATOM      8  C13 <0> d           0.042  -3.353  -1.534  0.00  0.00     0.273 C 
BRANCH   8   9
ATOM      9  N2  <0> d          -1.315  -3.910  -1.617  0.00  0.00    -0.064 N 
ATOM     10  H16 <0> d          -1.633  -4.161  -0.693  0.00  0.00     0.277 HD
ATOM     11  H20 <0> d          -1.938  -3.220  -2.011  0.00  0.00     0.277 HD
BRANCH   9  12
ATOM     12  C14 <0> d          -1.303  -5.104  -2.473  0.00  0.00     0.314 C 
BRANCH  12  13
ATOM     13  C15 <0> d          -2.695  -5.675  -2.558  0.00  0.00     0.172 A 
ATOM     14  N3  <0> d          -3.611  -5.349  -3.469  0.00  0.00    -0.224 NA
ATOM     15  C16 <0> d          -4.709  -6.029  -3.258  0.00  0.00     0.227 A 
ATOM     16  N4  <0> d          -4.511  -6.817  -2.187  0.00  0.00    -0.270 N 
ATOM     17  H1  <0> d          -5.149  -7.433  -1.793  0.00  0.00     0.190 HD
ATOM     18  N5  <0> d          -3.197  -6.574  -1.754  0.00  0.00    -0.157 NA
ENDBRANCH  12  13
ENDBRANCH   9  12
ENDBRANCH   8   9
ENDBRANCH   4   8
BRANCH   6  19
ATOM     19  C6  <0> d           0.030  -0.375   2.436  0.00  0.00     0.039 A 
ATOM     20  C11 <0> d          -1.064   0.309   2.950  0.00  0.00     0.030 A 
ATOM     21  C10 <0> d          -1.056   0.733   4.264  0.00  0.00     0.002 A 
ATOM     22  C9  <0> d           0.044   0.487   5.066  0.00  0.00     0.000 A 
ATOM     23  C8  <0> d           1.137  -0.189   4.555  0.00  0.00     0.002 A 
ATOM     24  C7  <0> d           1.133  -0.621   3.243  0.00  0.00     0.030 A 
ENDBRANCH   6  19
TORSDOF 5
