REMARK  3 active torsions:
REMARK  status: ('A' for Active; 'I' for Inactive)
REMARK    1  A    between atoms: N2_8  and  C9_12 
REMARK    2  A    between atoms: C9_12  and  C10_13 
REMARK    3  A    between atoms: C10_13  and  C12_15 
ROOT
ATOM      1  C1  <0> d          -0.018   1.503   0.010  0.00  0.00     0.049 C 
ATOM      2  C2  <0> d           0.002  -0.004   0.002  0.00  0.00    -0.042 A 
ATOM      3  C3  <0> d           0.006  -0.693  -1.196  0.00  0.00     0.043 A 
ATOM      4  C4  <0> d           0.025  -2.090  -1.153  0.00  0.00     0.105 A 
ATOM      5  C5  <0> d           0.040  -2.734   0.097  0.00  0.00     0.160 A 
ATOM      6  N1  <0> d           0.036  -2.025   1.214  0.00  0.00    -0.240 NA
ATOM      7  C6  <0> d           0.023  -0.708   1.196  0.00  0.00     0.126 A 
ATOM      8  N2  <0> d           0.056  -4.085  -0.175  0.00  0.00    -0.317 N 
ATOM      9  C7  <0> d           0.051  -4.228  -1.529  0.00  0.00     0.104 A 
ATOM     10  N3  <0> d           0.033  -3.060  -2.102  0.00  0.00    -0.232 NA
ATOM     11  C8  <0> d           0.066  -5.547  -2.258  0.00  0.00     0.091 C 
ENDROOT
BRANCH   8  12
ATOM     12  C9  <0> d           0.076  -5.168   0.811  0.00  0.00     0.143 C 
BRANCH  12  13
ATOM     13  C10 <0> d          -1.360  -5.564   1.162  0.00  0.00     0.061 C 
ATOM     14  C11 <0> d          -2.056  -4.394   1.859  0.00  0.00     0.019 C 
BRANCH  13  15
ATOM     15  C12 <0> d          -1.341  -6.758   2.081  0.00  0.00     0.076 C 
ATOM     16  S1  <0> d           0.038  -7.252   2.722  0.00  0.00    -0.065 SA
ATOM     17  N4  <0> d          -2.487  -7.410   2.363  0.00  0.00    -0.393 N 
ATOM     18  H15 <0> d          -3.323  -7.110   1.975  0.00  0.00     0.156 HD
ATOM     19  H16 <0> d          -2.474  -8.178   2.955  0.00  0.00     0.156 HD
ENDBRANCH  13  15
ENDBRANCH  12  13
ENDBRANCH   8  12
TORSDOF 3
