REMARK  4 active torsions:
REMARK  status: ('A' for Active; 'I' for Inactive)
REMARK    1  A    between atoms: C2_2  and  C3_3 
REMARK    2  A    between atoms: C2_2  and  N4_19 
REMARK    3  A    between atoms: C3_3  and  N1_4 
REMARK       I    between atoms: N1_4  and  C4_5 
REMARK    4  A    between atoms: C4_5  and  C5_7 
ROOT
ATOM      1  N1  <0> d          -1.789  -1.846  -0.161  0.00  0.00    -0.355 N 
ATOM      2  C4  <0> d          -3.037  -2.348  -0.247  0.00  0.00     0.258 C 
ATOM      3  O1  <0> d          -3.998  -1.619  -0.086  0.00  0.00    -0.267 OA
ATOM      4  H7  <0> d          -1.023  -2.439  -0.216  0.00  0.00     0.162 HD
ENDROOT
BRANCH   2   5
ATOM      5  C5  <0> d          -3.236  -3.773  -0.534  0.00  0.00     0.117 A 
ATOM      6  C12 <0> d          -2.133  -4.658  -0.610  0.00  0.00     0.270 A 
ATOM      7  N3  <0> d          -2.363  -5.963  -0.872  0.00  0.00    -0.271 N 
ATOM      8  O2  <0> d          -0.998  -4.250  -0.439  0.00  0.00    -0.266 OA
ATOM      9  C7  <0> d          -3.640  -6.406  -1.068  0.00  0.00     0.136 A 
ATOM     10  C11 <0> d          -1.313  -6.826  -0.942  0.00  0.00     0.121 A 
ATOM     11  N2  <0> d          -4.680  -5.571  -1.002  0.00  0.00    -0.242 NA
ATOM     12  C8  <0> d          -3.868  -7.764  -1.346  0.00  0.00     0.052 A 
ATOM     13  C6  <0> d          -4.523  -4.289  -0.746  0.00  0.00     0.141 A 
ATOM     14  C9  <0> d          -2.810  -8.624  -1.415  0.00  0.00     0.024 A 
ATOM     15  C10 <0> d          -1.512  -8.139  -1.208  0.00  0.00     0.027 A 
ATOM     16 Br1  <0> d          -0.037  -9.318  -1.300  0.00  0.00    -0.050 Br
ENDBRANCH   2   5
BRANCH   1  17
ATOM     17  C3  <0> d          -1.590  -0.406   0.015  0.00  0.00     0.158 C 
BRANCH  17  18
ATOM     18  C2  <0> d          -0.094  -0.087  -0.044  0.00  0.00     0.236 C 
ATOM     19  C1  <0> d           0.109   1.426   0.060  0.00  0.00     0.044 C 
BRANCH  18  20
ATOM     20  N4  <0> d           0.460  -0.569  -1.316  0.00  0.00     0.098 N 
ATOM     21  C16 <0> d          -0.064   0.209  -2.447  0.00  0.00     0.299 C 
ATOM     22  C15 <0> d           0.491  -0.364  -3.754  0.00  0.00     0.198 C 
ATOM     23  O3  <0> d           1.920  -0.353  -3.705  0.00  0.00    -0.388 OA
ATOM     24  C14 <0> d           2.464  -1.102  -2.615  0.00  0.00     0.198 C 
ATOM     25  C13 <0> d           1.929  -0.536  -1.297  0.00  0.00     0.299 C 
ENDBRANCH  18  20
ENDBRANCH  17  18
ENDBRANCH   1  17
TORSDOF 4
