REMARK  4 active torsions:
REMARK  status: ('A' for Active; 'I' for Inactive)
REMARK    1  A    between atoms: C8_9  and  N2_10 
REMARK       I    between atoms: N2_10  and  C9_11 
REMARK    2  A    between atoms: C9_11  and  C10_13 
REMARK    3  A    between atoms: C10_13  and  S1_14 
REMARK    4  A    between atoms: S1_14  and  C11_15 
ROOT
ATOM      1  N2  <0> d           4.684  -3.421  -0.059  0.00  0.00    -0.306 N 
ATOM      2  C9  <0> d           5.960  -2.984  -0.069  0.00  0.00     0.233 C 
ATOM      3  O1  <0> d           6.193  -1.794  -0.066  0.00  0.00    -0.272 OA
ATOM      4  H12 <0> d           4.498  -4.373  -0.062  0.00  0.00     0.171 HD
ENDROOT
BRANCH   1   5
ATOM      5  C8  <0> d           3.648  -2.517  -0.045  0.00  0.00     0.154 A 
ATOM      6  N1  <0> d           2.381  -2.901  -0.035  0.00  0.00    -0.303 N 
ATOM      7  C7  <0> d           1.309  -2.139  -0.021  0.00  0.00     0.259 A 
ATOM      8  H13 <0> d           2.225  -3.858  -0.037  0.00  0.00     0.171 HD
ATOM      9  C5  <0> d           1.226  -0.678  -0.013  0.00  0.00     0.049 A 
ATOM     10  O2  <0> d           0.242  -2.729  -0.013  0.00  0.00    -0.267 OA
ATOM     11  C4  <0> d           2.411   0.088  -0.021  0.00  0.00     0.024 A 
ATOM     12  C6  <0> d           0.002  -0.004   0.002  0.00  0.00     0.018 A 
ATOM     13  C3  <0> d           2.384   1.463  -0.013  0.00  0.00     0.020 A 
ATOM     14  S2  <0> d           3.912  -0.855  -0.040  0.00  0.00    -0.053 SA
ATOM     15  C2  <0> d           1.160   2.108   0.002  0.00  0.00     0.001 A 
ATOM     16  C1  <0> d          -0.017   1.373   0.010  0.00  0.00     0.001 A 
ENDBRANCH   1   5
BRANCH   2  17
ATOM     17  C10 <0> d           7.095  -3.975  -0.085  0.00  0.00     0.185 C 
BRANCH  17  18
ATOM     18  S1  <0> d           8.675  -3.083  -0.096  0.00  0.00    -0.083 SA
BRANCH  18  19
ATOM     19  C11 <0> d           9.886  -4.362  -0.114  0.00  0.00     0.168 A 
ATOM     20  N4  <0> d           9.625  -5.647  -0.118  0.00  0.00    -0.223 NA
ATOM     21  C17 <0> d          10.789  -6.349  -0.137  0.00  0.00     0.086 A 
ATOM     22  C12 <0> d          11.836  -5.413  -0.135  0.00  0.00     0.063 A 
ATOM     23  C16 <0> d          11.086  -7.714  -0.150  0.00  0.00     0.034 A 
ATOM     24  N3  <0> d          11.238  -4.164  -0.121  0.00  0.00    -0.333 N 
ATOM     25  C13 <0> d          13.153  -5.848  -0.147  0.00  0.00     0.032 A 
ATOM     26  H1  <0> d          11.694  -3.308  -0.116  0.00  0.00     0.168 HD
ATOM     27  C14 <0> d          13.430  -7.200  -0.161  0.00  0.00     0.002 A 
ATOM     28  C15 <0> d          12.399  -8.128  -0.162  0.00  0.00     0.002 A 
ENDBRANCH  18  19
ENDBRANCH  17  18
ENDBRANCH   2  17
TORSDOF 4
