REMARK  5 active torsions:
REMARK  status: ('A' for Active; 'I' for Inactive)
REMARK    1  A    between atoms: O1_2  and  C2_3 
REMARK    2  A    between atoms: C4_5  and  C8_11 
REMARK    3  A    between atoms: C7_8  and  O2_9 
REMARK    4  A    between atoms: C8_11  and  N1_12 
REMARK    5  A    between atoms: N1_12  and  C9_13 
ROOT
ATOM      1  C8  <0> d           2.401   0.380  -4.231  0.00  0.00     0.271 C 
ENDROOT
BRANCH   1   2
ATOM      2  C4  <0> d           1.786  -0.455  -3.138  0.00  0.00    -0.029 A 
ATOM      3  C3  <0> d           1.173   0.159  -2.062  0.00  0.00     0.048 A 
ATOM      4  C2  <0> d           0.606  -0.608  -1.056  0.00  0.00     0.103 A 
ATOM      5  C7  <0> d           0.662  -1.996  -1.129  0.00  0.00     0.116 A 
ATOM      6  C6  <0> d           1.273  -2.606  -2.213  0.00  0.00     0.047 A 
ATOM      7  C5  <0> d           1.836  -1.835  -3.214  0.00  0.00     0.030 A 
ATOM      8 Br1  <0> d           1.342  -4.493  -2.321  0.00  0.00    -0.048 Br
BRANCH   4   9
ATOM      9  O1  <0> d           0.002  -0.004   0.002  0.00  0.00    -0.353 OA
ATOM     10  C1  <0> d          -0.017   1.425   0.010  0.00  0.00     0.210 C 
ENDBRANCH   4   9
BRANCH   5  11
ATOM     11  O2  <0> d           0.112  -2.752  -0.141  0.00  0.00    -0.357 OA
ATOM     12  H6  <0> d          -0.816  -2.979  -0.290  0.00  0.00     0.218 HD
ENDBRANCH   5  11
ENDBRANCH   1   2
BRANCH   1  13
ATOM     13  N1  <0> d           3.806   0.659  -3.903  0.00  0.00    -0.067 N 
ATOM     14  H9  <0> d           3.854   1.160  -3.028  0.00  0.00     0.277 HD
ATOM     15  H19 <0> d           4.311  -0.211  -3.820  0.00  0.00     0.277 HD
BRANCH  13  16
ATOM     16  C9  <0> d           4.405   1.473  -4.968  0.00  0.00     0.188 C 
ATOM     17  C13 <0> d           5.824   1.863  -4.564  0.00  0.00     0.048 C 
ATOM     18  C12 <0> d           6.367   2.925  -5.524  0.00  0.00     0.142 C 
ATOM     19  S1  <0> d           6.470   2.213  -7.192  0.00  0.00     0.144 S 
ATOM     20  C11 <0> d           4.782   1.586  -7.440  0.00  0.00     0.142 C 
ATOM     21  O3  <0> d           6.702   3.264  -8.119  0.00  0.00    -0.228 OA
ATOM     22  O4  <0> d           7.362   1.107  -7.160  0.00  0.00    -0.228 OA
ATOM     23  C10 <0> d           4.415   0.673  -6.267  0.00  0.00     0.048 C 
ENDBRANCH  13  16
ENDBRANCH   1  13
TORSDOF 5
