REMARK  9 active torsions:
REMARK  status: ('A' for Active; 'I' for Inactive)
REMARK    1  A    between atoms: C2_2  and  C3_3 
REMARK    2  A    between atoms: N2_5  and  C18_27 
REMARK    3  A    between atoms: C4_6  and  S1_8 
REMARK    4  A    between atoms: S1_8  and  C5_9 
REMARK    5  A    between atoms: C5_9  and  C6_10 
REMARK       I    between atoms: C6_10  and  N4_12 
REMARK    6  A    between atoms: N4_12  and  C7_13 
REMARK    7  A    between atoms: C8_14  and  C15_22 
REMARK    8  A    between atoms: C15_22  and  O3_24 
REMARK    9  A    between atoms: O3_24  and  C16_25 
ROOT
ATOM      1  C5  <0> d           4.740   0.666  -0.268  0.00  0.00     0.185 C 
ENDROOT
BRANCH   1   2
ATOM      2  S1  <0> d           4.453  -1.085   0.110  0.00  0.00    -0.083 SA
BRANCH   2   3
ATOM      3  C4  <0> d           2.819  -1.117   0.769  0.00  0.00     0.160 A 
ATOM      4  N2  <0> d           2.187  -2.256   1.193  0.00  0.00    -0.254 N 
ATOM      5  N1  <0> d           0.933  -1.956   1.650  0.00  0.00    -0.203 NA
ATOM      6  C3  <0> d           0.791  -0.495   1.488  0.00  0.00     0.099 A 
ATOM      7  H6  <0> d           0.827  -2.224   2.617  0.00  0.00     0.150 HD
ATOM      8  N3  <0> d           2.072  -0.062   0.910  0.00  0.00    -0.346 N 
ATOM      9  C24 <0> d           0.563   0.176   2.844  0.00  0.00     0.058 C 
ATOM     10  H31 <0> d           2.315   0.847   0.676  0.00  0.00     0.163 HD
BRANCH   4  11
ATOM     11  C18 <0> d           2.743  -3.538   1.163  0.00  0.00     0.053 A 
ATOM     12  C23 <0> d           2.014  -4.601   0.644  0.00  0.00     0.031 A 
ATOM     13  C22 <0> d           2.569  -5.865   0.611  0.00  0.00     0.002 A 
ATOM     14  C21 <0> d           3.843  -6.077   1.105  0.00  0.00     0.000 A 
ATOM     15  C20 <0> d           4.569  -5.022   1.628  0.00  0.00     0.002 A 
ATOM     16  C19 <0> d           4.022  -3.754   1.658  0.00  0.00     0.031 A 
ENDBRANCH   4  11
BRANCH   6  17
ATOM     17  C2  <0> d          -0.361  -0.174   0.534  0.00  0.00     0.044 C 
ATOM     18  C1  <0> d          -0.434   1.339   0.314  0.00  0.00     0.009 C 
ENDBRANCH   6  17
ENDBRANCH   2   3
ENDBRANCH   1   2
BRANCH   1  19
ATOM     19  C6  <0> d           6.121   0.836  -0.846  0.00  0.00     0.232 C 
ATOM     20  O1  <0> d           6.841  -0.130  -0.989  0.00  0.00    -0.272 OA
ATOM     21  N4  <0> d           6.556   2.060  -1.204  0.00  0.00    -0.320 N 
ATOM     22  H9  <0> d           5.980   2.832  -1.090  0.00  0.00     0.169 HD
BRANCH  21  23
ATOM     23  C7  <0> d           7.827   2.216  -1.736  0.00  0.00     0.094 A 
ATOM     24  S2  <0> d           8.980   1.029  -2.018  0.00  0.00    -0.075 SA
ATOM     25  C10 <0> d          10.279   2.024  -2.691  0.00  0.00    -0.008 A 
ATOM     26  C9  <0> d           9.790   3.282  -2.677  0.00  0.00    -0.026 A 
ATOM     27  C11 <0> d          11.630   1.589  -3.171  0.00  0.00     0.047 C 
ATOM     28  C8  <0> d           8.439   3.389  -2.151  0.00  0.00     0.080 A 
ATOM     29  C14 <0> d          10.616   4.458  -3.177  0.00  0.00     0.041 C 
ATOM     30  C13 <0> d          12.088   4.041  -3.216  0.00  0.00     0.005 C 
ATOM     31  C12 <0> d          12.239   2.732  -3.996  0.00  0.00     0.005 C 
BRANCH  28  32
ATOM     32  C15 <0> d           7.754   4.680  -2.064  0.00  0.00     0.296 C 
ATOM     33  O2  <0> d           7.857   5.357  -1.059  0.00  0.00    -0.259 OA
BRANCH  32  34
ATOM     34  O3  <0> d           7.008   5.118  -3.099  0.00  0.00    -0.318 OA
BRANCH  34  35
ATOM     35  C16 <0> d           6.367   6.386  -2.946  0.00  0.00     0.174 C 
ATOM     36  C17 <0> d           5.573   6.713  -4.212  0.00  0.00     0.034 C 
ENDBRANCH  34  35
ENDBRANCH  32  34
ENDBRANCH  28  32
ENDBRANCH  21  23
ENDBRANCH   1  19
TORSDOF 9
