REMARK  5 active torsions:
REMARK  status: ('A' for Active; 'I' for Inactive)
REMARK    1  A    between atoms: C2_2  and  C3_3 
REMARK    2  A    between atoms: C2_2  and  N1_5 
REMARK    3  A    between atoms: C3_3  and  O1_4 
REMARK    4  A    between atoms: N1_5  and  S1_6 
REMARK    5  A    between atoms: S1_6  and  C4_9 
ROOT
ATOM      1  S1  <0> d          -0.188  -0.875  -2.551  0.00  0.00     0.259 S 
ATOM      2  O2  <0> d           0.751  -1.265  -3.545  0.00  0.00    -0.201 OA
ATOM      3  O3  <0> d          -1.236  -1.730  -2.117  0.00  0.00    -0.201 OA
ENDROOT
BRANCH   1   4
ATOM      4  N1  <0> d           0.688  -0.476  -1.203  0.00  0.00    -0.309 N 
ATOM      5  H8  <0> d           1.655  -0.556  -1.212  0.00  0.00     0.172 HD
BRANCH   4   6
ATOM      6  C2  <0> d           0.002  -0.004   0.002  0.00  0.00     0.112 C 
ATOM      7  C1  <0> d          -0.019   1.526   0.010  0.00  0.00     0.035 C 
BRANCH   6   8
ATOM      8  C3  <0> d           0.742  -0.511   1.242  0.00  0.00     0.189 C 
BRANCH   8   9
ATOM      9  O1  <0> d           2.044   0.076   1.292  0.00  0.00    -0.399 OA
ATOM     10  H7  <0> d           2.571  -0.201   2.054  0.00  0.00     0.209 HD
ENDBRANCH   8   9
ENDBRANCH   6   8
ENDBRANCH   4   6
ENDBRANCH   1   4
BRANCH   1  11
ATOM     11  C4  <0> d          -0.951   0.603  -3.133  0.00  0.00     0.085 A 
ATOM     12  C9  <0> d          -0.294   1.406  -4.047  0.00  0.00     0.067 A 
ATOM     13  C8  <0> d          -0.895   2.565  -4.508  0.00  0.00     0.120 A 
ATOM     14  C7  <0> d          -2.149   2.925  -4.046  0.00  0.00     0.084 A 
ATOM     15  F1  <0> d          -0.256   3.346  -5.406  0.00  0.00    -0.206 F 
ATOM     16  C6  <0> d          -2.803   2.123  -3.127  0.00  0.00     0.120 A 
ATOM     17  C5  <0> d          -2.202   0.962  -2.670  0.00  0.00     0.067 A 
ATOM     18  F2  <0> d          -4.027   2.473  -2.675  0.00  0.00    -0.206 F 
ENDBRANCH   1  11
TORSDOF 5
