REMARK  7 active torsions:
REMARK  status: ('A' for Active; 'I' for Inactive)
REMARK    1  A    between atoms: C6_7  and  C9_11 
REMARK    2  A    between atoms: C9_11  and  N3_12 
REMARK       I    between atoms: N3_12  and  C10_13 
REMARK    3  A    between atoms: C10_13  and  C11_15 
REMARK       I    between atoms: N4_17  and  C19_25 
REMARK    4  A    between atoms: C19_25  and  C20_27 
REMARK    5  A    between atoms: C20_27  and  C21_28 
REMARK    6  A    between atoms: C21_28  and  C22_29 
REMARK    7  A    between atoms: C22_29  and  C23_30 
ROOT
ATOM      1  C11 <0> d           3.154  -7.368   3.688  0.00  0.00     0.106 C 
ATOM      2  C12 <0> d           3.796  -6.243   4.529  0.00  0.00     0.140 C 
ATOM      3  N4  <0> d           3.604  -6.670   5.935  0.00  0.00    -0.351 N 
ATOM      4  C13 <0> d           3.838  -8.134   5.911  0.00  0.00     0.136 C 
ATOM      5  C14 <0> d           3.187  -8.609   4.596  0.00  0.00    -0.007 C 
ATOM      6  C15 <0> d           4.028  -9.710   3.958  0.00  0.00     0.039 C 
ATOM      7  C16 <0> d           3.998 -10.953   4.851  0.00  0.00     0.233 C 
ATOM      8  N5  <0> d           2.611 -11.404   5.019  0.00  0.00    -0.075 N 
ATOM      9  C17 <0> d           1.831 -10.375   5.718  0.00  0.00     0.233 C 
ATOM     10  C18 <0> d           1.770  -9.108   4.861  0.00  0.00     0.039 C 
ATOM     11  C19 <0> d           3.288  -5.902   6.997  0.00  0.00     0.219 C 
ATOM     12  O2  <0> d           3.165  -6.404   8.094  0.00  0.00    -0.273 OA
ATOM     13  H20 <0> d           2.202 -11.575   4.112  0.00  0.00     0.277 HD
ATOM     14  H36 <0> d           2.599 -12.257   5.557  0.00  0.00     0.277 HD
ENDROOT
BRANCH   1  15
ATOM     15  C10 <0> d           1.732  -7.014   3.335  0.00  0.00     0.224 C 
ATOM     16  N3  <0> d           1.176  -7.499   2.207  0.00  0.00    -0.355 N 
ATOM     17  H11 <0> d           1.692  -8.077   1.623  0.00  0.00     0.162 HD
ATOM     18  O1  <0> d           1.088  -6.292   4.066  0.00  0.00    -0.273 OA
BRANCH  16  19
ATOM     19  C9  <0> d          -0.206  -7.155   1.865  0.00  0.00     0.181 C 
BRANCH  19  20
ATOM     20  C6  <0> d          -0.582  -7.821   0.566  0.00  0.00     0.044 A 
ATOM     21  C5  <0> d          -1.221  -9.004   0.444  0.00  0.00     0.124 A 
ATOM     22  N1  <0> d          -1.371  -9.247  -0.895  0.00  0.00    -0.317 N 
ATOM     23  C4  <0> d          -1.936 -10.277  -1.589  0.00  0.00     0.098 A 
ATOM     24  C7  <0> d          -0.809  -8.187  -1.559  0.00  0.00     0.112 A 
ATOM     25  C3  <0> d          -1.952 -10.269  -2.938  0.00  0.00     0.024 A 
ATOM     26  C2  <0> d          -1.385  -9.197  -3.648  0.00  0.00    -0.057 A 
ATOM     27  C1  <0> d          -1.404  -9.192  -5.155  0.00  0.00     0.048 C 
ATOM     28  C8  <0> d          -0.813  -8.167  -2.968  0.00  0.00     0.055 A 
ATOM     29  N2  <0> d          -0.340  -7.338  -0.655  0.00  0.00    -0.343 N 
ATOM     30  H37 <0> d           0.109  -6.501  -0.850  0.00  0.00     0.167 HD
ENDBRANCH  19  20
ENDBRANCH  16  19
ENDBRANCH   1  15
BRANCH  11  31
ATOM     31  C20 <0> d           3.088  -4.419   6.820  0.00  0.00     0.103 C 
BRANCH  31  32
ATOM     32  C21 <0> d           2.740  -3.787   8.169  0.00  0.00     0.014 C 
BRANCH  32  33
ATOM     33  C22 <0> d           2.537  -2.281   7.990  0.00  0.00     0.039 C 
BRANCH  33  34
ATOM     34  C23 <0> d           2.195  -1.659   9.319  0.00  0.00    -0.058 A 
ATOM     35  C28 <0> d           3.201  -1.191  10.143  0.00  0.00     0.007 A 
ATOM     36  C27 <0> d           2.887  -0.616  11.361  0.00  0.00     0.001 A 
ATOM     37  C26 <0> d           1.567  -0.518  11.758  0.00  0.00     0.000 A 
ATOM     38  C25 <0> d           0.560  -0.991  10.937  0.00  0.00     0.001 A 
ATOM     39  C24 <0> d           0.874  -1.561   9.718  0.00  0.00     0.007 A 
ENDBRANCH  33  34
ENDBRANCH  32  33
ENDBRANCH  31  32
ENDBRANCH  11  31
TORSDOF 7
