REMARK  8 active torsions:
REMARK  status: ('A' for Active; 'I' for Inactive)
REMARK    1  A    between atoms: N2_4  and  C4_6 
REMARK    2  A    between atoms: C4_6  and  C5_7 
REMARK    3  A    between atoms: C8_10  and  C11_13 
REMARK    4  A    between atoms: C11_13  and  N3_14 
REMARK       I    between atoms: N3_14  and  C12_15 
REMARK    5  A    between atoms: C12_15  and  C13_17 
REMARK       I    between atoms: C13_17  and  N4_19 
REMARK    6  A    between atoms: N4_19  and  C14_20 
REMARK    7  A    between atoms: C17_23  and  C20_26 
REMARK    8  A    between atoms: C20_26  and  C21_27 
REMARK       I    between atoms: C21_27  and  N5_29 
ROOT
ATOM      1  N3  <0> d           5.440  -1.301  -5.269  0.00  0.00    -0.349 N 
ATOM      2  C12 <0> d           6.223  -1.243  -6.365  0.00  0.00     0.309 C 
ATOM      3  O1  <0> d           6.829  -2.229  -6.730  0.00  0.00    -0.262 OA
ATOM      4  H12 <0> d           4.955  -0.513  -4.977  0.00  0.00     0.163 HD
ENDROOT
BRANCH   2   5
ATOM      5  C13 <0> d           6.343   0.034  -7.130  0.00  0.00     0.313 C 
ATOM      6  O2  <0> d           5.736   1.019  -6.765  0.00  0.00    -0.262 OA
ATOM      7  N4  <0> d           7.125   0.091  -8.226  0.00  0.00    -0.319 N 
ATOM      8  H13 <0> d           7.662  -0.676  -8.480  0.00  0.00     0.169 HD
BRANCH   7   9
ATOM      9  C14 <0> d           7.163   1.256  -8.997  0.00  0.00     0.035 A 
ATOM     10  C19 <0> d           7.060   2.499  -8.385  0.00  0.00     0.030 A 
ATOM     11  C18 <0> d           7.104   3.649  -9.149  0.00  0.00     0.010 A 
ATOM     12  C17 <0> d           7.238   3.563 -10.523  0.00  0.00    -0.049 A 
ATOM     13  C16 <0> d           7.335   2.327 -11.136  0.00  0.00     0.010 A 
ATOM     14  C15 <0> d           7.298   1.174 -10.377  0.00  0.00     0.030 A 
BRANCH  12  15
ATOM     15  C20 <0> d           7.279   4.819 -11.354  0.00  0.00     0.141 C 
BRANCH  15  16
ATOM     16  C21 <0> d           5.879   5.194 -11.767  0.00  0.00     0.219 C 
ATOM     17  O3  <0> d           4.940   4.509 -11.420  0.00  0.00    -0.273 OA
ATOM     18  N5  <0> d           5.670   6.292 -12.521  0.00  0.00    -0.370 N 
ATOM     19  H20 <0> d           6.420   6.840 -12.799  0.00  0.00     0.159 HD
ATOM     20  H21 <0> d           4.768   6.533 -12.787  0.00  0.00     0.159 HD
ENDBRANCH  15  16
ENDBRANCH  12  15
ENDBRANCH   7   9
ENDBRANCH   2   5
BRANCH   1  21
ATOM     21  C11 <0> d           5.322  -2.554  -4.519  0.00  0.00     0.161 C 
BRANCH  21  22
ATOM     22  C8  <0> d           4.396  -2.352  -3.347  0.00  0.00    -0.041 A 
ATOM     23  C7  <0> d           3.040  -2.580  -3.491  0.00  0.00     0.009 A 
ATOM     24  C6  <0> d           2.190  -2.397  -2.417  0.00  0.00     0.009 A 
ATOM     25  C5  <0> d           2.696  -1.985  -1.198  0.00  0.00    -0.038 A 
ATOM     26  C10 <0> d           4.051  -1.752  -1.055  0.00  0.00     0.009 A 
ATOM     27  C9  <0> d           4.901  -1.940  -2.129  0.00  0.00     0.009 A 
BRANCH  25  28
ATOM     28  C4  <0> d           1.769  -1.784  -0.027  0.00  0.00     0.189 C 
BRANCH  28  29
ATOM     29  N2  <0> d           1.282  -0.403  -0.020  0.00  0.00    -0.277 N 
ATOM     30  N1  <0> d           2.076   0.751  -0.025  0.00  0.00    -0.185 NA
ATOM     31  C2  <0> d           1.284   1.792  -0.017  0.00  0.00     0.140 A 
ATOM     32  C1  <0> d          -0.038   1.336  -0.007  0.00  0.00     0.040 A 
ATOM     33  C3  <0> d          -0.011  -0.017  -0.010  0.00  0.00     0.114 A 
ENDBRANCH  28  29
ENDBRANCH  25  28
ENDBRANCH  21  22
ENDBRANCH   1  21
TORSDOF 8
