REMARK  6 active torsions:
REMARK  status: ('A' for Active; 'I' for Inactive)
REMARK    1  A    between atoms: C4_4  and  N2_10 
REMARK    2  A    between atoms: N2_10  and  C9_11 
REMARK    3  A    between atoms: N2_10  and  C15_18 
REMARK    4  A    between atoms: C9_11  and  C10_12 
REMARK    5  A    between atoms: C15_18  and  C16_19 
REMARK    6  A    between atoms: N5_22  and  C19_24 
ROOT
ATOM      1  N2  <0> d           2.592  -1.352  -3.075  0.00  0.00     0.103 N 
ENDROOT
BRANCH   1   2
ATOM      2  C4  <0> d           1.793  -1.116  -1.861  0.00  0.00     0.228 C 
ATOM      3  C3  <0> d           2.118  -2.194  -0.827  0.00  0.00     0.073 C 
ATOM      4  C2  <0> d           1.327  -1.956   0.455  0.00  0.00     0.121 C 
ATOM      5  C1  <0> d          -0.139  -2.345   0.239  0.00  0.00     0.046 C 
ATOM      6  N1  <0> d           1.444  -0.599   0.959  0.00  0.00    -0.059 N 
ATOM      7  C25 <0> d           1.895  -2.909   1.532  0.00  0.00     0.046 C 
ATOM      8  C6  <0> d           1.377   0.499   0.011  0.00  0.00     0.121 C 
ATOM      9  H9  <0> d           0.718  -0.456   1.668  0.00  0.00     0.279 HD
ATOM     10  H34 <0> d           2.328  -0.524   1.474  0.00  0.00     0.279 HD
ATOM     11  C5  <0> d           2.167   0.242  -1.268  0.00  0.00     0.073 C 
ATOM     12  C7  <0> d          -0.074   0.846  -0.338  0.00  0.00     0.046 C 
ATOM     13  C8  <0> d           1.990   1.746   0.690  0.00  0.00     0.046 C 
ENDBRANCH   1   2
BRANCH   1  14
ATOM     14  C9  <0> d           1.959  -0.737  -4.250  0.00  0.00     0.332 C 
BRANCH  14  15
ATOM     15  C10 <0> d           0.731  -1.524  -4.628  0.00  0.00     0.062 A 
ATOM     16  N3  <0> d           0.846  -2.574  -5.416  0.00  0.00    -0.264 NA
ATOM     17  C14 <0> d          -0.200  -3.295  -5.768  0.00  0.00     0.117 A 
ATOM     18  C13 <0> d          -1.467  -2.965  -5.328  0.00  0.00     0.019 A 
ATOM     19  C12 <0> d          -1.629  -1.863  -4.501  0.00  0.00     0.003 A 
ATOM     20  C11 <0> d          -0.505  -1.132  -4.148  0.00  0.00     0.029 A 
ENDBRANCH  14  15
ENDBRANCH   1  14
BRANCH   1  21
ATOM     21  C15 <0> d           3.967  -0.865  -2.903  0.00  0.00     0.315 C 
BRANCH  21  22
ATOM     22  C16 <0> d           4.704  -1.767  -1.948  0.00  0.00     0.007 A 
ATOM     23  C18 <0> d           5.069  -3.049  -2.184  0.00  0.00     0.129 A 
ATOM     24  N5  <0> d           5.709  -3.505  -1.084  0.00  0.00    -0.245 N 
ATOM     25  N4  <0> d           5.729  -2.470  -0.139  0.00  0.00    -0.180 NA
ATOM     26  C17 <0> d           5.127  -1.431  -0.657  0.00  0.00     0.149 A 
BRANCH  24  27
ATOM     27  C19 <0> d           6.252  -4.786  -0.916  0.00  0.00     0.058 A 
ATOM     28  C24 <0> d           6.881  -5.125   0.274  0.00  0.00     0.031 A 
ATOM     29  C23 <0> d           7.411  -6.390   0.438  0.00  0.00     0.002 A 
ATOM     30  C22 <0> d           7.325  -7.315  -0.586  0.00  0.00     0.000 A 
ATOM     31  C21 <0> d           6.703  -6.979  -1.775  0.00  0.00     0.002 A 
ATOM     32  C20 <0> d           6.167  -5.717  -1.943  0.00  0.00     0.031 A 
ENDBRANCH  24  27
ENDBRANCH  21  22
ENDBRANCH   1  21
TORSDOF 6
