REMARK  5 active torsions:
REMARK  status: ('A' for Active; 'I' for Inactive)
REMARK    1  A    between atoms: C2_2  and  C3_3 
REMARK    2  A    between atoms: C2_2  and  N3_9 
REMARK    3  A    between atoms: C3_3  and  N1_4 
REMARK    4  A    between atoms: N3_9  and  C7_10 
REMARK    5  A    between atoms: C10_16  and  O3_17 
ROOT
ATOM      1  N3  <0> d           0.690  -0.478  -1.207  0.00  0.00     0.097 N 
ATOM      2  H12 <0> d           1.485   0.104  -1.422  0.00  0.00     0.317 HD
ENDROOT
BRANCH   1   3
ATOM      3  C2  <0> d           0.002  -0.004   0.002  0.00  0.00     0.236 C 
ATOM      4  C1  <0> d          -0.019   1.526   0.010  0.00  0.00     0.044 C 
BRANCH   3   5
ATOM      5  C3  <0> d           0.742  -0.511   1.242  0.00  0.00     0.185 C 
BRANCH   5   6
ATOM      6  N1  <0> d           0.659  -1.972   1.296  0.00  0.00    -0.279 N 
ATOM      7  N2  <0> d          -0.517  -2.733   1.271  0.00  0.00    -0.185 NA
ATOM      8  C6  <0> d          -0.188  -3.998   1.333  0.00  0.00     0.140 A 
ATOM      9  C5  <0> d           1.206  -4.083   1.410  0.00  0.00     0.040 A 
ATOM     10  C4  <0> d           1.702  -2.824   1.385  0.00  0.00     0.113 A 
ENDBRANCH   5   6
ENDBRANCH   3   5
ENDBRANCH   1   3
BRANCH   1  11
ATOM     11  C7  <0> d          -0.235  -0.547  -2.346  0.00  0.00     0.264 C 
ATOM     12  C10 <0> d           0.265  -1.593  -3.341  0.00  0.00     0.166 C 
ATOM     13  C9  <0> d          -0.139  -1.298  -4.798  0.00  0.00     0.174 C 
ATOM     14  S1  <0> d          -0.963   0.344  -4.682  0.00  0.00     0.149 S 
ATOM     15  C8  <0> d          -0.317   0.848  -3.027  0.00  0.00     0.178 C 
ATOM     16  O1  <0> d          -0.427   1.207  -5.676  0.00  0.00    -0.228 OA
ATOM     17  O2  <0> d          -2.369   0.157  -4.598  0.00  0.00    -0.228 OA
BRANCH  12  18
ATOM     18  O3  <0> d          -0.263  -2.868  -2.970  0.00  0.00    -0.392 OA
ATOM     19  H17 <0> d           0.007  -3.590  -3.553  0.00  0.00     0.210 HD
ENDBRANCH  12  18
ENDBRANCH   1  11
TORSDOF 5
