REMARK  3 active torsions:
REMARK  status: ('A' for Active; 'I' for Inactive)
REMARK    1  A    between atoms: C4_6  and  C6_10 
REMARK    2  A    between atoms: C7_11  and  C8_12 
REMARK       I    between atoms: C8_12  and  N3_14 
REMARK    3  A    between atoms: N3_14  and  C9_15 
ROOT
ATOM      1  C6  <0> d          -2.323  -0.938   0.006  0.00  0.00     0.039 C 
ATOM      2  C7  <0> d          -3.067  -1.570  -0.945  0.00  0.00     0.077 C 
ENDROOT
BRANCH   1   3
ATOM      3  C4  <0> d          -0.918  -1.009  -0.038  0.00  0.00     0.081 A 
ATOM      4  N1  <0> d          -0.089  -0.571  -1.087  0.00  0.00    -0.297 N 
ATOM      5  C1  <0> d          -0.225   0.017  -2.322  0.00  0.00     0.107 A 
ATOM      6  C3  <0> d           1.181  -0.850  -0.666  0.00  0.00     0.179 A 
ATOM      7  C2  <0> d           0.846   0.296  -3.067  0.00  0.00     0.071 A 
ATOM      8  S1  <0> d           2.177  -0.279  -2.024  0.00  0.00    -0.062 SA
ATOM      9  N2  <0> d           1.168  -1.405   0.520  0.00  0.00    -0.209 NA
ATOM     10  C5  <0> d          -0.086  -1.523   0.944  0.00  0.00     0.156 A 
ATOM     11 Cl1  <0> d          -0.593  -2.200   2.459  0.00  0.00    -0.060 Cl
ENDBRANCH   1   3
BRANCH   2  12
ATOM     12  C8  <0> d          -2.439  -2.402  -1.892  0.00  0.00     0.247 C 
ATOM     13  O1  <0> d          -1.249  -2.645  -1.796  0.00  0.00    -0.268 OA
ATOM     14  N3  <0> d          -3.155  -2.930  -2.905  0.00  0.00    -0.301 N 
ATOM     15  H5  <0> d          -4.103  -2.737  -2.981  0.00  0.00     0.171 HD
BRANCH  14  16
ATOM     16  C9  <0> d          -2.536  -3.751  -3.839  0.00  0.00     0.196 A 
ATOM     17  S2  <0> d          -3.216  -4.585  -5.270  0.00  0.00    -0.041 SA
ATOM     18  C10 <0> d          -1.683  -5.350  -5.790  0.00  0.00     0.194 A 
ATOM     19  N5  <0> d          -0.874  -4.904  -4.849  0.00  0.00    -0.153 NA
ATOM     20  N4  <0> d          -1.273  -4.147  -3.923  0.00  0.00    -0.124 NA
ENDBRANCH  14  16
ENDBRANCH   2  12
TORSDOF 3
