REMARK  3 active torsions:
REMARK  status: ('A' for Active; 'I' for Inactive)
REMARK    1  A    between atoms: C2_2  and  C17_25 
REMARK    2  A    between atoms: C6_7  and  C7_9 
REMARK       I    between atoms: C7_9  and  N3_11 
REMARK       I    between atoms: C17_25  and  N5_27 
REMARK    3  A    between atoms: N5_27  and  C18_28 
ROOT
ATOM      1  C1  <0> d           1.342   4.405   4.869  0.00  0.00     0.051 C 
ATOM      2  C2  <0> d           0.802   2.974   4.823  0.00  0.00     0.130 C 
ATOM      3  C3  <0> d           1.917   2.012   5.227  0.00  0.00     0.192 C 
ATOM      4  N1  <0> d           1.348   0.679   5.455  0.00  0.00    -0.261 N 
ATOM      5  C4  <0> d           0.053   0.527   5.908  0.00  0.00     0.123 A 
ATOM      6  C5  <0> d          -0.184  -0.800   6.020  0.00  0.00     0.076 A 
ATOM      7  C6  <0> d           1.018  -1.425   5.617  0.00  0.00     0.147 A 
ATOM      8  N2  <0> d           1.877  -0.471   5.298  0.00  0.00    -0.166 NA
ATOM      9  C15 <0> d          -0.801   1.696   6.178  0.00  0.00     0.272 C 
ATOM     10  O4  <0> d          -1.841   1.601   6.801  0.00  0.00    -0.266 OA
ATOM     11  N4  <0> d          -0.363   2.884   5.695  0.00  0.00    -0.331 N 
ATOM     12  C16 <0> d          -1.078   4.110   6.060  0.00  0.00     0.154 C 
ENDROOT
BRANCH   2  13
ATOM     13  C17 <0> d           0.377   2.660   3.411  0.00  0.00     0.247 C 
ATOM     14  O5  <0> d           1.152   2.120   2.651  0.00  0.00    -0.271 OA
ATOM     15  N5  <0> d          -0.864   2.981   2.994  0.00  0.00    -0.354 N 
ATOM     16  H22 <0> d          -1.483   3.414   3.602  0.00  0.00     0.162 HD
BRANCH  15  17
ATOM     17  C18 <0> d          -1.276   2.676   1.621  0.00  0.00     0.084 C 
ATOM     18  C24 <0> d          -2.402   3.646   1.213  0.00  0.00     0.025 C 
ATOM     19  C23 <0> d          -3.196   3.156  -0.014  0.00  0.00     0.002 C 
ATOM     20  C22 <0> d          -2.308   2.572  -1.079  0.00  0.00     0.000 C 
ATOM     21  C21 <0> d          -2.236   1.045  -0.874  0.00  0.00     0.000 C 
ATOM     22  C20 <0> d          -1.301   0.670   0.175  0.00  0.00     0.002 C 
ATOM     23  C19 <0> d          -1.707   1.235   1.552  0.00  0.00     0.025 C 
ENDBRANCH  15  17
ENDBRANCH   2  13
BRANCH   7  24
ATOM     24  C7  <0> d           1.268  -2.881   5.562  0.00  0.00     0.274 C 
ATOM     25  O1  <0> d           0.358  -3.662   5.756  0.00  0.00    -0.266 OA
ATOM     26  N3  <0> d           2.507  -3.341   5.298  0.00  0.00    -0.346 N 
ATOM     27  C12 <0> d           3.647  -2.418   5.215  0.00  0.00     0.131 C 
ATOM     28  C8  <0> d           2.743  -4.777   5.092  0.00  0.00     0.131 C 
ATOM     29  C11 <0> d           4.745  -2.904   6.167  0.00  0.00     0.088 C 
ATOM     30  C10 <0> d           5.085  -4.360   5.844  0.00  0.00     0.167 C 
ATOM     31  C9  <0> d           3.849  -5.240   6.039  0.00  0.00     0.088 C 
ATOM     32  O3  <0> d           5.529  -4.455   4.480  0.00  0.00    -0.353 OA
ATOM     33  O2  <0> d           6.138  -4.811   6.705  0.00  0.00    -0.353 OA
ATOM     34  C14 <0> d           6.973  -4.395   4.556  0.00  0.00     0.197 C 
ATOM     35  C13 <0> d           7.253  -5.174   5.865  0.00  0.00     0.197 C 
ENDBRANCH   7  24
TORSDOF 3
