REMARK  5 active torsions:
REMARK  status: ('A' for Active; 'I' for Inactive)
REMARK    1  A    between atoms: C8_9  and  O5_26 
REMARK    2  A    between atoms: C18_19  and  C19_20 
REMARK    3  A    between atoms: C18_19  and  O4_24 
REMARK    4  A    between atoms: C19_20  and  C20_22 
REMARK    5  A    between atoms: C20_22  and  O3_23 
ROOT
ATOM      1  C1  <0> d          -0.485   4.405  -2.333  0.00  0.00     0.020 C 
ATOM      2  C2  <0> d          -0.096   3.952  -0.926  0.00  0.00    -0.014 C 
ATOM      3  C3  <0> d           1.128   3.080  -1.095  0.00  0.00     0.022 C 
ATOM      4  C4  <0> d           1.262   2.028   0.001  0.00  0.00     0.084 C 
ATOM      5  C5  <0> d          -0.014   1.208   0.009  0.00  0.00     0.149 C 
ATOM      6  O1  <0> d           0.002  -0.004   0.002  0.00  0.00    -0.293 OA
ATOM      7  C6  <0> d          -1.264   1.977   0.069  0.00  0.00     0.056 C 
ATOM      8  C7  <0> d          -1.287   3.244  -0.327  0.00  0.00    -0.039 C 
ATOM      9  C8  <0> d          -2.558   4.050  -0.121  0.00  0.00     0.148 C 
ATOM     10  C9  <0> d          -2.205   5.282   0.738  0.00  0.00     0.042 C 
ATOM     11  C10 <0> d          -1.096   6.039   0.030  0.00  0.00    -0.002 C 
ATOM     12  C11 <0> d           0.167   5.169  -0.059  0.00  0.00     0.002 C 
ATOM     13  C12 <0> d           1.328   6.054  -0.489  0.00  0.00     0.007 C 
ATOM     14  C13 <0> d           1.745   6.899   0.734  0.00  0.00     0.013 C 
ATOM     15  C14 <0> d           0.523   7.406   1.454  0.00  0.00    -0.002 C 
ATOM     16  C15 <0> d          -0.739   7.386   0.574  0.00  0.00     0.002 C 
ATOM     17  C16 <0> d          -1.770   8.065   1.490  0.00  0.00     0.009 C 
ATOM     18  C17 <0> d          -0.954   9.223   2.123  0.00  0.00     0.047 C 
ATOM     19  C18 <0> d           0.543   8.880   1.899  0.00  0.00     0.128 C 
ATOM     20  C21 <0> d           0.310   6.573   2.731  0.00  0.00     0.019 C 
ENDROOT
BRANCH  19  21
ATOM     21  C19 <0> d           1.118   9.781   0.845  0.00  0.00     0.184 C 
ATOM     22  O2  <0> d           1.057   9.465  -0.319  0.00  0.00    -0.292 OA
BRANCH  21  23
ATOM     23  C20 <0> d           1.772  11.081   1.239  0.00  0.00     0.245 C 
BRANCH  23  24
ATOM     24  O3  <0> d           2.236  11.755   0.068  0.00  0.00    -0.393 OA
ATOM     25  H25 <0> d           2.669  12.601   0.247  0.00  0.00     0.209 HD
ENDBRANCH  23  24
ENDBRANCH  21  23
ENDBRANCH  19  21
BRANCH  19  26
ATOM     26  O4  <0> d           1.266   9.008   3.123  0.00  0.00    -0.381 OA
ATOM     27  H26 <0> d           1.257   9.900   3.494  0.00  0.00     0.211 HD
ENDBRANCH  19  26
BRANCH   9  28
ATOM     28  O5  <0> d          -3.535   3.264   0.564  0.00  0.00    -0.391 OA
ATOM     29  H30 <0> d          -3.789   2.457   0.096  0.00  0.00     0.210 HD
ENDBRANCH   9  28
TORSDOF 5
