REMARK  6 active torsions:
REMARK  status: ('A' for Active; 'I' for Inactive)
REMARK    1  A    between atoms: C2_2  and  C5_5 
REMARK    2  A    between atoms: C6_7  and  C8_10 
REMARK    3  A    between atoms: C8_10  and  S2_11 
REMARK    4  A    between atoms: S2_11  and  C9_14 
REMARK    5  A    between atoms: C9_14  and  C10_15 
REMARK    6  A    between atoms: C10_15  and  C11_16 
REMARK       I    between atoms: C11_16  and  N2_18 
REMARK       I    between atoms: N2_18  and  C12_19 
REMARK       I    between atoms: C12_19  and  N3_21 
ROOT
ATOM      1  S2  <0> d           4.921  -1.797  -2.508  0.00  0.00     0.150 S 
ATOM      2  O1  <0> d           4.933  -1.689  -1.091  0.00  0.00    -0.228 OA
ATOM      3  O2  <0> d           4.560  -3.035  -3.103  0.00  0.00    -0.228 OA
ENDROOT
BRANCH   1   4
ATOM      4  C8  <0> d           3.838  -0.503  -3.173  0.00  0.00     0.199 C 
BRANCH   4   5
ATOM      5  C6  <0> d           2.419  -0.762  -2.736  0.00  0.00     0.056 A 
ATOM      6  N1  <0> d           1.941  -0.263  -1.614  0.00  0.00    -0.248 NA
ATOM      7  C5  <0> d           0.707  -0.490  -1.238  0.00  0.00     0.083 A 
ATOM      8  S1  <0> d           0.103  -1.462  -2.472  0.00  0.00    -0.084 SA
ATOM      9  C7  <0> d           1.574  -1.520  -3.482  0.00  0.00     0.079 A 
BRANCH   7  10
ATOM     10  C2  <0> d           0.002  -0.004   0.002  0.00  0.00     0.000 C 
ATOM     11  C1  <0> d          -0.019   1.526   0.010  0.00  0.00     0.021 C 
ATOM     12  C3  <0> d           0.742  -0.511   1.242  0.00  0.00     0.021 C 
ATOM     13  C4  <0> d          -1.433  -0.534   0.013  0.00  0.00     0.021 C 
ENDBRANCH   7  10
ENDBRANCH   4   5
ENDBRANCH   1   4
BRANCH   1  14
ATOM     14  C9  <0> d           6.554  -1.314  -3.134  0.00  0.00     0.150 C 
BRANCH  14  15
ATOM     15  C10 <0> d           7.602  -2.320  -2.655  0.00  0.00     0.118 C 
BRANCH  15  16
ATOM     16  C11 <0> d           8.958  -1.919  -3.175  0.00  0.00     0.226 C 
ATOM     17  O3  <0> d           9.075  -0.926  -3.861  0.00  0.00    -0.273 OA
ATOM     18  N2  <0> d          10.041  -2.663  -2.877  0.00  0.00    -0.279 N 
ATOM     19  C12 <0> d          11.255  -2.304  -3.342  0.00  0.00     0.322 C 
ATOM     20  H17 <0> d           9.948  -3.458  -2.328  0.00  0.00     0.173 HD
ATOM     21  O4  <0> d          11.371  -1.309  -4.030  0.00  0.00    -0.247 OA
ATOM     22  N3  <0> d          12.338  -3.049  -3.045  0.00  0.00    -0.347 N 
ATOM     23  C13 <0> d          13.656  -2.659  -3.550  0.00  0.00     0.151 C 
ATOM     24  H18 <0> d          12.244  -3.844  -2.496  0.00  0.00     0.163 HD
ENDBRANCH  15  16
ENDBRANCH  14  15
ENDBRANCH   1  14
TORSDOF 6
