REMARK  5 active torsions:
REMARK  status: ('A' for Active; 'I' for Inactive)
REMARK    1  A    between atoms: C3_3  and  O4_25 
REMARK    2  A    between atoms: C5_5  and  C9_10 
REMARK    3  A    between atoms: C7_7  and  O1_8 
REMARK       I    between atoms: C9_10  and  N1_12 
REMARK    4  A    between atoms: N1_12  and  C10_13 
REMARK    5  A    between atoms: C12_15  and  C15_21 
ROOT
ATOM      1  C9  <0> d           0.232  -4.269  -0.017  0.00  0.00     0.256 C 
ATOM      2  O2  <0> d           0.389  -4.881  -1.056  0.00  0.00    -0.267 OA
ATOM      3  N1  <0> d           0.074  -4.939   1.142  0.00  0.00    -0.318 N 
ATOM      4  H10 <0> d           0.021  -4.452   1.980  0.00  0.00     0.169 HD
ENDROOT
BRANCH   3   5
ATOM      5  C10 <0> d          -0.013  -6.336   1.137  0.00  0.00     0.104 A 
ATOM      6  C14 <0> d          -1.029  -6.987   0.403  0.00  0.00     0.272 A 
ATOM      7  N2  <0> d          -1.101  -8.331   0.401  0.00  0.00    -0.331 N 
ATOM      8  O3  <0> d          -1.839  -6.330  -0.233  0.00  0.00    -0.266 OA
ATOM      9  C13 <0> d          -0.211  -9.076   1.109  0.00  0.00     0.107 A 
ATOM     10  H1  <0> d          -1.798  -8.773  -0.108  0.00  0.00     0.168 HD
ATOM     11  C12 <0> d           0.771  -8.486   1.827  0.00  0.00     0.065 A 
ATOM     12  C11 <0> d           0.882  -7.089   1.848  0.00  0.00     0.052 A 
BRANCH  11  13
ATOM     13  C15 <0> d           1.748  -9.331   2.603  0.00  0.00     0.418 C 
ATOM     14  F1  <0> d           1.438 -10.683   2.428  0.00  0.00    -0.166 F 
ATOM     15  F2  <0> d           3.046  -9.087   2.141  0.00  0.00    -0.166 F 
ATOM     16  F3  <0> d           1.668  -9.006   3.962  0.00  0.00    -0.166 F 
ENDBRANCH  11  13
ENDBRANCH   3   5
BRANCH   1  17
ATOM     17  C5  <0> d           0.214  -2.791  -0.025  0.00  0.00     0.037 A 
ATOM     18  C4  <0> d           0.378  -2.096  -1.224  0.00  0.00     0.054 A 
ATOM     19  C3  <0> d           0.360  -0.711  -1.227  0.00  0.00     0.077 A 
ATOM     20  C2  <0> d           0.180  -0.015  -0.041  0.00  0.00     0.005 A 
ATOM     21  C1  <0> d           0.161   1.492  -0.049  0.00  0.00     0.054 C 
ATOM     22  C7  <0> d           0.023  -0.702   1.154  0.00  0.00     0.077 A 
ATOM     23  C6  <0> d           0.034  -2.087   1.166  0.00  0.00     0.054 A 
BRANCH  19  24
ATOM     24  O4  <0> d           0.518  -0.033  -2.395  0.00  0.00    -0.355 OA
ATOM     25  C16 <0> d           0.699  -0.813  -3.578  0.00  0.00     0.210 C 
ENDBRANCH  19  24
BRANCH  22  26
ATOM     26  O1  <0> d          -0.147  -0.015   2.314  0.00  0.00    -0.355 OA
ATOM     27  C8  <0> d          -0.303  -0.785   3.508  0.00  0.00     0.210 C 
ENDBRANCH  22  26
ENDBRANCH   1  17
TORSDOF 5
