REMARK  4 active torsions:
REMARK  status: ('A' for Active; 'I' for Inactive)
REMARK    1  A    between atoms: C2_2  and  N1_3 
REMARK    2  A    between atoms: C4_5  and  C17_21 
REMARK    3  A    between atoms: C9_11  and  N2_15 
REMARK       I    between atoms: C17_21  and  N3_23 
REMARK    4  A    between atoms: N3_23  and  C18_24 
ROOT
ATOM      1  N1  <0> d           1.356   2.033   0.000  0.00  0.00    -0.355 N 
ATOM      2  C3  <0> d           1.935   2.345   1.169  0.00  0.00     0.112 A 
ATOM      3  C4  <0> d           3.222   2.828   1.245  0.00  0.00     0.100 A 
ATOM      4  C5  <0> d           3.990   3.006   0.003  0.00  0.00     0.201 A 
ATOM      5  O1  <0> d           5.133   3.430   0.019  0.00  0.00    -0.286 OA
ATOM      6  C6  <0> d           3.321   2.652  -1.260  0.00  0.00     0.045 A 
ATOM      7  C7  <0> d           2.003   2.164  -1.210  0.00  0.00     0.050 A 
ATOM      8  C8  <0> d           1.357   1.831  -2.395  0.00  0.00     0.057 A 
ATOM      9  C9  <0> d           2.020   1.974  -3.604  0.00  0.00     0.051 A 
ATOM     10  C10 <0> d           3.331   2.455  -3.642  0.00  0.00     0.138 A 
ATOM     11  C11 <0> d           3.976   2.791  -2.486  0.00  0.00     0.062 A 
ATOM     12  F1  <0> d           3.963   2.588  -4.829  0.00  0.00    -0.204 F 
ENDROOT
BRANCH   3  13
ATOM     13  C17 <0> d           3.822   3.160   2.551  0.00  0.00     0.284 C 
ATOM     14  O2  <0> d           4.963   3.587   2.607  0.00  0.00    -0.265 OA
ATOM     15  N3  <0> d           3.115   2.995   3.673  0.00  0.00    -0.183 NA
BRANCH  15  16
ATOM     16  C18 <0> d           3.656   3.295   4.852  0.00  0.00     0.192 A 
ATOM     17  S1  <0> d           2.958   3.180   6.436  0.00  0.00    -0.034 SA
ATOM     18  C19 <0> d           4.356   3.770   7.375  0.00  0.00     0.094 A 
ATOM     19  N5  <0> d           5.230   4.013   6.441  0.00  0.00    -0.170 NA
ATOM     20  C20 <0> d           4.490   3.946   8.866  0.00  0.00     0.081 C 
ATOM     21  N4  <0> d           4.895   3.776   5.126  0.00  0.00    -0.254 N 
ATOM     22  H1  <0> d           5.530   3.950   4.413  0.00  0.00     0.191 HD
ENDBRANCH  15  16
ENDBRANCH   3  13
BRANCH   1  23
ATOM     23  C2  <0> d          -0.019   1.526   0.010  0.00  0.00     0.124 C 
ATOM     24  C1  <0> d           0.002  -0.004   0.002  0.00  0.00     0.027 C 
ENDBRANCH   1  23
BRANCH   9  25
ATOM     25  N2  <0> d           1.373   1.635  -4.790  0.00  0.00    -0.278 NA
ATOM     26  C15 <0> d           0.980   0.219  -4.790  0.00  0.00     0.123 C 
ATOM     27  C14 <0> d           0.346  -0.132  -6.138  0.00  0.00     0.249 C 
ATOM     28  N6  <0> d          -0.836   0.732  -6.348  0.00  0.00    -0.073 N 
ATOM     29  C13 <0> d          -0.425   2.151  -6.370  0.00  0.00     0.249 C 
ATOM     30  C16 <0> d          -1.500   0.378  -7.621  0.00  0.00     0.269 C 
ATOM     31  H24 <0> d          -1.496   0.587  -5.575  0.00  0.00     0.279 HD
ATOM     32  C12 <0> d           0.209   2.502  -5.021  0.00  0.00     0.123 C 
ENDBRANCH   9  25
TORSDOF 4
