REMARK  8 active torsions:
REMARK  status: ('A' for Active; 'I' for Inactive)
REMARK    1  A    between atoms: C5_5  and  C6_7 
REMARK    2  A    between atoms: C6_7  and  N1_8 
REMARK    3  A    between atoms: N1_8  and  C7_9 
REMARK       I    between atoms: N1_8  and  C21_26 
REMARK    4  A    between atoms: C7_9  and  C8_10 
REMARK    5  A    between atoms: C7_9  and  C16_19 
REMARK    6  A    between atoms: C11_13  and  N2_16 
REMARK       I    between atoms: C16_19  and  N3_21 
REMARK    7  A    between atoms: N3_21  and  C17_22 
REMARK    8  A    between atoms: C21_26  and  C22_28 
ROOT
ATOM      1  C7  <0> d           3.128  -3.027  -2.076  0.00  0.00     0.213 C 
ENDROOT
BRANCH   1   2
ATOM      2  N1  <0> d           1.960  -3.499  -1.329  0.00  0.00    -0.327 N 
ATOM      3  C21 <0> d           1.136  -4.415  -1.876  0.00  0.00     0.244 C 
ATOM      4  O3  <0> d           1.403  -4.904  -2.953  0.00  0.00    -0.271 OA
BRANCH   2   5
ATOM      5  C6  <0> d           1.687  -2.977   0.012  0.00  0.00     0.192 C 
BRANCH   5   6
ATOM      6  C5  <0> d           0.811  -1.756  -0.093  0.00  0.00     0.071 A 
ATOM      7  C4  <0> d          -0.534  -1.749  -0.083  0.00  0.00     0.037 A 
ATOM      8  C3  <0> d          -0.939  -0.400  -0.203  0.00  0.00     0.035 A 
ATOM      9  C2  <0> d           0.184   0.338  -0.279  0.00  0.00     0.049 A 
ATOM     10  C1  <0> d           0.245   1.837  -0.417  0.00  0.00     0.076 C 
ATOM     11  O1  <0> d           1.240  -0.489  -0.218  0.00  0.00    -0.318 OA
ENDBRANCH   5   6
ENDBRANCH   2   5
BRANCH   3  12
ATOM     12  C22 <0> d          -0.117  -4.831  -1.150  0.00  0.00     0.177 C 
ATOM     13  N4  <0> d          -1.045  -5.492  -2.075  0.00  0.00    -0.348 N 
ATOM     14  C25 <0> d          -1.011  -6.829  -1.925  0.00  0.00     0.218 C 
ATOM     15  H34 <0> d          -1.609  -5.025  -2.711  0.00  0.00     0.163 HD
ATOM     16  C24 <0> d          -0.029  -7.207  -0.838  0.00  0.00     0.105 C 
ATOM     17  O4  <0> d          -1.673  -7.617  -2.567  0.00  0.00    -0.274 OA
ATOM     18  C23 <0> d           0.215  -5.886  -0.071  0.00  0.00     0.044 C 
ENDBRANCH   3  12
ENDBRANCH   1   2
BRANCH   1  19
ATOM     19  C8  <0> d           2.678  -2.407  -3.374  0.00  0.00    -0.026 A 
ATOM     20  C13 <0> d           2.375  -1.059  -3.426  0.00  0.00     0.012 A 
ATOM     21  C12 <0> d           1.967  -0.487  -4.615  0.00  0.00     0.030 A 
ATOM     22  C11 <0> d           1.852  -1.270  -5.757  0.00  0.00     0.029 A 
ATOM     23  C10 <0> d           2.152  -2.625  -5.699  0.00  0.00     0.030 A 
ATOM     24  C9  <0> d           2.564  -3.189  -4.508  0.00  0.00     0.012 A 
BRANCH  22  25
ATOM     25  N2  <0> d           1.435  -0.696  -6.960  0.00  0.00    -0.390 N 
ATOM     26  C14 <0> d           1.432  -1.492  -8.190  0.00  0.00     0.149 C 
ATOM     27  C15 <0> d           1.001   0.703  -6.992  0.00  0.00     0.149 C 
ENDBRANCH  22  25
ENDBRANCH   1  19
BRANCH   1  28
ATOM     28  C16 <0> d           4.044  -4.188  -2.364  0.00  0.00     0.245 C 
ATOM     29  O2  <0> d           3.749  -5.302  -1.984  0.00  0.00    -0.271 OA
ATOM     30  N3  <0> d           5.190  -3.990  -3.045  0.00  0.00    -0.351 N 
ATOM     31  H20 <0> d           5.426  -3.100  -3.349  0.00  0.00     0.163 HD
BRANCH  30  32
ATOM     32  C17 <0> d           6.080  -5.120  -3.326  0.00  0.00     0.022 C 
ATOM     33  C18 <0> d           5.332  -6.164  -4.157  0.00  0.00     0.037 C 
ATOM     34  C19 <0> d           7.300  -4.626  -4.105  0.00  0.00     0.037 C 
ATOM     35  C20 <0> d           6.537  -5.748  -2.008  0.00  0.00     0.037 C 
ENDBRANCH  30  32
ENDBRANCH   1  28
TORSDOF 8
