REMARK  4 active torsions:
REMARK  status: ('A' for Active; 'I' for Inactive)
REMARK    1  A    between atoms: C3_3  and  C13_18 
REMARK    2  A    between atoms: C5_5  and  N1_7 
REMARK       I    between atoms: N1_7  and  C7_8 
REMARK    3  A    between atoms: C7_8  and  C8_10 
REMARK    4  A    between atoms: C8_10  and  C9_11 
ROOT
ATOM      1  C1  <0> d          -2.859   2.479   4.725  0.00  0.00     0.003 A 
ATOM      2  C2  <0> d          -2.340   2.132   5.956  0.00  0.00     0.015 A 
ATOM      3  C3  <0> d          -1.055   1.594   6.044  0.00  0.00     0.014 A 
ATOM      4  C4  <0> d          -0.301   1.409   4.886  0.00  0.00     0.044 A 
ATOM      5  C5  <0> d          -0.831   1.761   3.655  0.00  0.00     0.035 A 
ATOM      6  C6  <0> d          -2.109   2.302   3.578  0.00  0.00     0.029 A 
ENDROOT
BRANCH   5   7
ATOM      7  N1  <0> d          -0.078   1.578   2.490  0.00  0.00    -0.327 N 
ATOM      8  C7  <0> d           1.269   1.587   2.550  0.00  0.00     0.222 C 
ATOM      9  O1  <0> d           1.828   1.848   3.594  0.00  0.00    -0.273 OA
ATOM     10  H6  <0> d          -0.524   1.444   1.639  0.00  0.00     0.169 HD
BRANCH   8  11
ATOM     11  C8  <0> d           2.080   1.273   1.319  0.00  0.00     0.108 C 
BRANCH  11  12
ATOM     12  C9  <0> d           3.570   1.352   1.657  0.00  0.00     0.009 C 
ATOM     13  C12 <0> d           4.412   0.906   0.427  0.00  0.00     0.145 C 
ATOM     14  S1  <0> d           6.043   1.652   0.847  0.00  0.00     0.144 S 
ATOM     15  C11 <0> d           5.490   2.953   2.023  0.00  0.00     0.140 C 
ATOM     16  O2  <0> d           6.823   0.694   1.549  0.00  0.00    -0.228 OA
ATOM     17  O3  <0> d           6.579   2.275  -0.313  0.00  0.00    -0.228 OA
ATOM     18  C10 <0> d           3.950   2.803   1.996  0.00  0.00     0.021 C 
ENDBRANCH  11  12
ENDBRANCH   8  11
ENDBRANCH   5   7
BRANCH   3  19
ATOM     19  C13 <0> d          -0.496   1.221   7.362  0.00  0.00     0.164 A 
ATOM     20  N4  <0> d           0.550   0.376   7.592  0.00  0.00    -0.316 N 
ATOM     21  C14 <0> d           0.702   0.323   8.942  0.00  0.00     0.130 A 
ATOM     22  C15 <0> d           1.370  -0.314   6.596  0.00  0.00     0.132 C 
ATOM     23  N3  <0> d          -0.201   1.103   9.467  0.00  0.00    -0.134 NA
ATOM     24  C19 <0> d           1.727  -0.504   9.673  0.00  0.00     0.081 C 
ATOM     25  N2  <0> d          -0.915   1.636   8.538  0.00  0.00    -0.129 NA
ATOM     26  C18 <0> d           3.095  -0.304   9.012  0.00  0.00     0.008 C 
ATOM     27  C17 <0> d           3.270  -1.313   7.881  0.00  0.00     0.002 C 
ATOM     28  C16 <0> d           1.930  -1.602   7.207  0.00  0.00     0.020 C 
ENDBRANCH   3  19
TORSDOF 4
