REMARK  3 active torsions:
REMARK  status: ('A' for Active; 'I' for Inactive)
REMARK    1  A    between atoms: C4_4  and  N1_7 
REMARK    2  A    between atoms: C10_12  and  C13_17 
REMARK    3  A    between atoms: C13_17  and  N4_18 
ROOT
ATOM      1  N1  <0> d           3.623  -0.652  -0.037  0.00  0.00    -0.217 N 
ATOM      2  C7  <0> d           3.889  -1.825   0.573  0.00  0.00     0.140 A 
ATOM      3  C8  <0> d           5.195  -2.144   0.307  0.00  0.00     0.013 A 
ATOM      4  C9  <0> d           5.729  -1.136  -0.482  0.00  0.00     0.150 A 
ATOM      5  N2  <0> d           4.793  -0.241  -0.698  0.00  0.00    -0.177 NA
ATOM      6  C10 <0> d           5.837  -3.402   0.831  0.00  0.00     0.051 C 
ATOM      7  C11 <0> d           4.749  -4.468   0.993  0.00  0.00     0.114 C 
ATOM      8  C12 <0> d           3.511  -3.897   1.621  0.00  0.00     0.224 C 
ATOM      9  O1  <0> d           2.877  -4.584   2.395  0.00  0.00    -0.273 OA
ATOM     10  N3  <0> d           3.077  -2.646   1.355  0.00  0.00    -0.311 N 
ATOM     11  H10 <0> d           2.227  -2.329   1.696  0.00  0.00     0.170 HD
ENDROOT
BRANCH   6  12
ATOM     12  C13 <0> d           6.491  -3.122   2.186  0.00  0.00     0.144 C 
BRANCH  12  13
ATOM     13  N4  <0> d           7.215  -4.314   2.635  0.00  0.00    -0.290 N 
ATOM     14  C20 <0> d           8.503  -4.609   2.374  0.00  0.00     0.372 A 
ATOM     15  O2  <0> d           8.820  -5.779   2.951  0.00  0.00    -0.259 OA
ATOM     16  O3  <0> d           9.263  -3.921   1.720  0.00  0.00    -0.237 OA
ATOM     17  C19 <0> d           7.730  -6.269   3.592  0.00  0.00     0.107 A 
ATOM     18  C14 <0> d           6.694  -5.354   3.405  0.00  0.00     0.073 A 
ATOM     19  C18 <0> d           7.505  -7.420   4.330  0.00  0.00     0.040 A 
ATOM     20  C15 <0> d           5.446  -5.597   3.957  0.00  0.00     0.033 A 
ATOM     21  C16 <0> d           5.231  -6.747   4.691  0.00  0.00     0.002 A 
ATOM     22  C17 <0> d           6.259  -7.656   4.877  0.00  0.00     0.003 A 
ENDBRANCH  12  13
ENDBRANCH   6  12
BRANCH   1  23
ATOM     23  C4  <0> d           2.399   0.031  -0.021  0.00  0.00     0.060 A 
ATOM     24  C3  <0> d           2.377   1.419  -0.013  0.00  0.00     0.031 A 
ATOM     25  C2  <0> d           1.170   2.089   0.002  0.00  0.00     0.002 A 
ATOM     26  C1  <0> d          -0.017   1.379   0.010  0.00  0.00     0.000 A 
ATOM     27  C6  <0> d           0.002  -0.004   0.002  0.00  0.00     0.002 A 
ATOM     28  C5  <0> d           1.207  -0.680  -0.013  0.00  0.00     0.031 A 
ENDBRANCH   1  23
TORSDOF 3
