REMARK  5 active torsions:
REMARK  status: ('A' for Active; 'I' for Inactive)
REMARK    1  A    between atoms: O1_2  and  C2_3 
REMARK    2  A    between atoms: C4_5  and  C8_11 
REMARK    3  A    between atoms: C7_8  and  O2_9 
REMARK    4  A    between atoms: N1_12  and  N2_13 
REMARK       I    between atoms: N2_13  and  C9_14 
REMARK    5  A    between atoms: C9_14  and  C10_16 
ROOT
ATOM      1  C8  <0> d           2.324   1.052   0.084  0.00  0.00     0.150 C 
ATOM      2  N1  <0> d           1.192   1.682   0.171  0.00  0.00    -0.183 NA
ENDROOT
BRANCH   1   3
ATOM      3  C4  <0> d           2.349  -0.422   0.076  0.00  0.00    -0.013 A 
ATOM      4  C3  <0> d           3.554  -1.103   0.265  0.00  0.00     0.052 A 
ATOM      5  C2  <0> d           3.571  -2.485   0.261  0.00  0.00     0.103 A 
ATOM      6  C7  <0> d           2.391  -3.196   0.059  0.00  0.00     0.115 A 
ATOM      7  C6  <0> d           1.194  -2.520  -0.134  0.00  0.00     0.043 A 
ATOM      8  C5  <0> d           1.168  -1.141  -0.127  0.00  0.00     0.034 A 
ATOM      9  I1  <0> d          -0.578  -3.597  -0.437  0.00  0.00    -0.042 I 
BRANCH   5  10
ATOM     10  O1  <0> d           4.742  -3.151   0.450  0.00  0.00    -0.353 OA
ATOM     11  C1  <0> d           5.914  -2.359   0.652  0.00  0.00     0.210 C 
ENDBRANCH   5  10
BRANCH   6  12
ATOM     12  O2  <0> d           2.410  -4.555   0.051  0.00  0.00    -0.357 OA
ATOM     13  H6  <0> d           2.561  -4.941  -0.823  0.00  0.00     0.218 HD
ENDBRANCH   6  12
ENDBRANCH   1   3
BRANCH   2  14
ATOM     14  N2  <0> d           0.068   1.032   0.698  0.00  0.00    -0.243 N 
ATOM     15  C9  <0> d          -1.134   1.641   0.676  0.00  0.00     0.271 C 
ATOM     16  O3  <0> d          -1.242   2.756   0.203  0.00  0.00    -0.266 OA
ATOM     17  H8  <0> d           0.155   0.143   1.075  0.00  0.00     0.192 HD
BRANCH  15  18
ATOM     18  C10 <0> d          -2.320   0.954   1.226  0.00  0.00     0.033 A 
ATOM     19  C15 <0> d          -3.567   1.582   1.205  0.00  0.00     0.019 A 
ATOM     20  C14 <0> d          -4.671   0.935   1.719  0.00  0.00     0.025 A 
ATOM     21  C13 <0> d          -4.545  -0.335   2.256  0.00  0.00     0.034 A 
ATOM     22  C12 <0> d          -3.310  -0.964   2.280  0.00  0.00     0.025 A 
ATOM     23 Cl1  <0> d          -5.939  -1.143   2.902  0.00  0.00    -0.084 Cl
ATOM     24  C11 <0> d          -2.200  -0.329   1.764  0.00  0.00     0.019 A 
ENDBRANCH  15  18
ENDBRANCH   2  14
TORSDOF 5
