REMARK  7 active torsions:
REMARK  status: ('A' for Active; 'I' for Inactive)
REMARK    1  A    between atoms: C5_6  and  C6_7 
REMARK    2  A    between atoms: C6_7  and  C7_8 
REMARK    3  A    between atoms: C6_7  and  N4_30 
REMARK    4  A    between atoms: C7_8  and  N2_9 
REMARK       I    between atoms: N2_9  and  C8_10 
REMARK    5  A    between atoms: C8_10  and  C9_12 
REMARK       I    between atoms: C9_12  and  N3_14 
REMARK    6  A    between atoms: N3_14  and  C10_15 
REMARK    7  A    between atoms: C15_20  and  O3_21 
ROOT
ATOM      1  N2  <0> d           0.447   1.517  -1.261  0.00  0.00    -0.351 N 
ATOM      2  C8  <0> d          -0.755   2.126  -1.238  0.00  0.00     0.309 C 
ATOM      3  O1  <0> d          -1.768   1.466  -1.123  0.00  0.00    -0.262 OA
ATOM      4  H10 <0> d           1.255   2.044  -1.357  0.00  0.00     0.162 HD
ENDROOT
BRANCH   1   5
ATOM      5  C7  <0> d           0.532   0.059  -1.147  0.00  0.00     0.162 C 
BRANCH   5   6
ATOM      6  C6  <0> d           1.986  -0.383  -1.323  0.00  0.00     0.255 C 
BRANCH   6   7
ATOM      7  C5  <0> d           2.055  -1.888  -1.340  0.00  0.00     0.043 A 
ATOM      8  N1  <0> d           1.627  -2.719  -0.347  0.00  0.00    -0.363 N 
ATOM      9  C1  <0> d           1.022  -2.296   0.918  0.00  0.00     0.155 C 
ATOM     10  C2  <0> d           1.856  -4.008  -0.727  0.00  0.00     0.090 A 
ATOM     11  C3  <0> d           2.425  -3.994  -1.949  0.00  0.00     0.019 A 
ATOM     12  C4  <0> d           2.546  -2.646  -2.341  0.00  0.00     0.029 A 
ENDBRANCH   6   7
BRANCH   6  13
ATOM     13  N4  <0> d           2.506   0.173  -2.591  0.00  0.00    -0.056 N 
ATOM     14  C17 <0> d           1.714  -0.338  -3.729  0.00  0.00     0.262 C 
ATOM     15  C18 <0> d           2.254   0.282  -5.021  0.00  0.00     0.195 C 
ATOM     16  O4  <0> d           3.642  -0.037  -5.153  0.00  0.00    -0.388 OA
ATOM     17  C19 <0> d           4.445   0.420  -4.061  0.00  0.00     0.195 C 
ATOM     18  C20 <0> d           3.927  -0.199  -2.760  0.00  0.00     0.262 C 
ATOM     19  H27 <0> d           2.429   1.196  -2.563  0.00  0.00     0.281 HD
ENDBRANCH   6  13
ENDBRANCH   5   6
ENDBRANCH   1   5
BRANCH   2  20
ATOM     20  C9  <0> d          -0.842   3.612  -1.355  0.00  0.00     0.314 C 
ATOM     21  O2  <0> d           0.170   4.272  -1.470  0.00  0.00    -0.262 OA
ATOM     22  N3  <0> d          -2.044   4.221  -1.332  0.00  0.00    -0.317 N 
ATOM     23  H11 <0> d          -2.847   3.703  -1.164  0.00  0.00     0.169 HD
BRANCH  22  24
ATOM     24  C10 <0> d          -2.134   5.599  -1.550  0.00  0.00     0.068 A 
ATOM     25  C15 <0> d          -3.262   6.301  -1.128  0.00  0.00     0.095 A 
ATOM     26  C14 <0> d          -3.345   7.667  -1.347  0.00  0.00     0.039 A 
ATOM     27  C13 <0> d          -2.311   8.330  -1.981  0.00  0.00     0.003 A 
ATOM     28  C12 <0> d          -1.192   7.634  -2.400  0.00  0.00     0.002 A 
ATOM     29  C11 <0> d          -1.098   6.273  -2.181  0.00  0.00     0.032 A 
BRANCH  25  30
ATOM     30  O3  <0> d          -4.278   5.648  -0.504  0.00  0.00    -0.354 OA
ATOM     31  C16 <0> d          -5.402   6.432  -0.100  0.00  0.00     0.210 C 
ENDBRANCH  25  30
ENDBRANCH  22  24
ENDBRANCH   2  20
TORSDOF 7
