REMARK  3 active torsions:
REMARK  status: ('A' for Active; 'I' for Inactive)
REMARK    1  A    between atoms: C6_7  and  C9_10 
REMARK    2  A    between atoms: C13_14  and  S1_21 
REMARK    3  A    between atoms: S1_21  and  N3_24 
ROOT
ATOM      1  C9  <0> d           0.660  -3.133  -0.021  0.00  0.00     0.027 C 
ATOM      2  C10 <0> d           1.140  -4.426  -0.137  0.00  0.00     0.045 A 
ATOM      3  C11 <0> d           0.354  -5.668  -0.261  0.00  0.00     0.008 A 
ATOM      4  C12 <0> d          -1.014  -5.932  -0.299  0.00  0.00     0.040 A 
ATOM      5  C13 <0> d          -1.457  -7.233  -0.424  0.00  0.00     0.080 A 
ATOM      6  C14 <0> d          -0.544  -8.271  -0.512  0.00  0.00     0.027 A 
ATOM      7  C15 <0> d           0.814  -8.022  -0.476  0.00  0.00     0.032 A 
ATOM      8  C16 <0> d           1.281  -6.719  -0.350  0.00  0.00     0.046 A 
ATOM      9  N2  <0> d           2.569  -6.200  -0.289  0.00  0.00    -0.322 N 
ATOM     10  C17 <0> d           2.553  -4.862  -0.171  0.00  0.00     0.257 A 
ATOM     11  O1  <0> d           3.528  -4.137  -0.100  0.00  0.00    -0.267 OA
ATOM     12  H11 <0> d           3.377  -6.736  -0.331  0.00  0.00     0.169 HD
ENDROOT
BRANCH   1  13
ATOM     13  C6  <0> d           1.539  -2.049  -0.122  0.00  0.00    -0.027 A 
ATOM     14  C5  <0> d           3.048  -2.100  -0.221  0.00  0.00     0.159 A 
ATOM     15  N1  <0> d           3.496  -0.707  -0.305  0.00  0.00    -0.385 N 
ATOM     16  C4  <0> d           2.456   0.087  -0.266  0.00  0.00     0.039 A 
ATOM     17  H14 <0> d           4.419  -0.418  -0.378  0.00  0.00     0.160 HD
ATOM     18  C3  <0> d           2.338   1.550  -0.314  0.00  0.00     0.030 A 
ATOM     19  C7  <0> d           1.208  -0.698  -0.151  0.00  0.00    -0.002 A 
ATOM     20  C2  <0> d           1.110   2.114  -0.253  0.00  0.00     0.002 A 
ATOM     21  C1  <0> d          -0.053   1.343  -0.146  0.00  0.00     0.001 A 
ATOM     22  C8  <0> d          -0.024  -0.010  -0.096  0.00  0.00     0.014 A 
ENDBRANCH   1  13
BRANCH   5  23
ATOM     23  S1  <0> d          -3.185  -7.574  -0.472  0.00  0.00     0.256 S 
ATOM     24  O2  <0> d          -3.345  -8.920  -0.046  0.00  0.00    -0.201 OA
ATOM     25  O3  <0> d          -3.831  -6.487   0.177  0.00  0.00    -0.201 OA
BRANCH  23  26
ATOM     26  N3  <0> d          -3.650  -7.521  -2.060  0.00  0.00    -0.324 N 
ATOM     27  H12 <0> d          -2.997  -7.328  -2.751  0.00  0.00     0.169 HD
ATOM     28  H13 <0> d          -4.576  -7.684  -2.300  0.00  0.00     0.169 HD
ENDBRANCH  23  26
ENDBRANCH   5  23
TORSDOF 3
