REMARK  6 active torsions:
REMARK  status: ('A' for Active; 'I' for Inactive)
REMARK    1  A    between atoms: C2_2  and  C3_3 
REMARK    2  A    between atoms: C3_3  and  C5_5 
REMARK    3  A    between atoms: C5_5  and  N1_6 
REMARK       I    between atoms: N1_6  and  C6_7 
REMARK    4  A    between atoms: C6_7  and  C7_9 
REMARK       I    between atoms: N3_16  and  C14_19 
REMARK    5  A    between atoms: C14_19  and  C15_21 
REMARK    6  A    between atoms: C18_24  and  N4_28 
ROOT
ATOM      1  C7  <0> d           1.897  -4.525  -3.251  0.00  0.00     0.288 C 
ATOM      2  C8  <0> d           3.213  -3.724  -3.021  0.00  0.00     0.119 C 
ATOM      3  S1  <0> d           4.332  -4.720  -4.107  0.00  0.00    -0.128 SA
ATOM      4  C9  <0> d           3.480  -6.334  -3.893  0.00  0.00     0.177 C 
ATOM      5  N2  <0> d           2.172  -5.964  -3.331  0.00  0.00    -0.043 N 
ATOM      6  C10 <0> d           3.326  -7.013  -5.247  0.00  0.00     0.070 C 
ATOM      7  C11 <0> d           2.599  -8.350  -5.069  0.00  0.00     0.129 C 
ATOM      8  N3  <0> d           3.305  -9.139  -4.050  0.00  0.00    -0.348 N 
ATOM      9  C12 <0> d           3.545  -8.540  -2.730  0.00  0.00     0.129 C 
ATOM     10  C13 <0> d           4.268  -7.202  -2.922  0.00  0.00     0.070 C 
ATOM     11  C14 <0> d           3.726 -10.390  -4.322  0.00  0.00     0.255 C 
ATOM     12  O2  <0> d           3.457 -10.904  -5.391  0.00  0.00    -0.267 OA
ATOM     13  H16 <0> d           2.107  -6.350  -2.401  0.00  0.00     0.280 HD
ATOM     14  H28 <0> d           1.455  -6.390  -3.898  0.00  0.00     0.280 HD
ENDROOT
BRANCH   1  15
ATOM     15  C6  <0> d           0.952  -4.264  -2.107  0.00  0.00     0.249 C 
ATOM     16  N1  <0> d           0.532  -3.009  -1.853  0.00  0.00    -0.359 N 
ATOM     17  H13 <0> d           0.838  -2.274  -2.406  0.00  0.00     0.162 HD
ATOM     18  O1  <0> d           0.569  -5.184  -1.415  0.00  0.00    -0.271 OA
BRANCH  16  19
ATOM     19  C5  <0> d          -0.388  -2.756  -0.740  0.00  0.00     0.126 C 
BRANCH  19  20
ATOM     20  C3  <0> d          -0.704  -1.260  -0.671  0.00  0.00    -0.001 C 
ATOM     21  C4  <0> d          -1.467  -0.842  -1.930  0.00  0.00     0.011 C 
BRANCH  20  22
ATOM     22  C2  <0> d          -1.563  -0.978   0.563  0.00  0.00     0.001 C 
ATOM     23  C1  <0> d          -1.776   0.531   0.701  0.00  0.00     0.005 C 
ENDBRANCH  20  22
ENDBRANCH  19  20
ENDBRANCH  16  19
ENDBRANCH   1  15
BRANCH  11  24
ATOM     24  C15 <0> d           4.516 -11.138  -3.322  0.00  0.00     0.054 A 
ATOM     25  C20 <0> d           5.758 -11.676  -3.668  0.00  0.00     0.052 A 
ATOM     26  C19 <0> d           6.493 -12.369  -2.725  0.00  0.00     0.060 A 
ATOM     27 Cl1  <0> d           6.380 -11.468  -5.276  0.00  0.00    -0.083 Cl
ATOM     28  C18 <0> d           5.997 -12.540  -1.446  0.00  0.00     0.104 A 
ATOM     29  C17 <0> d           4.764 -12.014  -1.099  0.00  0.00     0.037 A 
ATOM     30  C16 <0> d           4.022 -11.315  -2.028  0.00  0.00     0.021 A 
BRANCH  28  31
ATOM     31  N4  <0> d           6.787 -13.288  -0.444  0.00  0.00    -0.116 N 
ATOM     32  O3  <0> d           6.356 -13.439   0.676  0.00  0.00    -0.532 OA
ATOM     33  O4  <0> d           7.864 -13.749  -0.744  0.00  0.00    -0.532 OA
ENDBRANCH  28  31
ENDBRANCH  11  24
TORSDOF 6
