REMARK  3 active torsions:
REMARK  status: ('A' for Active; 'I' for Inactive)
REMARK    1  A    between atoms: C7_7  and  N1_8 
REMARK       I    between atoms: N1_8  and  C8_9 
REMARK    2  A    between atoms: C8_9  and  C9_11 
REMARK    3  A    between atoms: C9_11  and  C10_12 
ROOT
ATOM      1  N1  <0> d           0.025  -0.014   2.417  0.00  0.00    -0.327 N 
ATOM      2  C8  <0> d          -0.057  -0.694   3.578  0.00  0.00     0.224 C 
ATOM      3  O1  <0> d          -0.040  -1.907   3.573  0.00  0.00    -0.273 OA
ATOM      4  H8  <0> d           0.077   0.954   2.425  0.00  0.00     0.169 HD
ENDROOT
BRANCH   2   5
ATOM      5  C9  <0> d          -0.169   0.053   4.882  0.00  0.00     0.138 C 
BRANCH   5   6
ATOM      6  C10 <0> d          -0.245  -0.947   6.038  0.00  0.00     0.187 A 
ATOM      7  N3  <0> d          -1.505  -1.708   5.981  0.00  0.00    -0.329 N 
ATOM      8  C12 <0> d          -2.171  -1.429   7.121  0.00  0.00     0.323 A 
ATOM      9  H12 <0> d          -1.798  -2.293   5.265  0.00  0.00     0.165 HD
ATOM     10  N2  <0> d          -1.500  -0.584   7.912  0.00  0.00    -0.278 N 
ATOM     11  O3  <0> d          -3.259  -1.896   7.398  0.00  0.00    -0.247 OA
ATOM     12  C11 <0> d          -0.323  -0.221   7.367  0.00  0.00     0.248 A 
ATOM     13  H11 <0> d          -1.822  -0.272   8.772  0.00  0.00     0.173 HD
ATOM     14  O2  <0> d           0.503   0.530   7.840  0.00  0.00    -0.271 OA
ENDBRANCH   5   6
ENDBRANCH   2   5
BRANCH   1  15
ATOM     15  C7  <0> d           0.034  -0.706   1.201  0.00  0.00     0.040 A 
ATOM     16  C2  <0> d          -0.584  -0.158   0.084  0.00  0.00    -0.034 A 
ATOM     17  C1  <0> d          -1.265   1.183   0.181  0.00  0.00     0.050 C 
ATOM     18  C3  <0> d          -0.569  -0.841  -1.116  0.00  0.00     0.027 A 
ATOM     19  C4  <0> d           0.056  -2.071  -1.206  0.00  0.00     0.007 A 
ATOM     20  C5  <0> d           0.668  -2.622  -0.094  0.00  0.00     0.020 A 
ATOM     21  I1  <0> d           0.076  -3.103  -3.029  0.00  0.00    -0.045 I 
ATOM     22  C6  <0> d           0.656  -1.944   1.109  0.00  0.00     0.031 A 
ENDBRANCH   1  15
TORSDOF 3
