REMARK  3 active torsions:
REMARK  status: ('A' for Active; 'I' for Inactive)
REMARK    1  A    between atoms: C4_8  and  C8_15 
REMARK    2  A    between atoms: C5_9  and  C6_11 
REMARK    3  A    between atoms: C6_11  and  O2_13 
ROOT
ATOM      1  C1  <0> d          -0.018   1.503   0.010  0.00  0.00     0.095 C 
ATOM      2  C2  <0> d           0.002  -0.004   0.002  0.00  0.00     0.141 A 
ATOM      3  N1  <0> d           0.008  -0.771  -1.054  0.00  0.00    -0.133 NA
ATOM      4  N2  <0> d           0.035  -2.012  -0.703  0.00  0.00    -0.121 NA
ATOM      5  C3  <0> d           0.049  -2.091   0.593  0.00  0.00     0.207 A 
ATOM      6  N3  <0> d           0.024  -0.818   1.097  0.00  0.00    -0.237 N 
ATOM      7  N4  <0> d           0.003  -0.466   2.407  0.00  0.00    -0.219 NA
ATOM      8  C4  <0> d           0.572  -1.458   3.318  0.00  0.00     0.134 C 
ATOM      9  C5  <0> d          -0.218  -2.775   3.260  0.00  0.00     0.178 C 
ATOM     10  S1  <0> d           0.104  -3.524   1.627  0.00  0.00    -0.072 SA
ATOM     11  H6  <0> d           0.428   0.438   2.545  0.00  0.00     0.148 HD
ENDROOT
BRANCH   8  12
ATOM     12  C8  <0> d           0.530  -0.919   4.725  0.00  0.00    -0.037 A 
ATOM     13  C13 <0> d           1.596  -1.135   5.579  0.00  0.00     0.012 A 
ATOM     14  C12 <0> d           1.561  -0.637   6.867  0.00  0.00     0.043 A 
ATOM     15  C11 <0> d           0.454   0.070   7.307  0.00  0.00     0.116 A 
ATOM     16  C10 <0> d          -0.615   0.281   6.452  0.00  0.00     0.043 A 
ATOM     17  F1  <0> d           0.417   0.553   8.568  0.00  0.00    -0.206 F 
ATOM     18  C9  <0> d          -0.575  -0.214   5.162  0.00  0.00     0.012 A 
ENDBRANCH   8  12
BRANCH   9  19
ATOM     19  C6  <0> d           0.245  -3.700   4.355  0.00  0.00     0.274 C 
ATOM     20  O1  <0> d           1.386  -3.649   4.748  0.00  0.00    -0.264 OA
BRANCH  19  21
ATOM     21  O2  <0> d          -0.611  -4.582   4.895  0.00  0.00    -0.326 OA
ATOM     22  C7  <0> d          -0.105  -5.429   5.929  0.00  0.00     0.213 C 
ENDBRANCH  19  21
ENDBRANCH   9  19
TORSDOF 3
