REMARK  7 active torsions:
REMARK  status: ('A' for Active; 'I' for Inactive)
REMARK    1  A    between atoms: C2_2  and  C3_3 
REMARK    2  A    between atoms: C3_3  and  N1_4 
REMARK    3  A    between atoms: N1_4  and  C4_5 
REMARK    4  A    between atoms: C4_5  and  C5_6 
REMARK    5  A    between atoms: C4_5  and  C12_14 
REMARK    6  A    between atoms: N3_18  and  C15_19 
REMARK    7  A    between atoms: C15_19  and  C16_20 
ROOT
ATOM      1  C4  <0> d          -2.833  -2.284  -0.114  0.00  0.00     0.286 C 
ENDROOT
BRANCH   1   2
ATOM      2  N1  <0> d          -1.453  -1.904  -0.445  0.00  0.00    -0.060 N 
ATOM      3  H9  <0> d          -1.190  -2.325  -1.323  0.00  0.00     0.278 HD
ATOM      4  H25 <0> d          -0.832  -2.227   0.282  0.00  0.00     0.278 HD
BRANCH   2   5
ATOM      5  C3  <0> d          -1.360  -0.442  -0.555  0.00  0.00     0.233 C 
BRANCH   5   6
ATOM      6  C2  <0> d           0.096  -0.040  -0.802  0.00  0.00     0.023 C 
ATOM      7  C1  <0> d           0.192   1.482  -0.916  0.00  0.00     0.007 C 
ENDBRANCH   5   6
ENDBRANCH   2   5
ENDBRANCH   1   2
BRANCH   1   8
ATOM      8  C5  <0> d          -2.896  -3.765   0.154  0.00  0.00    -0.014 A 
ATOM      9  C10 <0> d          -3.920  -4.285   0.923  0.00  0.00    -0.052 A 
ATOM     10  C9  <0> d          -3.981  -5.645   1.165  0.00  0.00     0.026 A 
ATOM     11  C11 <0> d          -4.974  -3.371   1.492  0.00  0.00     0.049 C 
ATOM     12  C8  <0> d          -3.010  -6.484   0.647  0.00  0.00     0.011 A 
ATOM     13  C7  <0> d          -1.982  -5.962  -0.118  0.00  0.00     0.020 A 
ATOM     14 Br1  <0> d          -3.089  -8.343   0.984  0.00  0.00    -0.051 Br
ATOM     15  C6  <0> d          -1.925  -4.603  -0.364  0.00  0.00     0.011 A 
ENDBRANCH   1   8
BRANCH   1  16
ATOM     16  C12 <0> d          -3.738  -1.944  -1.270  0.00  0.00     0.119 A 
ATOM     17  N3  <0> d          -4.767  -1.070  -1.234  0.00  0.00    -0.343 N 
ATOM     18  C14 <0> d          -5.326  -1.050  -2.483  0.00  0.00     0.109 A 
ATOM     19  C13 <0> d          -4.624  -1.917  -3.238  0.00  0.00     0.106 A 
ATOM     20  N2  <0> d          -3.660  -2.449  -2.471  0.00  0.00    -0.352 N 
ATOM     21  H26 <0> d          -3.009  -3.105  -2.763  0.00  0.00     0.166 HD
BRANCH  17  22
ATOM     22  C15 <0> d          -5.203  -0.288  -0.074  0.00  0.00     0.129 C 
BRANCH  22  23
ATOM     23  C16 <0> d          -4.412   1.020  -0.014  0.00  0.00     0.016 C 
ATOM     24  C17 <0> d          -4.779   1.780   1.261  0.00  0.00     0.006 C 
ENDBRANCH  22  23
ENDBRANCH  17  22
ENDBRANCH   1  16
TORSDOF 7
