REMARK  1 active torsions:
REMARK  status: ('A' for Active; 'I' for Inactive)
REMARK    1  A    between atoms: C11_13  and  O2_21 
ROOT
ATOM      1  C1  <0> d          -0.018   1.461   0.010  0.00  0.00     0.159 C 
ATOM      2  N1  <0> d           0.002  -0.004   0.002  0.00  0.00    -0.321 N 
ATOM      3  C2  <0> d          -1.135  -0.794   0.003  0.00  0.00     0.044 A 
ATOM      4  C3  <0> d          -2.478  -0.413   0.011  0.00  0.00     0.033 A 
ATOM      5  C4  <0> d          -3.425  -1.425   0.009  0.00  0.00     0.044 A 
ATOM      6  C5  <0> d          -3.068  -2.760   0.001  0.00  0.00     0.117 A 
ATOM      7  C6  <0> d          -1.732  -3.153  -0.007  0.00  0.00     0.053 A 
ATOM      8  C7  <0> d          -0.786  -2.150  -0.006  0.00  0.00    -0.005 A 
ATOM      9  C8  <0> d           0.708  -2.195  -0.013  0.00  0.00     0.110 A 
ATOM     10  C9  <0> d           1.131  -0.744  -0.013  0.00  0.00     0.242 A 
ATOM     11  O1  <0> d           2.269  -0.324  -0.023  0.00  0.00    -0.271 OA
ATOM     12  C10 <0> d           1.249  -2.909   1.224  0.00  0.00     0.115 C 
ATOM     13  C11 <0> d           1.229  -4.401   1.051  0.00  0.00     0.141 C 
ATOM     14  N2  <0> d           1.394  -4.994  -0.093  0.00  0.00    -0.209 NA
ATOM     15  C12 <0> d           1.548  -4.244  -1.222  0.00  0.00     0.155 A 
ATOM     16  C13 <0> d           1.230  -2.890  -1.239  0.00  0.00     0.032 A 
ATOM     17  C14 <0> d           1.487  -2.412  -2.510  0.00  0.00     0.151 A 
ATOM     18  N3  <0> d           1.927  -3.405  -3.247  0.00  0.00    -0.185 NA
ATOM     19  N4  <0> d           1.964  -4.570  -2.463  0.00  0.00    -0.261 N 
ATOM     20  H1  <0> d           2.241  -5.451  -2.761  0.00  0.00     0.191 HD
ATOM     21  F1  <0> d          -4.035  -3.704   0.000  0.00  0.00    -0.206 F 
ENDROOT
BRANCH  13  22
ATOM     22  O2  <0> d           1.029  -5.167   2.143  0.00  0.00    -0.348 OA
ATOM     23  H11 <0> d           1.028  -6.117   1.963  0.00  0.00     0.219 HD
ENDBRANCH  13  22
TORSDOF 1
