REMARK  5 active torsions:
REMARK  status: ('A' for Active; 'I' for Inactive)
REMARK    1  A    between atoms: C2_2  and  O1_4 
REMARK    2  A    between atoms: O1_4  and  C4_5 
REMARK    3  A    between atoms: C4_5  and  C5_6 
REMARK    4  A    between atoms: C5_6  and  N1_7 
REMARK    5  A    between atoms: C10_13  and  N2_19 
ROOT
ATOM      1  N1  <0> d          -4.167  -0.203  -0.523  0.00  0.00    -0.235 N 
ATOM      2  C6  <0> d          -4.319   0.021   0.790  0.00  0.00     0.269 A 
ATOM      3  O2  <0> d          -3.727  -0.653   1.611  0.00  0.00    -0.266 OA
ATOM      4  C7  <0> d          -5.216   1.102   1.211  0.00  0.00     0.056 A 
ATOM      5  C8  <0> d          -5.553   1.544   2.505  0.00  0.00     0.021 A 
ATOM      6  C9  <0> d          -6.428   2.588   2.677  0.00  0.00     0.030 A 
ATOM      7  C10 <0> d          -6.999   3.229   1.581  0.00  0.00     0.027 A 
ATOM      8  C11 <0> d          -6.675   2.801   0.292  0.00  0.00     0.055 A 
ATOM      9  C12 <0> d          -5.806   1.766   0.124  0.00  0.00     0.098 A 
ATOM     10  S1  <0> d          -5.134   0.929  -1.286  0.00  0.00     0.268 S 
ATOM     11  O3  <0> d          -4.280   1.841  -1.964  0.00  0.00    -0.200 OA
ATOM     12  O4  <0> d          -6.197   0.233  -1.921  0.00  0.00    -0.200 OA
ENDROOT
BRANCH   1  13
ATOM     13  C5  <0> d          -3.326  -1.221  -1.157  0.00  0.00     0.171 C 
BRANCH  13  14
ATOM     14  C4  <0> d          -1.896  -0.693  -1.289  0.00  0.00     0.189 C 
BRANCH  14  15
ATOM     15  O1  <0> d          -1.339  -0.499   0.012  0.00  0.00    -0.385 OA
BRANCH  15  16
ATOM     16  C2  <0> d           0.002  -0.004   0.002  0.00  0.00     0.113 C 
ATOM     17  C1  <0> d          -0.019   1.526   0.010  0.00  0.00     0.039 C 
ATOM     18  C3  <0> d           0.742  -0.511   1.242  0.00  0.00     0.039 C 
ENDBRANCH  15  16
ENDBRANCH  14  15
ENDBRANCH  13  14
ENDBRANCH   1  13
BRANCH   7  19
ATOM     19  N2  <0> d          -7.885   4.284   1.768  0.00  0.00    -0.399 N 
ATOM     20  H15 <0> d          -8.108   4.577   2.666  0.00  0.00     0.156 HD
ATOM     21  H16 <0> d          -8.281   4.727   1.002  0.00  0.00     0.156 HD
ENDBRANCH   7  19
TORSDOF 5
