REMARK  4 active torsions:
REMARK  status: ('A' for Active; 'I' for Inactive)
REMARK    1  A    between atoms: C9_9  and  C10_10 
REMARK    2  A    between atoms: C11_11  and  O3_27 
REMARK    3  A    between atoms: C12_12  and  N1_22 
REMARK    4  A    between atoms: C13_13  and  C16_17 
ROOT
ATOM      1  C10 <0> d           2.518  -0.950  -0.347  0.00  0.00     0.054 C 
ATOM      2  C11 <0> d           2.767   0.295  -0.791  0.00  0.00     0.081 C 
ATOM      3  C12 <0> d           2.618   1.490   0.112  0.00  0.00     0.179 C 
ATOM      4  C13 <0> d           2.907   1.077   1.558  0.00  0.00     0.081 C 
ATOM      5  C14 <0> d           1.953  -0.057   1.949  0.00  0.00     0.097 C 
ATOM      6  C15 <0> d           2.116  -1.195   0.975  0.00  0.00     0.161 C 
ATOM      7  O1  <0> d           1.897  -2.333   1.337  0.00  0.00    -0.293 OA
ENDROOT
BRANCH   1   8
ATOM      8  C9  <0> d           2.677  -2.113  -1.293  0.00  0.00     0.258 C 
ATOM      9  C4  <0> d           3.849  -2.952  -0.858  0.00  0.00    -0.017 A 
ATOM     10  C3  <0> d           5.007  -2.307  -0.447  0.00  0.00     0.010 A 
ATOM     11  C5  <0> d           3.805  -4.327  -0.863  0.00  0.00    -0.048 A 
ATOM     12  C2  <0> d           6.107  -3.036  -0.044  0.00  0.00     0.001 A 
ATOM     13  C1  <0> d           6.056  -4.418  -0.050  0.00  0.00     0.001 A 
ATOM     14  C6  <0> d           4.914  -5.056  -0.462  0.00  0.00     0.008 A 
ATOM     15  C7  <0> d           2.569  -5.075  -1.292  0.00  0.00     0.066 C 
ATOM     16  C8  <0> d           1.639  -4.144  -2.070  0.00  0.00     0.238 C 
ATOM     17  N4  <0> d           1.443  -2.911  -1.285  0.00  0.00    -0.062 N 
ATOM     18  H20 <0> d           1.204  -3.159  -0.317  0.00  0.00     0.278 HD
ATOM     19  H21 <0> d           0.679  -2.363  -1.697  0.00  0.00     0.278 HD
ENDBRANCH   1   8
BRANCH   2  20
ATOM     20  O3  <0> d           3.156   0.475  -2.067  0.00  0.00    -0.362 OA
ATOM     21  H19 <0> d           3.298   1.450  -2.238  0.00  0.00     0.217 HD
ENDBRANCH   2  20
BRANCH   3  22
ATOM     22  N1  <0> d           1.251   2.007   0.016  0.00  0.00    -0.250 N 
ATOM     23  N3  <0> d           0.853   3.353   0.084  0.00  0.00    -0.164 NA
ATOM     24  C21 <0> d          -0.448   3.369  -0.047  0.00  0.00     0.256 A 
ATOM     25  N2  <0> d          -0.883   2.119  -0.197  0.00  0.00    -0.234 NA
ATOM     26  C20 <0> d           0.128   1.289  -0.156  0.00  0.00     0.230 A 
ENDBRANCH   3  22
BRANCH   4  27
ATOM     27  C16 <0> d           2.692   2.256   2.472  0.00  0.00     0.059 A 
ATOM     28  O2  <0> d           1.542   2.931   2.625  0.00  0.00    -0.327 OA
ATOM     29  C19 <0> d           1.716   3.916   3.522  0.00  0.00     0.142 A 
ATOM     30  C18 <0> d           2.993   3.883   3.946  0.00  0.00     0.027 A 
ATOM     31  C17 <0> d           3.622   2.813   3.269  0.00  0.00     0.035 A 
ENDBRANCH   4  27
TORSDOF 4
