REMARK  7 active torsions:
REMARK  status: ('A' for Active; 'I' for Inactive)
REMARK    1  A    between atoms: C4_4  and  N1_7 
REMARK    2  A    between atoms: N2_10  and  C11_13 
REMARK    3  A    between atoms: C12_14  and  O4_30 
REMARK    4  A    between atoms: C13_15  and  N3_21 
REMARK    5  A    between atoms: N3_21  and  C17_22 
REMARK    6  A    between atoms: C17_22  and  C18_23 
REMARK    7  A    between atoms: C23_28  and  O3_29 
ROOT
ATOM      1  C11 <0> d          -0.386   7.386   3.943  0.00  0.00     0.308 C 
ATOM      2  C12 <0> d          -1.052   7.759   2.615  0.00  0.00     0.189 C 
ATOM      3  C13 <0> d          -0.161   7.300   1.455  0.00  0.00     0.247 C 
ATOM      4  C14 <0> d           1.260   7.843   1.681  0.00  0.00     0.181 C 
ATOM      5  C15 <0> d           1.135   9.325   2.106  0.00  0.00     0.205 C 
ATOM      6  O1  <0> d           1.036   9.293   3.545  0.00  0.00    -0.356 OA
ATOM      7  C16 <0> d           1.059   7.908   3.937  0.00  0.00     0.296 C 
ATOM      8  O2  <0> d           1.768   7.212   2.887  0.00  0.00    -0.349 OA
ENDROOT
BRANCH   1   9
ATOM      9  N2  <0> d          -0.382   5.926   4.100  0.00  0.00     0.102 N 
ATOM     10  C8  <0> d           0.425   5.522   5.260  0.00  0.00     0.288 C 
ATOM     11  C7  <0> d           0.470   3.995   5.341  0.00  0.00     0.126 C 
ATOM     12  N1  <0> d          -0.900   3.473   5.448  0.00  0.00    -0.280 NA
ATOM     13  C10 <0> d          -1.707   3.876   4.288  0.00  0.00     0.126 C 
ATOM     14  C9  <0> d          -1.751   5.403   4.207  0.00  0.00     0.288 C 
BRANCH  12  15
ATOM     15  C4  <0> d          -0.895   2.084   5.597  0.00  0.00     0.010 A 
ATOM     16  C3  <0> d          -2.095   1.393   5.716  0.00  0.00     0.024 A 
ATOM     17  C2  <0> d          -2.087   0.019   5.862  0.00  0.00     0.002 A 
ATOM     18  C1  <0> d          -0.887  -0.668   5.890  0.00  0.00     0.000 A 
ATOM     19  C6  <0> d           0.308   0.017   5.772  0.00  0.00     0.002 A 
ATOM     20  C5  <0> d           0.308   1.390   5.620  0.00  0.00     0.024 A 
ENDBRANCH  12  15
ENDBRANCH   1   9
BRANCH   2  21
ATOM     21  O4  <0> d          -1.228   9.175   2.550  0.00  0.00    -0.391 OA
ATOM     22  H29 <0> d          -1.694   9.632   1.664  0.00  0.00     0.210 HD
ENDBRANCH   2  21
BRANCH   3  23
ATOM     23  N3  <0> d          -0.126   5.832   1.410  0.00  0.00    -0.062 N 
ATOM     24  H21 <0> d           0.641   5.462   2.105  0.00  0.00     0.278 HD
ATOM     25  H30 <0> d          -1.109   5.433   1.702  0.00  0.00     0.278 HD
BRANCH  23  26
ATOM     26  C17 <0> d           0.193   5.354   0.058  0.00  0.00     0.274 C 
BRANCH  26  27
ATOM     27  C18 <0> d           0.219   3.848   0.051  0.00  0.00     0.000 A 
ATOM     28  C23 <0> d          -0.968   3.133  -0.014  0.00  0.00     0.073 A 
ATOM     29  C22 <0> d          -0.940   1.746  -0.026  0.00  0.00     0.037 A 
ATOM     30  C21 <0> d           0.268   1.080   0.038  0.00  0.00     0.003 A 
ATOM     31  C20 <0> d           1.450   1.795   0.103  0.00  0.00     0.001 A 
ATOM     32  C19 <0> d           1.426   3.177   0.109  0.00  0.00     0.011 A 
BRANCH  28  33
ATOM     33  O3  <0> d          -2.156   3.790  -0.071  0.00  0.00    -0.360 OA
ATOM     34  H28 <0> d          -3.097   3.223  -0.123  0.00  0.00     0.217 HD
ENDBRANCH  28  33
ENDBRANCH  26  27
ENDBRANCH  23  26
ENDBRANCH   3  23
TORSDOF 7
