REMARK  3 active torsions:
REMARK  status: ('A' for Active; 'I' for Inactive)
REMARK    1  A    between atoms: C6_6  and  N1_7 
REMARK    2  A    between atoms: N2_11  and  C9_12 
REMARK    3  A    between atoms: C9_12  and  C10_13 
ROOT
ATOM      1  C1  <0> d          -0.017   1.385   0.010  0.00  0.00     0.031 A 
ATOM      2  C2  <0> d           1.165   2.096   0.002  0.00  0.00     0.032 A 
ATOM      3  C3  <0> d           2.386   1.427  -0.013  0.00  0.00     0.044 A 
ATOM      4  C4  <0> d           2.396   0.038  -0.021  0.00  0.00    -0.020 A 
ATOM      5  C5  <0> d           1.219  -0.676  -0.013  0.00  0.00     0.038 A 
ATOM      6  C6  <0> d           0.002  -0.004   0.002  0.00  0.00     0.026 A 
ATOM      7  C7  <0> d           3.849  -0.378  -0.038  0.00  0.00     0.144 A 
ATOM      8  C8  <0> d           4.608   0.932  -0.038  0.00  0.00     0.228 A 
ATOM      9  O1  <0> d           5.813   1.066  -0.049  0.00  0.00    -0.273 OA
ATOM     10  N2  <0> d           3.695   1.918  -0.024  0.00  0.00    -0.317 N 
ENDROOT
BRANCH  10  11
ATOM     11  C9  <0> d           4.033   3.344  -0.021  0.00  0.00     0.137 C 
BRANCH  11  12
ATOM     12  C10 <0> d           4.165   3.833   1.423  0.00  0.00     0.008 C 
ATOM     13  C14 <0> d           4.640   5.290   1.429  0.00  0.00     0.032 C 
ATOM     14  C13 <0> d           4.693   5.795   2.873  0.00  0.00     0.168 C 
ATOM     15  O2  <0> d           3.402   5.660   3.471  0.00  0.00    -0.391 OA
ATOM     16  C12 <0> d           2.927   4.314   3.536  0.00  0.00     0.168 C 
ATOM     17  C11 <0> d           2.803   3.749   2.119  0.00  0.00     0.032 C 
ENDBRANCH  11  12
ENDBRANCH  10  11
BRANCH   6  18
ATOM     18  N1  <0> d          -1.198  -0.723   0.010  0.00  0.00    -0.399 N 
ATOM     19  H4  <0> d          -2.046  -0.252   0.020  0.00  0.00     0.156 HD
ATOM     20  H5  <0> d          -1.182  -1.693   0.004  0.00  0.00     0.156 HD
ENDBRANCH   6  18
TORSDOF 3
