REMARK  4 active torsions:
REMARK  status: ('A' for Active; 'I' for Inactive)
REMARK    1  A    between atoms: C2_2  and  N1_3 
REMARK    2  A    between atoms: N1_3  and  C3_4 
REMARK    3  A    between atoms: C3_4  and  C4_5 
REMARK    4  A    between atoms: N2_12  and  C12_14 
ROOT
ATOM      1  C4  <0> d          -2.925  -2.495   0.331  0.00  0.00    -0.032 A 
ATOM      2  C5  <0> d          -3.570  -2.914   1.480  0.00  0.00     0.009 A 
ATOM      3  C6  <0> d          -4.836  -3.465   1.399  0.00  0.00     0.010 A 
ATOM      4  C7  <0> d          -5.456  -3.596   0.172  0.00  0.00    -0.025 A 
ATOM      5  C8  <0> d          -4.810  -3.176  -0.978  0.00  0.00    -0.024 A 
ATOM      6  C9  <0> d          -3.547  -2.620  -0.896  0.00  0.00     0.018 A 
ATOM      7  C10 <0> d          -5.719  -3.442  -2.157  0.00  0.00     0.275 C 
ATOM      8  N2  <0> d          -6.724  -4.415  -1.674  0.00  0.00    -0.054 N 
ATOM      9  C11 <0> d          -6.807  -4.150  -0.220  0.00  0.00     0.275 C 
ATOM     10  H31 <0> d          -6.412  -5.360  -1.845  0.00  0.00     0.281 HD
ENDROOT
BRANCH   8  11
ATOM     11  C12 <0> d          -8.023  -4.175  -2.317  0.00  0.00     0.129 C 
ATOM     12  C17 <0> d          -7.893  -4.389  -3.826  0.00  0.00     0.043 C 
ATOM     13  C16 <0> d          -9.246  -4.139  -4.495  0.00  0.00    -0.012 C 
ATOM     14  C15 <0> d          -9.693  -2.702  -4.221  0.00  0.00     0.009 C 
ATOM     15  C18 <0> d         -10.283  -5.113  -3.929  0.00  0.00     0.009 C 
ATOM     16  C14 <0> d          -9.823  -2.488  -2.711  0.00  0.00    -0.012 C 
ATOM     17  C13 <0> d          -8.470  -2.738  -2.042  0.00  0.00     0.043 C 
ATOM     18  C20 <0> d         -10.860  -3.461  -2.145  0.00  0.00     0.009 C 
ATOM     19  C19 <0> d         -10.413  -4.899  -2.420  0.00  0.00    -0.012 C 
ATOM     20  C21 <0> d          -9.060  -5.149  -1.751  0.00  0.00     0.043 C 
ENDBRANCH   8  11
BRANCH   1  21
ATOM     21  C3  <0> d          -1.545  -1.895   0.419  0.00  0.00     0.270 C 
BRANCH  21  22
ATOM     22  N1  <0> d          -1.654  -0.441   0.601  0.00  0.00    -0.072 N 
ATOM     23  H6  <0> d          -2.160  -0.246   1.452  0.00  0.00     0.277 HD
ATOM     24  H32 <0> d          -2.146  -0.040  -0.183  0.00  0.00     0.277 HD
BRANCH  22  25
ATOM     25  C2  <0> d          -0.309   0.144   0.687  0.00  0.00     0.228 C 
ATOM     26  C1  <0> d          -0.423   1.658   0.877  0.00  0.00     0.034 C 
ENDBRANCH  22  25
ENDBRANCH  21  22
ENDBRANCH   1  21
TORSDOF 4
