REMARK  7 active torsions:
REMARK  status: ('A' for Active; 'I' for Inactive)
REMARK    1  A    between atoms: N1_4  and  S1_9 
REMARK    2  A    between atoms: S1_9  and  C7_12 
REMARK    3  A    between atoms: C7_12  and  C8_13 
REMARK    4  A    between atoms: C8_13  and  N2_14 
REMARK    5  A    between atoms: N2_14  and  C9_15 
REMARK    6  A    between atoms: C9_15  and  C10_16 
REMARK    7  A    between atoms: C12_21  and  C13_22 
ROOT
ATOM      1  C9  <0> d          -1.508  -5.577  -5.259  0.00  0.00     0.274 C 
ENDROOT
BRANCH   1   2
ATOM      2  N2  <0> d          -0.833  -4.836  -4.185  0.00  0.00    -0.070 N 
ATOM      3  H18 <0> d          -0.557  -3.927  -4.526  0.00  0.00     0.277 HD
ATOM      4  H29 <0> d          -0.015  -5.346  -3.888  0.00  0.00     0.277 HD
BRANCH   2   5
ATOM      5  C8  <0> d          -1.750  -4.675  -3.049  0.00  0.00     0.249 C 
BRANCH   5   6
ATOM      6  C7  <0> d          -1.046  -3.902  -1.931  0.00  0.00     0.190 C 
BRANCH   6   7
ATOM      7  S1  <0> d          -2.179  -3.704  -0.528  0.00  0.00     0.230 S 
ATOM      8  O2  <0> d          -2.436  -4.964   0.075  0.00  0.00    -0.206 OA
ATOM      9  O3  <0> d          -3.249  -2.838  -0.882  0.00  0.00    -0.206 OA
BRANCH   7  10
ATOM     10  N1  <0> d          -1.311  -2.862   0.603  0.00  0.00    -0.306 N 
ATOM     11  C3  <0> d          -1.329  -1.391   0.632  0.00  0.00     0.166 C 
ATOM     12  C2  <0> d           0.119  -0.890   0.674  0.00  0.00     0.136 C 
ATOM     13  C1  <0> d           0.131   0.623   0.899  0.00  0.00     0.041 C 
ATOM     14  O1  <0> d           0.812  -1.538   1.744  0.00  0.00    -0.378 OA
ATOM     15  C5  <0> d           0.909  -2.957   1.605  0.00  0.00     0.136 C 
ATOM     16  C4  <0> d          -0.499  -3.564   1.611  0.00  0.00     0.166 C 
ATOM     17  C6  <0> d           1.605  -3.295   0.284  0.00  0.00     0.041 C 
ENDBRANCH   7  10
ENDBRANCH   6   7
ENDBRANCH   5   6
ENDBRANCH   2   5
ENDBRANCH   1   2
BRANCH   1  18
ATOM     18  C10 <0> d          -0.563  -5.754  -6.419  0.00  0.00     0.015 A 
ATOM     19  C12 <0> d           0.499  -6.677  -6.490  0.00  0.00     0.096 A 
ATOM     20  N4  <0> d           1.087  -6.529  -7.659  0.00  0.00    -0.174 NA
ATOM     21  N3  <0> d           0.424  -5.508  -8.353  0.00  0.00    -0.288 N 
ATOM     22  C11 <0> d          -0.579  -5.052  -7.573  0.00  0.00     0.120 A 
ATOM     23  H3  <0> d           0.648  -5.185  -9.240  0.00  0.00     0.188 HD
BRANCH  19  24
ATOM     24  C13 <0> d           0.885  -7.647  -5.436  0.00  0.00    -0.002 A 
ATOM     25  C18 <0> d           2.228  -7.841  -5.122  0.00  0.00     0.053 A 
ATOM     26  C17 <0> d           2.585  -8.743  -4.134  0.00  0.00     0.103 A 
ATOM     27  C16 <0> d           1.602  -9.461  -3.462  0.00  0.00     0.102 A 
ATOM     28  O4  <0> d           3.903  -8.922  -3.841  0.00  0.00    -0.346 OA
ATOM     29  C15 <0> d           0.264  -9.272  -3.780  0.00  0.00     0.040 A 
ATOM     30  O5  <0> d           1.935 -10.353  -2.488  0.00  0.00    -0.346 OA
ATOM     31  C14 <0> d          -0.096  -8.371  -4.761  0.00  0.00     0.017 A 
ATOM     32  C20 <0> d           3.297 -10.793  -2.457  0.00  0.00     0.202 C 
ATOM     33  C19 <0> d           4.203  -9.562  -2.596  0.00  0.00     0.202 C 
ENDBRANCH  19  24
ENDBRANCH   1  18
TORSDOF 7
