REMARK  2 active torsions:
REMARK  status: ('A' for Active; 'I' for Inactive)
REMARK    1  A    between atoms: C3_3  and  C8_13 
REMARK       I    between atoms: C8_13  and  N3_15 
REMARK    2  A    between atoms: N3_15  and  C9_16 
ROOT
ATOM      1  C1  <0> d          -0.018   1.503   0.010  0.00  0.00     0.078 C 
ATOM      2  C2  <0> d           0.002  -0.004   0.002  0.00  0.00     0.068 A 
ATOM      3  C3  <0> d          -1.100  -0.804   0.003  0.00  0.00     0.081 A 
ATOM      4  C4  <0> d          -0.586  -2.183  -0.007  0.00  0.00     0.103 A 
ATOM      5  C5  <0> d          -1.173  -3.467  -0.011  0.00  0.00     0.262 A 
ATOM      6  O1  <0> d          -2.384  -3.603  -0.007  0.00  0.00    -0.267 OA
ATOM      7  N1  <0> d          -0.351  -4.542  -0.021  0.00  0.00    -0.317 N 
ATOM      8  H1  <0> d          -0.724  -5.437  -0.024  0.00  0.00     0.170 HD
ATOM      9  C6  <0> d           0.994  -4.369  -0.026  0.00  0.00     0.212 A 
ATOM     10  N2  <0> d           1.546  -3.188  -0.022  0.00  0.00    -0.219 NA
ATOM     11  C7  <0> d           0.804  -2.070  -0.013  0.00  0.00     0.187 A 
ATOM     12  O2  <0> d           1.107  -0.761  -0.013  0.00  0.00    -0.295 OA
ENDROOT
BRANCH   3  13
ATOM     13  C8  <0> d          -2.509  -0.379   0.012  0.00  0.00     0.255 C 
ATOM     14  O3  <0> d          -3.096  -0.197  -1.037  0.00  0.00    -0.268 OA
ATOM     15  N3  <0> d          -3.148  -0.190   1.184  0.00  0.00    -0.352 N 
ATOM     16  H6  <0> d          -2.680  -0.335   2.021  0.00  0.00     0.163 HD
BRANCH  15  17
ATOM     17  C9  <0> d          -4.551   0.234   1.193  0.00  0.00     0.084 A 
ATOM     18  C11 <0> d          -5.387  -0.118   2.425  0.00  0.00     0.027 A 
ATOM     19  C10 <0> d          -4.952   1.329   2.183  0.00  0.00     0.027 A 
ENDBRANCH  15  17
ENDBRANCH   3  13
TORSDOF 2
