REMARK  4 active torsions:
REMARK  status: ('A' for Active; 'I' for Inactive)
REMARK    1  A    between atoms: C4_5  and  C6_9 
REMARK    2  A    between atoms: C9_12  and  O2_15 
REMARK    3  A    between atoms: N3_18  and  C14_20 
REMARK    4  A    between atoms: C14_20  and  C15_21 
ROOT
ATOM      1  C1  <0> d           2.952  -2.211  -0.038  0.00  0.00     0.161 C 
ATOM      2  N1  <0> d           1.548  -1.793  -0.022  0.00  0.00    -0.306 N 
ATOM      3  C2  <0> d           1.272  -0.456  -0.013  0.00  0.00     0.048 A 
ATOM      4  C3  <0> d           0.002  -0.004   0.002  0.00  0.00     0.061 A 
ATOM      5  C4  <0> d          -1.111  -1.032   0.007  0.00  0.00     0.160 A 
ATOM      6  N2  <0> d          -0.710  -2.449  -0.004  0.00  0.00    -0.330 N 
ATOM      7  C5  <0> d           0.605  -2.744  -0.018  0.00  0.00     0.323 A 
ATOM      8  O1  <0> d           0.945  -3.911  -0.027  0.00  0.00    -0.247 OA
ATOM      9  C12 <0> d          -0.017   1.406   0.010  0.00  0.00     0.254 A 
ATOM     10  O3  <0> d          -1.031   2.080   0.018  0.00  0.00    -0.268 OA
ATOM     11  N3  <0> d           1.231   1.909   0.001  0.00  0.00    -0.336 N 
ATOM     12  C13 <0> d           2.160   0.769  -0.014  0.00  0.00     0.184 A 
ATOM     13  H5  <0> d          -1.377  -3.154  -0.001  0.00  0.00     0.165 HD
ENDROOT
BRANCH   5  14
ATOM     14  C6  <0> d          -1.955  -0.797   1.234  0.00  0.00    -0.030 A 
ATOM     15  C11 <0> d          -3.149  -0.110   1.129  0.00  0.00     0.012 A 
ATOM     16  C10 <0> d          -3.924   0.106   2.252  0.00  0.00     0.037 A 
ATOM     17  C9  <0> d          -3.503  -0.368   3.486  0.00  0.00     0.065 A 
ATOM     18  C8  <0> d          -2.304  -1.057   3.588  0.00  0.00     0.037 A 
ATOM     19  C7  <0> d          -1.535  -1.276   2.462  0.00  0.00     0.012 A 
BRANCH  17  20
ATOM     20  O2  <0> d          -4.264  -0.157   4.592  0.00  0.00    -0.361 OA
ATOM     21  H10 <0> d          -4.909  -0.857   4.765  0.00  0.00     0.217 HD
ENDBRANCH  17  20
ENDBRANCH   5  14
BRANCH  11  22
ATOM     22  C14 <0> d           1.596   3.327   0.005  0.00  0.00     0.191 C 
BRANCH  22  23
ATOM     23  C15 <0> d           1.735   3.806   1.427  0.00  0.00     0.070 A 
ATOM     24  O4  <0> d           0.754   4.332   2.178  0.00  0.00    -0.325 OA
ATOM     25  C18 <0> d           1.237   4.643   3.392  0.00  0.00     0.142 A 
ATOM     26  C17 <0> d           2.544   4.323   3.424  0.00  0.00     0.027 A 
ATOM     27  C16 <0> d           2.865   3.784   2.157  0.00  0.00     0.036 A 
ENDBRANCH  22  23
ENDBRANCH  11  22
TORSDOF 4
