REMARK  1 active torsions:
REMARK  status: ('A' for Active; 'I' for Inactive)
REMARK       I    between atoms: C2_2  and  N1_4 
REMARK    1  A    between atoms: N1_4  and  C3_5 
REMARK       I    between atoms: N3_7  and  C13_21 
ROOT
ATOM      1  C3  <0> d          -1.569  -1.545   2.814  0.00  0.00     0.191 A 
ATOM      2  N2  <0> d          -1.097  -0.682   1.961  0.00  0.00    -0.141 NA
ATOM      3  N3  <0> d          -1.209   0.685   2.134  0.00  0.00    -0.201 N 
ATOM      4  C4  <0> d          -1.898   1.094   3.358  0.00  0.00     0.224 A 
ATOM      5  S1  <0> d          -2.301  -0.529   4.091  0.00  0.00    -0.042 SA
ATOM      6  C5  <0> d          -3.131   1.902   3.108  0.00  0.00     0.021 A 
ATOM      7  C6  <0> d          -4.274   1.701   2.366  0.00  0.00     0.032 A 
ATOM      8  C7  <0> d          -5.262   2.670   2.336  0.00  0.00     0.011 A 
ATOM      9  C8  <0> d          -5.100   3.841   3.056  0.00  0.00     0.021 A 
ATOM     10  C9  <0> d          -3.958   4.047   3.801  0.00  0.00     0.032 A 
ATOM     11  C10 <0> d          -2.958   3.078   3.837  0.00  0.00     0.047 A 
ATOM     12  N4  <0> d          -1.732   3.055   4.508  0.00  0.00    -0.318 N 
ATOM     13  C11 <0> d          -1.048   1.915   4.276  0.00  0.00     0.270 A 
ATOM     14  O2  <0> d           0.039   1.615   4.723  0.00  0.00    -0.269 OA
ATOM     15  C12 <0> d          -1.247   4.141   5.363  0.00  0.00     0.159 C 
ATOM     16 Br1  <0> d          -6.829   2.394   1.315  0.00  0.00    -0.051 Br
ATOM     17  C13 <0> d          -0.718   1.572   1.248  0.00  0.00     0.238 C 
ATOM     18  O3  <0> d          -0.843   2.763   1.448  0.00  0.00    -0.272 OA
ATOM     19  C14 <0> d          -0.013   1.086   0.008  0.00  0.00     0.119 C 
ENDROOT
BRANCH   1  20
ATOM     20  N1  <0> d          -1.516  -2.931   2.748  0.00  0.00    -0.305 N 
ATOM     21  C2  <0> d          -0.918  -3.534   1.701  0.00  0.00     0.219 C 
ATOM     22  C1  <0> d          -0.861  -5.038   1.629  0.00  0.00     0.117 C 
ATOM     23  O1  <0> d          -0.427  -2.865   0.817  0.00  0.00    -0.274 OA
ATOM     24  H4  <0> d          -1.909  -3.466   3.455  0.00  0.00     0.171 HD
ENDBRANCH   1  20
TORSDOF 1
