REMARK  3 active torsions:
REMARK  status: ('A' for Active; 'I' for Inactive)
REMARK    1  A    between atoms: C2_2  and  N1_3 
REMARK    2  A    between atoms: C5_6  and  C6_8 
REMARK       I    between atoms: C6_8  and  N3_10 
REMARK    3  A    between atoms: N3_10  and  N4_11 
ROOT
ATOM      1  N4  <0> d          -5.679   1.187   3.626  0.00  0.00    -0.203 N 
ATOM      2  C7  <0> d          -5.930   0.049   4.324  0.00  0.00     0.126 A 
ATOM      3  N5  <0> d          -7.046  -0.108   4.983  0.00  0.00    -0.226 NA
ATOM      4  C8  <0> d          -7.980   0.839   4.985  0.00  0.00     0.115 A 
ATOM      5  C9  <0> d          -7.813   2.049   4.287  0.00  0.00     0.071 A 
ATOM      6  C10 <0> d          -6.575   2.190   3.579  0.00  0.00     0.281 A 
ATOM      7  O2  <0> d          -6.337   3.203   2.944  0.00  0.00    -0.265 OA
ATOM      8  C11 <0> d          -8.925   2.975   4.390  0.00  0.00     0.034 A 
ATOM      9  C12 <0> d         -10.000   2.630   5.118  0.00  0.00    -0.018 A 
ATOM     10  S1  <0> d          -9.583   1.006   5.725  0.00  0.00    -0.074 SA
ATOM     11  C13 <0> d         -11.257   3.425   5.362  0.00  0.00     0.056 C 
ATOM     12  C14 <0> d          -4.899  -1.050   4.342  0.00  0.00     0.093 C 
ENDROOT
BRANCH   1  13
ATOM     13  N3  <0> d          -4.466   1.316   2.937  0.00  0.00    -0.253 N 
ATOM     14  C6  <0> d          -3.497   2.115   3.425  0.00  0.00     0.292 C 
ATOM     15  O1  <0> d          -3.675   2.724   4.462  0.00  0.00    -0.264 OA
ATOM     16  H7  <0> d          -4.325   0.831   2.110  0.00  0.00     0.191 HD
BRANCH  14  17
ATOM     17  C5  <0> d          -2.218   2.252   2.698  0.00  0.00     0.165 A 
ATOM     18  C4  <0> d          -1.113   3.049   3.083  0.00  0.00     0.064 A 
ATOM     19  C3  <0> d          -0.179   2.861   2.121  0.00  0.00     0.134 A 
ATOM     20 Br1  <0> d          -0.972   4.145   4.617  0.00  0.00    -0.047 Br
ATOM     21  N1  <0> d          -0.704   1.998   1.216  0.00  0.00    -0.279 N 
ATOM     22  N2  <0> d          -1.893   1.660   1.566  0.00  0.00    -0.166 NA
BRANCH  21  23
ATOM     23  C2  <0> d          -0.019   1.526   0.010  0.00  0.00     0.146 C 
ATOM     24  C1  <0> d           0.002  -0.004   0.002  0.00  0.00     0.028 C 
ENDBRANCH  21  23
ENDBRANCH  14  17
ENDBRANCH   1  13
TORSDOF 3
