REMARK  8 active torsions:
REMARK  status: ('A' for Active; 'I' for Inactive)
REMARK    1  A    between atoms: C2_2  and  C3_3 
REMARK    2  A    between atoms: C6_6  and  N1_9 
REMARK       I    between atoms: N1_9  and  C9_10 
REMARK    3  A    between atoms: C9_10  and  C10_12 
REMARK       I    between atoms: C10_12  and  N2_14 
REMARK    4  A    between atoms: N2_14  and  C11_15 
REMARK    5  A    between atoms: C11_15  and  C12_16 
REMARK    6  A    between atoms: C12_16  and  C13_17 
REMARK    7  A    between atoms: C13_17  and  C14_18 
REMARK    8  A    between atoms: C14_18  and  C15_19 
ROOT
ATOM      1  C10 <0> d          -2.880   4.465   6.575  0.00  0.00     0.309 C 
ATOM      2  O2  <0> d          -3.758   3.791   7.072  0.00  0.00    -0.262 OA
ATOM      3  N2  <0> d          -2.467   5.593   7.186  0.00  0.00    -0.353 N 
ATOM      4  H12 <0> d          -1.765   6.131   6.788  0.00  0.00     0.162 HD
ENDROOT
BRANCH   1   5
ATOM      5  C9  <0> d          -2.255   4.043   5.285  0.00  0.00     0.313 C 
ATOM      6  N1  <0> d          -2.667   2.915   4.674  0.00  0.00    -0.319 N 
ATOM      7  H11 <0> d          -3.420   2.417   5.030  0.00  0.00     0.169 HD
ATOM      8  O1  <0> d          -1.376   4.717   4.788  0.00  0.00    -0.262 OA
BRANCH   6   9
ATOM      9  C6  <0> d          -2.010   2.461   3.528  0.00  0.00     0.035 A 
ATOM     10  C5  <0> d          -0.643   2.663   3.383  0.00  0.00     0.030 A 
ATOM     11  C4  <0> d           0.005   2.209   2.251  0.00  0.00     0.009 A 
ATOM     12  C3  <0> d          -0.708   1.562   1.258  0.00  0.00    -0.058 A 
ATOM     13  C8  <0> d          -2.068   1.359   1.399  0.00  0.00     0.009 A 
ATOM     14  C7  <0> d          -2.721   1.806   2.530  0.00  0.00     0.030 A 
BRANCH  12  15
ATOM     15  C2  <0> d           0.001   1.073   0.021  0.00  0.00     0.034 C 
ATOM     16  C1  <0> d          -0.014   2.171  -1.044  0.00  0.00     0.010 C 
ENDBRANCH  12  15
ENDBRANCH   6   9
ENDBRANCH   1   5
BRANCH   3  17
ATOM     17  C11 <0> d          -3.080   6.007   8.451  0.00  0.00     0.123 C 
BRANCH  17  18
ATOM     18  C12 <0> d          -2.436   7.310   8.927  0.00  0.00     0.020 C 
BRANCH  18  19
ATOM     19  C13 <0> d          -3.076   7.742  10.248  0.00  0.00     0.002 C 
BRANCH  19  20
ATOM     20  C14 <0> d          -2.432   9.045  10.725  0.00  0.00     0.006 C 
BRANCH  20  21
ATOM     21  C15 <0> d          -3.071   9.477  12.046  0.00  0.00     0.011 C 
ATOM     22  C19 <0> d          -4.545   9.816  11.813  0.00  0.00     0.237 C 
ATOM     23  N3  <0> d          -5.164  10.245  13.082  0.00  0.00    -0.075 N 
ATOM     24  C18 <0> d          -4.506  11.465  13.588  0.00  0.00     0.232 C 
ATOM     25  H29 <0> d          -6.160  10.438  12.924  0.00  0.00     0.277 HD
ATOM     26  H30 <0> d          -5.066   9.495  13.776  0.00  0.00     0.277 HD
ATOM     27  C17 <0> d          -3.031  11.175  13.874  0.00  0.00     0.028 C 
ATOM     28  C16 <0> d          -2.347  10.714  12.584  0.00  0.00     0.008 C 
ENDBRANCH  20  21
ENDBRANCH  19  20
ENDBRANCH  18  19
ENDBRANCH  17  18
ENDBRANCH   3  17
TORSDOF 8
