REMARK  3 active torsions:
REMARK  status: ('A' for Active; 'I' for Inactive)
REMARK    1  A    between atoms: C2_2  and  N1_3 
REMARK    2  A    between atoms: C9_11  and  C11_14 
REMARK       I    between atoms: C11_14  and  N3_16 
REMARK    3  A    between atoms: N3_16  and  C12_17 
ROOT
ATOM      1  N1  <0> d           1.741  -1.596   0.676  0.00  0.00    -0.324 N 
ATOM      2  C3  <0> d           3.025  -1.243   0.963  0.00  0.00     0.096 A 
ATOM      3  C4  <0> d           3.530  -1.318   2.208  0.00  0.00     0.048 A 
ATOM      4  C5  <0> d           2.731  -1.773   3.275  0.00  0.00     0.051 A 
ATOM      5  C6  <0> d           1.400  -2.145   3.010  0.00  0.00     0.061 A 
ATOM      6  C7  <0> d           0.904  -2.038   1.639  0.00  0.00     0.260 A 
ATOM      7  O1  <0> d          -0.243  -2.346   1.369  0.00  0.00    -0.267 OA
ATOM      8  C8  <0> d           0.831  -2.556   4.229  0.00  0.00     0.054 A 
ATOM      9  C9  <0> d           1.790  -2.434   5.191  0.00  0.00     0.104 A 
ATOM     10  N2  <0> d           2.950  -1.955   4.607  0.00  0.00    -0.346 N 
ATOM     11  C10 <0> d           4.209  -1.688   5.308  0.00  0.00     0.156 C 
ENDROOT
BRANCH   9  12
ATOM     12  C11 <0> d           1.620  -2.756   6.611  0.00  0.00     0.273 C 
ATOM     13  O2  <0> d           0.598  -3.294   6.995  0.00  0.00    -0.266 OA
ATOM     14  N3  <0> d           2.596  -2.458   7.492  0.00  0.00    -0.321 N 
ATOM     15  H12 <0> d           3.366  -1.943   7.206  0.00  0.00     0.169 HD
BRANCH  14  16
ATOM     16  C12 <0> d           2.497  -2.891   8.818  0.00  0.00     0.047 A 
ATOM     17  C17 <0> d           3.493  -3.690   9.365  0.00  0.00    -0.035 A 
ATOM     18  C16 <0> d           3.395  -4.111  10.676  0.00  0.00     0.009 A 
ATOM     19  C18 <0> d           4.682  -4.091   8.530  0.00  0.00     0.050 C 
ATOM     20  C15 <0> d           2.302  -3.748  11.441  0.00  0.00     0.001 A 
ATOM     21  C14 <0> d           1.306  -2.958  10.898  0.00  0.00     0.009 A 
ATOM     22  C13 <0> d           1.401  -2.528   9.589  0.00  0.00    -0.035 A 
ATOM     23  C19 <0> d           0.315  -1.666   8.997  0.00  0.00     0.050 C 
ENDBRANCH  14  16
ENDBRANCH   9  12
BRANCH   1  24
ATOM     24  C2  <0> d           1.256  -1.489  -0.702  0.00  0.00     0.127 C 
ATOM     25  C1  <0> d           0.664  -0.097  -0.928  0.00  0.00     0.027 C 
ENDBRANCH   1  24
TORSDOF 3
