REMARK  6 active torsions:
REMARK  status: ('A' for Active; 'I' for Inactive)
REMARK    1  A    between atoms: C2_2  and  C3_3 
REMARK    2  A    between atoms: C3_3  and  C5_5 
REMARK    3  A    between atoms: C5_5  and  C25_30 
REMARK    4  A    between atoms: C8_8  and  C9_10 
REMARK    5  A    between atoms: C12_13  and  O1_17 
REMARK    6  A    between atoms: N2_21  and  C19_24 
ROOT
ATOM      1  C5  <0> d          -0.082   0.606  -2.405  0.00  0.00     0.229 C 
ATOM      2  C6  <0> d          -1.270   0.961  -1.502  0.00  0.00     0.141 C 
ATOM      3  C7  <0> d          -0.433   1.142  -0.175  0.00  0.00     0.130 C 
ATOM      4  C8  <0> d           0.678   2.009  -0.586  0.00  0.00     0.234 C 
ATOM      5  N1  <0> d           0.955   1.613  -2.006  0.00  0.00    -0.046 N 
ATOM      6  C17 <0> d          -1.463   1.040   0.830  0.00  0.00     0.234 C 
ATOM      7  O2  <0> d          -1.524   1.626   1.889  0.00  0.00    -0.272 OA
ATOM      8  N2  <0> d          -2.355   0.138   0.344  0.00  0.00    -0.283 N 
ATOM      9  C18 <0> d          -2.157  -0.136  -0.979  0.00  0.00     0.234 C 
ATOM     10  O3  <0> d          -2.606  -1.072  -1.605  0.00  0.00    -0.272 OA
ATOM     11  H13 <0> d           1.955   1.162  -2.090  0.00  0.00     0.279 HD
ATOM     12  H34 <0> d           0.891   2.488  -2.669  0.00  0.00     0.279 HD
ENDROOT
BRANCH   4  13
ATOM     13  C9  <0> d           0.269   3.458  -0.514  0.00  0.00    -0.026 A 
ATOM     14  C14 <0> d           0.645   4.228   0.571  0.00  0.00     0.019 A 
ATOM     15  C13 <0> d           0.272   5.557   0.639  0.00  0.00    -0.028 A 
ATOM     16  C12 <0> d          -0.481   6.117  -0.383  0.00  0.00     0.077 A 
ATOM     17  C15 <0> d           0.682   6.396   1.821  0.00  0.00     0.051 C 
ATOM     18  C11 <0> d          -0.858   5.342  -1.470  0.00  0.00    -0.028 A 
ATOM     19  C10 <0> d          -0.477   4.016  -1.536  0.00  0.00     0.019 A 
ATOM     20  C16 <0> d          -1.676   5.948  -2.581  0.00  0.00     0.051 C 
BRANCH  16  21
ATOM     21  O1  <0> d          -0.849   7.424  -0.319  0.00  0.00    -0.360 OA
ATOM     22  H19 <0> d          -0.550   8.038   0.544  0.00  0.00     0.217 HD
ENDBRANCH  16  21
ENDBRANCH   4  13
BRANCH   1  23
ATOM     23  C3  <0> d           0.408  -0.816  -2.123  0.00  0.00     0.029 C 
ATOM     24  C4  <0> d           0.080  -1.190  -0.676  0.00  0.00     0.013 C 
BRANCH  23  25
ATOM     25  C2  <0> d          -0.289  -1.792  -3.072  0.00  0.00     0.003 C 
ATOM     26  C1  <0> d           0.316  -3.187  -2.903  0.00  0.00     0.005 C 
ENDBRANCH  23  25
ENDBRANCH   1  23
BRANCH   1  27
ATOM     27  C25 <0> d          -0.446   0.764  -3.858  0.00  0.00     0.212 C 
ATOM     28  O4  <0> d          -1.587   0.591  -4.218  0.00  0.00    -0.646 OA
ATOM     29  O5  <0> d           0.496   1.097  -4.754  0.00  0.00    -0.646 OA
ENDBRANCH   1  27
BRANCH   8  30
ATOM     30  C19 <0> d          -3.416  -0.473   1.149  0.00  0.00     0.096 C 
ATOM     31  C24 <0> d          -2.792  -1.245   2.313  0.00  0.00     0.026 C 
ATOM     32  C23 <0> d          -3.901  -1.883   3.154  0.00  0.00     0.002 C 
ATOM     33  C22 <0> d          -4.819  -0.789   3.701  0.00  0.00     0.000 C 
ATOM     34  C21 <0> d          -5.443  -0.016   2.537  0.00  0.00     0.002 C 
ATOM     35  C20 <0> d          -4.335   0.622   1.696  0.00  0.00     0.026 C 
ENDBRANCH   8  30
TORSDOF 6
