REMARK  3 active torsions:
REMARK  status: ('A' for Active; 'I' for Inactive)
REMARK    1  A    between atoms: C2_3  and  C15_21 
REMARK    2  A    between atoms: C3_4  and  C5_7 
REMARK       I    between atoms: C5_7  and  N3_9 
REMARK    3  A    between atoms: N3_9  and  C6_10 
ROOT
ATOM      1  C5  <0> d           0.040  -3.294  -1.522  0.00  0.00     0.255 C 
ATOM      2  O1  <0> d           0.033  -3.176  -2.732  0.00  0.00    -0.268 OA
ATOM      3  N3  <0> d           0.059  -4.521  -0.965  0.00  0.00    -0.348 N 
ATOM      4  H6  <0> d           0.065  -4.615   0.001  0.00  0.00     0.163 HD
ENDROOT
BRANCH   3   5
ATOM      5  C6  <0> d           0.071  -5.713  -1.817  0.00  0.00     0.123 C 
ATOM      6  C10 <0> d          -1.342  -6.067  -2.205  0.00  0.00    -0.000 A 
ATOM      7  C9  <0> d          -1.783  -7.378  -2.207  0.00  0.00     0.098 A 
ATOM      8  C11 <0> d          -2.208  -5.049  -2.567  0.00  0.00     0.012 A 
ATOM      9  O2  <0> d          -0.969  -8.407  -1.854  0.00  0.00    -0.349 OA
ATOM     10  C14 <0> d          -3.094  -7.664  -2.577  0.00  0.00     0.068 A 
ATOM     11  C8  <0> d           0.439  -8.170  -1.839  0.00  0.00     0.178 C 
ATOM     12  C7  <0> d           0.703  -6.879  -1.052  0.00  0.00     0.057 C 
ATOM     13  C13 <0> d          -3.952  -6.646  -2.937  0.00  0.00     0.026 A 
ATOM     14 Cl1  <0> d          -3.651  -9.308  -2.585  0.00  0.00    -0.081 Cl
ATOM     15  C12 <0> d          -3.509  -5.337  -2.931  0.00  0.00     0.002 A 
ENDBRANCH   3   5
BRANCH   1  16
ATOM     16  C3  <0> d           0.027  -2.095  -0.665  0.00  0.00     0.080 A 
ATOM     17  C2  <0> d           0.008  -0.782  -1.092  0.00  0.00     0.111 A 
ATOM     18  N1  <0> d           0.002  -0.004   0.002  0.00  0.00    -0.272 N 
ATOM     19  C1  <0> d          -0.018   1.461   0.010  0.00  0.00     0.180 C 
ATOM     20  N2  <0> d           0.025  -0.828   1.133  0.00  0.00    -0.184 NA
ATOM     21  C4  <0> d           0.034  -2.074   0.748  0.00  0.00     0.158 A 
BRANCH  17  22
ATOM     22  C15 <0> d          -0.005  -0.310  -2.523  0.00  0.00     0.405 C 
ATOM     23  F1  <0> d           0.638   0.929  -2.611  0.00  0.00    -0.207 F 
ATOM     24  F2  <0> d           0.663  -1.240  -3.327  0.00  0.00    -0.207 F 
ENDBRANCH  17  22
ENDBRANCH   1  16
TORSDOF 3
