REMARK  6 active torsions:
REMARK  status: ('A' for Active; 'I' for Inactive)
REMARK    1  A    between atoms: N1_5  and  C8_11 
REMARK    2  A    between atoms: C8_11  and  C9_12 
REMARK       I    between atoms: C9_12  and  N3_14 
REMARK    3  A    between atoms: N3_14  and  C10_15 
REMARK    4  A    between atoms: C15_20  and  C16_21 
REMARK       I    between atoms: C16_21  and  N4_23 
REMARK    5  A    between atoms: N4_23  and  C17_24 
REMARK    6  A    between atoms: C17_24  and  C18_25 
ROOT
ATOM      1  C1  <0> d           1.098   4.705   0.262  0.00  0.00     0.050 C 
ATOM      2  C2  <0> d           0.420   3.361   0.189  0.00  0.00    -0.034 A 
ATOM      3  C3  <0> d          -0.959   3.252   0.376  0.00  0.00     0.033 A 
ATOM      4  C4  <0> d          -1.562   2.038   0.308  0.00  0.00     0.012 A 
ATOM      5  N1  <0> d          -0.849   0.912   0.060  0.00  0.00    -0.308 N 
ATOM      6  C5  <0> d           0.484   0.962  -0.128  0.00  0.00     0.269 A 
ATOM      7  O1  <0> d           1.109  -0.062  -0.344  0.00  0.00    -0.266 OA
ATOM      8  C6  <0> d           1.159   2.209  -0.067  0.00  0.00     0.118 A 
ATOM      9  C7  <0> d           2.575   2.281  -0.264  0.00  0.00     0.105 C 
ATOM     10  N2  <0> d           3.699   2.339  -0.421  0.00  0.00    -0.191 NA
ATOM     11  C24 <0> d          -3.051   1.939   0.513  0.00  0.00     0.068 C 
ENDROOT
BRANCH   5  12
ATOM     12  C8  <0> d          -1.538  -0.378  -0.004  0.00  0.00     0.235 C 
BRANCH  12  13
ATOM     13  C9  <0> d          -2.083  -0.588  -1.393  0.00  0.00     0.240 C 
ATOM     14  O2  <0> d          -1.913   0.257  -2.245  0.00  0.00    -0.271 OA
ATOM     15  N3  <0> d          -2.761  -1.716  -1.688  0.00  0.00    -0.325 N 
ATOM     16  H7  <0> d          -2.991  -2.442  -0.894  0.00  0.00     0.169 HD
BRANCH  15  17
ATOM     17  C10 <0> d          -3.169  -1.961  -2.997  0.00  0.00     0.050 A 
ATOM     18  C15 <0> d          -4.386  -2.612  -3.245  0.00  0.00     0.058 A 
ATOM     19  C14 <0> d          -4.784  -2.852  -4.563  0.00  0.00     0.019 A 
ATOM     20  C13 <0> d          -3.981  -2.449  -5.607  0.00  0.00     0.001 A 
ATOM     21  C12 <0> d          -2.779  -1.806  -5.358  0.00  0.00     0.002 A 
ATOM     22  C11 <0> d          -2.375  -1.557  -4.062  0.00  0.00     0.030 A 
BRANCH  18  23
ATOM     23  C16 <0> d          -5.242  -3.040  -2.122  0.00  0.00     0.254 C 
ATOM     24  O3  <0> d          -4.852  -2.911  -0.978  0.00  0.00    -0.268 OA
ATOM     25  N4  <0> d          -6.455  -3.574  -2.365  0.00  0.00    -0.352 N 
ATOM     26  H12 <0> d          -6.808  -3.690  -3.400  0.00  0.00     0.163 HD
BRANCH  25  27
ATOM     27  C17 <0> d          -7.304  -3.999  -1.250  0.00  0.00     0.163 C 
BRANCH  27  28
ATOM     28  C18 <0> d          -8.597  -4.557  -1.787  0.00  0.00    -0.019 A 
ATOM     29  C23 <0> d          -9.569  -3.702  -2.276  0.00  0.00     0.044 A 
ATOM     30  C22 <0> d         -10.754  -4.213  -2.773  0.00  0.00     0.066 A 
ATOM     31 Cl1  <0> d          -9.299  -1.987  -2.269  0.00  0.00    -0.084 Cl
ATOM     32  C21 <0> d         -10.971  -5.580  -2.772  0.00  0.00     0.118 A 
ATOM     33  C20 <0> d          -9.999  -6.435  -2.278  0.00  0.00     0.043 A 
ATOM     34  F1  <0> d         -12.130  -6.081  -3.253  0.00  0.00    -0.206 F 
ATOM     35  C19 <0> d          -8.814  -5.922  -1.786  0.00  0.00     0.013 A 
ENDBRANCH  27  28
ENDBRANCH  25  27
ENDBRANCH  18  23
ENDBRANCH  15  17
ENDBRANCH  12  13
ENDBRANCH   5  12
TORSDOF 6
