REMARK  3 active torsions:
REMARK  status: ('A' for Active; 'I' for Inactive)
REMARK    1  A    between atoms: N1_5  and  C5_7 
REMARK    2  A    between atoms: C11_14  and  N4_26 
REMARK    3  A    between atoms: C13_16  and  C14_17 
ROOT
ATOM      1  C1  <0> d          -0.683   1.972  -0.521  0.00  0.00     0.073 C 
ATOM      2  C2  <0> d          -0.629   0.498  -0.209  0.00  0.00     0.062 A 
ATOM      3  C3  <0> d          -0.334  -0.515  -1.114  0.00  0.00     0.031 A 
ATOM      4  C4  <0> d          -0.387  -1.706  -0.447  0.00  0.00     0.177 A 
ATOM      5  N1  <0> d          -0.705  -1.439   0.839  0.00  0.00    -0.211 N 
ATOM      6  N2  <0> d          -0.847  -0.048   0.963  0.00  0.00    -0.170 NA
ATOM      7  O1  <0> d          -0.153  -2.905  -1.043  0.00  0.00    -0.296 OA
ATOM      8  C11 <0> d          -0.205  -2.895  -2.477  0.00  0.00     0.379 C 
ATOM      9  C12 <0> d           0.636  -1.733  -3.015  0.00  0.00     0.165 C 
ATOM     10  C13 <0> d          -0.001  -0.404  -2.582  0.00  0.00     0.080 C 
ATOM     11  C20 <0> d           2.002  -1.823  -2.474  0.00  0.00     0.069 C 
ATOM     12  N3  <0> d           3.057  -1.893  -2.057  0.00  0.00    -0.197 NA
ENDROOT
BRANCH   8  13
ATOM     13  N4  <0> d          -1.598  -2.734  -2.915  0.00  0.00     0.109 N 
ATOM     14  H16 <0> d          -2.173  -3.490  -2.575  0.00  0.00     0.316 HD
ATOM     15  H17 <0> d          -1.966  -1.840  -2.626  0.00  0.00     0.316 HD
ENDBRANCH   8  13
BRANCH  10  16
ATOM     16  C14 <0> d           0.972   0.726  -2.802  0.00  0.00    -0.048 A 
ATOM     17  C19 <0> d           2.045   0.890  -1.946  0.00  0.00     0.009 A 
ATOM     18  C18 <0> d           2.940   1.923  -2.150  0.00  0.00     0.024 A 
ATOM     19  C17 <0> d           2.757   2.798  -3.205  0.00  0.00     0.034 A 
ATOM     20  C16 <0> d           1.680   2.637  -4.058  0.00  0.00     0.024 A 
ATOM     21 Cl1  <0> d           3.878   4.099  -3.459  0.00  0.00    -0.084 Cl
ATOM     22  C15 <0> d           0.788   1.601  -3.856  0.00  0.00     0.009 A 
ENDBRANCH  10  16
BRANCH   5  23
ATOM     23  C5  <0> d          -0.859  -2.381   1.865  0.00  0.00     0.061 A 
ATOM     24  C10 <0> d          -0.474  -2.067   3.162  0.00  0.00     0.031 A 
ATOM     25  C9  <0> d          -0.632  -2.995   4.172  0.00  0.00     0.002 A 
ATOM     26  C8  <0> d          -1.163  -4.241   3.891  0.00  0.00     0.000 A 
ATOM     27  C7  <0> d          -1.543  -4.559   2.600  0.00  0.00     0.002 A 
ATOM     28  C6  <0> d          -1.392  -3.632   1.587  0.00  0.00     0.031 A 
ENDBRANCH   5  23
TORSDOF 3
