REMARK  5 active torsions:
REMARK  status: ('A' for Active; 'I' for Inactive)
REMARK    1  A    between atoms: C2_2  and  C3_3 
REMARK    2  A    between atoms: C2_2  and  N1_12 
REMARK       I    between atoms: N1_12  and  C11_13 
REMARK    3  A    between atoms: C11_13  and  C12_15 
REMARK       I    between atoms: C12_15  and  N2_17 
REMARK    4  A    between atoms: N2_17  and  C13_18 
REMARK    5  A    between atoms: C17_22  and  C19_24 
ROOT
ATOM      1  N1  <0> d           0.686  -0.481  -1.202  0.00  0.00    -0.343 N 
ATOM      2  C11 <0> d           0.004  -0.614  -2.357  0.00  0.00     0.310 C 
ATOM      3  O2  <0> d          -1.179  -0.350  -2.397  0.00  0.00    -0.262 OA
ATOM      4  H10 <0> d           1.632  -0.692  -1.170  0.00  0.00     0.163 HD
ENDROOT
BRANCH   2   5
ATOM      5  C12 <0> d           0.706  -1.088  -3.588  0.00  0.00     0.314 C 
ATOM      6  O3  <0> d           1.889  -1.353  -3.548  0.00  0.00    -0.262 OA
ATOM      7  N2  <0> d           0.024  -1.221  -4.743  0.00  0.00    -0.319 N 
ATOM      8  H11 <0> d          -0.935  -1.075  -4.760  0.00  0.00     0.169 HD
BRANCH   7   9
ATOM      9  C13 <0> d           0.698  -1.571  -5.916  0.00  0.00     0.036 A 
ATOM     10  C18 <0> d           0.289  -1.047  -7.132  0.00  0.00     0.044 A 
ATOM     11  C17 <0> d           0.971  -1.396  -8.301  0.00  0.00     0.011 A 
ATOM     12  C16 <0> d           2.053  -2.279  -8.236  0.00  0.00     0.015 A 
ATOM     13  C15 <0> d           2.446  -2.799  -7.020  0.00  0.00     0.003 A 
ATOM     14  C14 <0> d           1.775  -2.449  -5.863  0.00  0.00     0.029 A 
BRANCH  11  15
ATOM     15  C19 <0> d           0.549  -0.839  -9.597  0.00  0.00     0.155 C 
ATOM     16  O4  <0> d          -0.389  -0.073  -9.650  0.00  0.00    -0.293 OA
ATOM     17  C20 <0> d           1.283  -1.220 -10.856  0.00  0.00     0.096 C 
ENDBRANCH  11  15
ENDBRANCH   7   9
ENDBRANCH   2   5
BRANCH   1  18
ATOM     18  C2  <0> d          -0.001  -0.016   0.005  0.00  0.00     0.138 C 
ATOM     19  C1  <0> d          -0.033   1.513   0.018  0.00  0.00     0.039 C 
BRANCH  18  20
ATOM     20  C3  <0> d           0.732  -0.513   1.224  0.00  0.00     0.077 A 
ATOM     21  O1  <0> d           2.070  -0.564   1.350  0.00  0.00    -0.312 OA
ATOM     22  C10 <0> d           2.421  -1.052   2.556  0.00  0.00     0.086 A 
ATOM     23  C5  <0> d           1.235  -1.345   3.250  0.00  0.00     0.000 A 
ATOM     24  C9  <0> d           3.643  -1.297   3.170  0.00  0.00     0.038 A 
ATOM     25  C4  <0> d           0.146  -0.975   2.337  0.00  0.00     0.049 A 
ATOM     26  C6  <0> d           1.289  -1.875   4.538  0.00  0.00     0.014 A 
ATOM     27  C7  <0> d           2.502  -2.108   5.124  0.00  0.00     0.001 A 
ATOM     28  C8  <0> d           3.677  -1.821   4.445  0.00  0.00     0.003 A 
ENDBRANCH  18  20
ENDBRANCH   1  18
TORSDOF 5
