REMARK  2 active torsions:
REMARK  status: ('A' for Active; 'I' for Inactive)
REMARK    1  A    between atoms: C5_5  and  N2_15 
REMARK    2  A    between atoms: C6_6  and  N1_8 
ROOT
ATOM      1  C1  <0> d           1.773   1.559  -0.631  0.00  0.00     0.010 C 
ATOM      2  C2  <0> d           1.095   0.207  -0.394  0.00  0.00    -0.016 C 
ATOM      3  C3  <0> d          -0.350   0.434   0.055  0.00  0.00     0.006 C 
ATOM      4  C4  <0> d          -1.027  -0.917   0.293  0.00  0.00     0.035 C 
ATOM      5  C5  <0> d          -0.270  -1.683   1.379  0.00  0.00     0.216 C 
ATOM      6  C6  <0> d           1.175  -1.910   0.931  0.00  0.00     0.219 C 
ATOM      7  C7  <0> d           1.853  -0.559   0.693  0.00  0.00     0.039 C 
ENDROOT
BRANCH   6   8
ATOM      8  N1  <0> d           1.902  -2.645   1.974  0.00  0.00    -0.061 N 
ATOM      9  C12 <0> d           1.717  -4.087   1.773  0.00  0.00     0.184 C 
ATOM     10  C11 <0> d           2.538  -4.860   2.808  0.00  0.00     0.033 C 
ATOM     11  C13 <0> d           2.182  -4.469   0.366  0.00  0.00     0.040 C 
ATOM     12  C10 <0> d           2.069  -4.475   4.214  0.00  0.00     0.004 C 
ATOM     13  C9  <0> d           2.197  -2.959   4.386  0.00  0.00     0.028 C 
ATOM     14  C8  <0> d           1.389  -2.257   3.293  0.00  0.00     0.236 C 
ATOM     15  H29 <0> d           2.885  -2.422   1.919  0.00  0.00     0.280 HD
ENDBRANCH   6   8
BRANCH   5  16
ATOM     16  N2  <0> d          -0.921  -2.981   1.608  0.00  0.00    -0.073 N 
ATOM     17  C14 <0> d          -2.317  -2.764   2.010  0.00  0.00     0.267 C 
ATOM     18  H25 <0> d          -0.896  -3.523   0.757  0.00  0.00     0.277 HD
ATOM     19  H30 <0> d          -0.433  -3.477   2.338  0.00  0.00     0.277 HD
ENDBRANCH   5  16
TORSDOF 2
