REMARK  2 active torsions:
REMARK  status: ('A' for Active; 'I' for Inactive)
REMARK    1  A    between atoms: C12_16  and  C13_17 
REMARK       I    between atoms: C13_17  and  N3_19 
REMARK    2  A    between atoms: N3_19  and  N4_20 
ROOT
ATOM      1  C13 <0> d           3.118   5.725  -6.400  0.00  0.00     0.278 C 
ATOM      2  O2  <0> d           2.919   6.885  -6.092  0.00  0.00    -0.265 OA
ATOM      3  N3  <0> d           3.535   5.420  -7.644  0.00  0.00    -0.252 N 
ATOM      4  H14 <0> d           3.716   4.371  -7.922  0.00  0.00     0.191 HD
ENDROOT
BRANCH   1   5
ATOM      5  C12 <0> d           2.903   4.659  -5.416  0.00  0.00     0.083 A 
ATOM      6  C2  <0> d           2.487   4.766  -4.122  0.00  0.00    -0.021 A 
ATOM      7  C1  <0> d           2.184   6.121  -3.535  0.00  0.00     0.051 C 
ATOM      8  C3  <0> d           2.342   3.617  -3.341  0.00  0.00     0.075 A 
ATOM      9  C6  <0> d           1.906   3.492  -1.931  0.00  0.00     0.262 A 
ATOM     10  C4  <0> d           2.653   2.395  -3.980  0.00  0.00     0.116 A 
ATOM     11  N2  <0> d           1.835   2.264  -1.391  0.00  0.00    -0.301 N 
ATOM     12  O1  <0> d           1.617   4.479  -1.278  0.00  0.00    -0.267 OA
ATOM     13  C5  <0> d           2.164   1.152  -2.110  0.00  0.00     0.110 A 
ATOM     14  C7  <0> d           1.397   2.086  -0.000  0.00  0.00     0.133 C 
ATOM     15  N1  <0> d           2.558   1.231  -3.350  0.00  0.00    -0.227 NA
ATOM     16  C11 <0> d           2.058  -0.193  -1.428  0.00  0.00     0.079 C 
ATOM     17  C10 <0> d           0.583  -0.563  -1.285  0.00  0.00     0.008 C 
ATOM     18  C9  <0> d           0.002  -0.004   0.002  0.00  0.00     0.002 C 
ATOM     19  C8  <0> d          -0.018   1.515   0.010  0.00  0.00     0.020 C 
ATOM     20  S1  <0> d           3.121   2.898  -5.616  0.00  0.00    -0.063 SA
ENDBRANCH   1   5
BRANCH   3  21
ATOM     21  N4  <0> d           3.740   6.438  -8.584  0.00  0.00    -0.167 N 
ATOM     22  C21 <0> d           2.756   7.087  -9.217  0.00  0.00     0.345 A 
ATOM     23  N5  <0> d           3.220   8.023 -10.067  0.00  0.00    -0.323 N 
ATOM     24  O4  <0> d           1.575   6.858  -9.044  0.00  0.00    -0.245 OA
ATOM     25  C15 <0> d           4.685   7.971  -9.982  0.00  0.00     0.117 A 
ATOM     26  H25 <0> d           2.734   8.744 -10.741  0.00  0.00     0.165 HD
ATOM     27  C14 <0> d           4.955   6.883  -8.967  0.00  0.00     0.275 A 
ATOM     28  C20 <0> d           5.241   9.304  -9.493  0.00  0.00     0.041 C 
ATOM     29  C16 <0> d           5.286   7.598 -11.332  0.00  0.00     0.041 C 
ATOM     30  O3  <0> d           6.035   6.493  -8.579  0.00  0.00    -0.268 OA
ATOM     31  C19 <0> d           4.933  10.396 -10.520  0.00  0.00     0.003 C 
ATOM     32  C18 <0> d           5.564  10.023 -11.863  0.00  0.00     0.000 C 
ATOM     33  C17 <0> d           4.978   8.697 -12.352  0.00  0.00     0.003 C 
ENDBRANCH   3  21
TORSDOF 2
