REMARK  5 active torsions:
REMARK  status: ('A' for Active; 'I' for Inactive)
REMARK    1  A    between atoms: C2_2  and  N1_5 
REMARK       I    between atoms: N1_5  and  C5_6 
REMARK    2  A    between atoms: C5_6  and  C6_8 
REMARK    3  A    between atoms: C11_13  and  N2_14 
REMARK    4  A    between atoms: N2_14  and  C12_15 
REMARK       I    between atoms: N3_17  and  C13_18 
REMARK    5  A    between atoms: C13_18  and  C14_20 
ROOT
ATOM      1  C6  <0> d           4.736   0.931  -0.224  0.00  0.00     0.058 A 
ATOM      2  C7  <0> d           5.952   1.609  -0.332  0.00  0.00     0.019 A 
ATOM      3  C8  <0> d           5.974   2.987  -0.318  0.00  0.00     0.001 A 
ATOM      4  C9  <0> d           4.795   3.705  -0.197  0.00  0.00     0.002 A 
ATOM      5  C10 <0> d           3.586   3.049  -0.095  0.00  0.00     0.030 A 
ATOM      6  C11 <0> d           3.544   1.661  -0.102  0.00  0.00     0.050 A 
ENDROOT
BRANCH   6   7
ATOM      7  N2  <0> d           2.325   0.997   0.007  0.00  0.00    -0.332 N 
ATOM      8  H15 <0> d           2.228   0.261   0.630  0.00  0.00     0.168 HD
BRANCH   7   9
ATOM      9  C12 <0> d           1.280   1.378  -0.754  0.00  0.00     0.179 C 
ATOM     10  S1  <0> d           1.414   2.754  -1.765  0.00  0.00    -0.040 SA
ATOM     11  N3  <0> d           0.130   0.677  -0.720  0.00  0.00    -0.298 N 
ATOM     12  C13 <0> d          -0.913   1.054  -1.485  0.00  0.00     0.281 C 
ATOM     13  H16 <0> d           0.054  -0.103  -0.147  0.00  0.00     0.171 HD
ATOM     14  O2  <0> d          -0.818   2.032  -2.203  0.00  0.00    -0.265 OA
BRANCH  12  15
ATOM     15  C14 <0> d          -2.161   0.288  -1.452  0.00  0.00     0.144 A 
ATOM     16  O3  <0> d          -2.396  -0.813  -0.709  0.00  0.00    -0.298 OA
ATOM     17  C17 <0> d          -3.645  -1.242  -0.932  0.00  0.00     0.122 A 
ATOM     18  C16 <0> d          -4.231  -0.422  -1.835  0.00  0.00     0.048 A 
ATOM     19 Br1  <0> d          -4.454  -2.748  -0.124  0.00  0.00    -0.023 Br
ATOM     20  C15 <0> d          -3.289   0.560  -2.174  0.00  0.00     0.046 A 
ENDBRANCH  12  15
ENDBRANCH   7   9
ENDBRANCH   6   7
BRANCH   1  21
ATOM     21  C5  <0> d           4.704  -0.543  -0.240  0.00  0.00     0.254 C 
ATOM     22  N1  <0> d           5.857  -1.242  -0.246  0.00  0.00    -0.349 N 
ATOM     23  H10 <0> d           6.707  -0.775  -0.240  0.00  0.00     0.163 HD
ATOM     24  O1  <0> d           3.639  -1.129  -0.247  0.00  0.00    -0.268 OA
BRANCH  22  25
ATOM     25  C2  <0> d           5.826  -2.707  -0.261  0.00  0.00     0.022 C 
ATOM     26  C1  <0> d           5.095  -3.188  -1.516  0.00  0.00     0.037 C 
ATOM     27  C3  <0> d           7.257  -3.247  -0.265  0.00  0.00     0.037 C 
ATOM     28  C4  <0> d           5.093  -3.214   0.982  0.00  0.00     0.037 C 
ENDBRANCH  22  25
ENDBRANCH   1  21
TORSDOF 5
