REMARK  4 active torsions:
REMARK  status: ('A' for Active; 'I' for Inactive)
REMARK    1  A    between atoms: C2_2  and  C3_3 
REMARK    2  A    between atoms: C6_6  and  C7_7 
REMARK    3  A    between atoms: C16_17  and  C20_24 
REMARK    4  A    between atoms: C18_19  and  N1_21 
ROOT
ATOM      1  C3  <0> d          -1.732  -0.240  -0.512  0.00  0.00    -0.006 C 
ATOM      2  C4  <0> d          -2.204   0.086   0.912  0.00  0.00     0.046 C 
ATOM      3  C5  <0> d          -3.564  -0.556   1.083  0.00  0.00    -0.023 C 
ATOM      4  C6  <0> d          -4.560   0.093   1.712  0.00  0.00     0.024 C 
ATOM      5  C13 <0> d          -3.769  -1.913   0.539  0.00  0.00     0.087 C 
ATOM      6  C14 <0> d          -2.861  -2.466  -0.265  0.00  0.00    -0.031 C 
ATOM      7  C15 <0> d          -1.591  -1.752  -0.652  0.00  0.00     0.043 C 
ATOM      8  C16 <0> d          -3.084  -3.852  -0.826  0.00  0.00     0.101 C 
ATOM      9  C17 <0> d          -4.534  -4.233  -0.727  0.00  0.00     0.086 C 
ATOM     10  C18 <0> d          -5.364  -3.574   0.121  0.00  0.00     0.159 C 
ATOM     11  O1  <0> d          -4.906  -2.569   0.886  0.00  0.00    -0.292 OA
ATOM     12  C19 <0> d          -5.044  -5.300  -1.534  0.00  0.00     0.100 C 
ATOM     13  N2  <0> d          -5.449  -6.146  -2.174  0.00  0.00    -0.191 NA
ENDROOT
BRANCH   8  14
ATOM     14  C20 <0> d          -2.256  -4.843  -0.049  0.00  0.00    -0.006 A 
ATOM     15  C25 <0> d          -1.297  -5.602  -0.696  0.00  0.00     0.123 A 
ATOM     16  C24 <0> d          -0.533  -6.508   0.021  0.00  0.00     0.043 A 
ATOM     17  F2  <0> d          -1.101  -5.455  -2.025  0.00  0.00    -0.206 F 
ATOM     18  C23 <0> d          -0.737  -6.661   1.379  0.00  0.00     0.003 A 
ATOM     19  C22 <0> d          -1.700  -5.906   2.023  0.00  0.00     0.001 A 
ATOM     20  C21 <0> d          -2.459  -4.998   1.310  0.00  0.00     0.011 A 
ENDBRANCH   8  14
BRANCH  10  21
ATOM     21  N1  <0> d          -6.685  -3.938   0.197  0.00  0.00    -0.379 N 
ATOM     22  H17 <0> d          -7.021  -4.663  -0.353  0.00  0.00     0.158 HD
ATOM     23  H18 <0> d          -7.283  -3.471   0.801  0.00  0.00     0.158 HD
ENDBRANCH  10  21
BRANCH   1  24
ATOM     24  C2  <0> d          -0.379   0.427  -0.769  0.00  0.00     0.001 C 
ATOM     25  C1  <0> d          -0.548   1.948  -0.744  0.00  0.00     0.005 C 
ENDBRANCH   1  24
BRANCH   4  26
ATOM     26  C7  <0> d          -4.292   1.373   2.389  0.00  0.00     0.003 A 
ATOM     27  C12 <0> d          -5.261   2.384   2.392  0.00  0.00     0.126 A 
ATOM     28  C11 <0> d          -5.003   3.580   3.034  0.00  0.00     0.043 A 
ATOM     29  F1  <0> d          -6.446   2.188   1.773  0.00  0.00    -0.205 F 
ATOM     30  C10 <0> d          -3.787   3.783   3.663  0.00  0.00     0.003 A 
ATOM     31  C9  <0> d          -2.823   2.789   3.659  0.00  0.00     0.001 A 
ATOM     32  C8  <0> d          -3.067   1.588   3.027  0.00  0.00     0.014 A 
ENDBRANCH   4  26
TORSDOF 4
