REMARK  6 active torsions:
REMARK  status: ('A' for Active; 'I' for Inactive)
REMARK    1  A    between atoms: N1_2  and  C3_4 
REMARK    2  A    between atoms: C3_4  and  C4_5 
REMARK    3  A    between atoms: C4_5  and  N2_6 
REMARK    4  A    between atoms: C11_14  and  C13_17 
REMARK    5  A    between atoms: C13_17  and  C14_18 
REMARK    6  A    between atoms: C18_22  and  N3_24 
ROOT
ATOM      1  N2  <0> d           0.637  -0.589   3.635  0.00  0.00    -0.312 N 
ATOM      2  C5  <0> d           0.373  -1.867   4.145  0.00  0.00     0.070 A 
ATOM      3  C6  <0> d          -0.710  -2.599   3.685  0.00  0.00     0.033 A 
ATOM      4  C7  <0> d          -0.965  -3.853   4.209  0.00  0.00     0.002 A 
ATOM      5  C8  <0> d          -0.143  -4.377   5.190  0.00  0.00     0.003 A 
ATOM      6  C9  <0> d           0.942  -3.654   5.650  0.00  0.00     0.039 A 
ATOM      7  C10 <0> d           1.207  -2.400   5.125  0.00  0.00     0.096 A 
ATOM      8  O1  <0> d           2.289  -1.692   5.547  0.00  0.00    -0.334 OA
ATOM      9  C11 <0> d           2.174  -0.268   5.545  0.00  0.00     0.225 C 
ATOM     10  C12 <0> d           1.557   0.188   4.246  0.00  0.00     0.254 C 
ATOM     11  O2  <0> d           1.882   1.248   3.756  0.00  0.00    -0.270 OA
ENDROOT
BRANCH   9  12
ATOM     12  C13 <0> d           1.291   0.173   6.715  0.00  0.00     0.080 C 
BRANCH  12  13
ATOM     13  C14 <0> d           1.972  -0.171   8.015  0.00  0.00    -0.053 A 
ATOM     14  C19 <0> d           2.820   0.742   8.612  0.00  0.00     0.036 A 
ATOM     15  C18 <0> d           3.442   0.426   9.813  0.00  0.00     0.026 A 
ATOM     16  C17 <0> d           3.218  -0.810  10.404  0.00  0.00     0.029 A 
ATOM     17  C16 <0> d           2.373  -1.720   9.799  0.00  0.00     0.003 A 
ATOM     18  C15 <0> d           1.751  -1.401   8.606  0.00  0.00     0.007 A 
BRANCH  15  19
ATOM     19  N3  <0> d           4.296   1.349  10.422  0.00  0.00    -0.399 N 
ATOM     20  H22 <0> d           4.733   1.126  11.259  0.00  0.00     0.156 HD
ATOM     21  H23 <0> d           4.452   2.212  10.008  0.00  0.00     0.156 HD
ENDBRANCH  15  19
ENDBRANCH  12  13
ENDBRANCH   9  12
BRANCH   1  22
ATOM     22  C4  <0> d          -0.071  -0.103   2.448  0.00  0.00     0.160 C 
BRANCH  22  23
ATOM     23  C3  <0> d           0.713  -0.491   1.192  0.00  0.00     0.254 C 
BRANCH  23  24
ATOM     24  N1  <0> d           0.002  -0.004   0.002  0.00  0.00    -0.077 N 
ATOM     25  C1  <0> d          -0.018   1.465   0.010  0.00  0.00     0.269 C 
ATOM     26  C2  <0> d           0.690  -0.478  -1.207  0.00  0.00     0.269 C 
ATOM     27  H24 <0> d          -0.945  -0.353   0.009  0.00  0.00     0.279 HD
ENDBRANCH  23  24
ENDBRANCH  22  23
ENDBRANCH   1  22
TORSDOF 6
