REMARK  5 active torsions:
REMARK  status: ('A' for Active; 'I' for Inactive)
REMARK    1  A    between atoms: C2_2  and  C3_3 
REMARK    2  A    between atoms: C3_3  and  N1_4 
REMARK    3  A    between atoms: N2_7  and  C8_10 
REMARK    4  A    between atoms: C11_13  and  N3_16 
REMARK    5  A    between atoms: N3_16  and  C14_17 
ROOT
ATOM      1  C8  <0> d           2.877  -5.492  -1.455  0.00  0.00     0.030 A 
ATOM      2  C9  <0> d           3.540  -5.938  -0.319  0.00  0.00     0.031 A 
ATOM      3  C10 <0> d           4.486  -6.939  -0.419  0.00  0.00     0.032 A 
ATOM      4  C11 <0> d           4.774  -7.500  -1.656  0.00  0.00     0.049 A 
ATOM      5  C12 <0> d           4.112  -7.054  -2.792  0.00  0.00     0.032 A 
ATOM      6  C13 <0> d           3.162  -6.057  -2.691  0.00  0.00     0.031 A 
ENDROOT
BRANCH   4   7
ATOM      7  N3  <0> d           5.734  -8.515  -1.758  0.00  0.00    -0.190 N 
ATOM      8  H21 <0> d           6.298  -8.572  -2.545  0.00  0.00     0.184 HD
BRANCH   7   9
ATOM      9  C14 <0> d           5.877  -9.427  -0.746  0.00  0.00     0.708 A 
ATOM     10  N5  <0> d           5.039  -9.415   0.262  0.00  0.00    -0.068 NA
ATOM     11  C17 <0> d           5.117 -10.286   1.287  0.00  0.00     0.075 A 
ATOM     12  C16 <0> d           6.108 -11.211   1.291  0.00  0.00     0.046 A 
ATOM     13  C18 <0> d           4.149 -10.299   2.472  0.00  0.00     0.134 C 
ATOM     14  C15 <0> d           7.022 -11.225   0.204  0.00  0.00     0.268 A 
ATOM     15  C19 <0> d           6.160 -12.174   2.477  0.00  0.00     0.120 C 
ATOM     16  N4  <0> d           6.891 -10.334  -0.794  0.00  0.00    -0.154 N 
ATOM     17  O1  <0> d           7.926 -12.044   0.177  0.00  0.00    -0.267 OA
ATOM     18  H1  <0> d           7.512 -10.337  -1.539  0.00  0.00     0.187 HD
ATOM     19  S1  <0> d           4.491 -11.946   3.217  0.00  0.00    -0.158 SA
ENDBRANCH   7   9
ENDBRANCH   4   7
BRANCH   1  20
ATOM     20  N2  <0> d           1.919  -4.478  -1.353  0.00  0.00    -0.378 N 
ATOM     21  C5  <0> d           1.513  -3.949  -0.041  0.00  0.00     0.150 C 
ATOM     22  C4  <0> d           1.603  -2.420  -0.085  0.00  0.00     0.254 C 
ATOM     23  N1  <0> d           0.809  -1.917  -1.214  0.00  0.00    -0.068 N 
ATOM     24  C7  <0> d           1.388  -2.383  -2.480  0.00  0.00     0.254 C 
ATOM     25  H26 <0> d          -0.138  -2.256  -1.133  0.00  0.00     0.280 HD
ATOM     26  C6  <0> d           1.288  -3.910  -2.554  0.00  0.00     0.150 C 
BRANCH  23  27
ATOM     27  C3  <0> d           0.806  -0.448  -1.190  0.00  0.00     0.234 C 
BRANCH  27  28
ATOM     28  C2  <0> d           0.090   0.040   0.071  0.00  0.00     0.023 C 
ATOM     29  C1  <0> d           0.087   1.570   0.096  0.00  0.00     0.007 C 
ENDBRANCH  27  28
ENDBRANCH  23  27
ENDBRANCH   1  20
TORSDOF 5
