REMARK  2 active torsions:
REMARK  status: ('A' for Active; 'I' for Inactive)
REMARK    1  A    between atoms: N1_7  and  S1_8 
REMARK    2  A    between atoms: S1_8  and  C7_11 
ROOT
ATOM      1  C7  <0> d           3.234   2.171   2.226  0.00  0.00     0.082 A 
ATOM      2  C8  <0> d           4.593   2.042   2.009  0.00  0.00     0.028 A 
ATOM      3  C9  <0> d           5.386   1.377   2.927  0.00  0.00     0.040 A 
ATOM      4  C10 <0> d           4.816   0.839   4.067  0.00  0.00     0.096 A 
ATOM      5  C11 <0> d           3.445   0.969   4.286  0.00  0.00     0.070 A 
ATOM      6  C12 <0> d           2.658   1.641   3.365  0.00  0.00     0.057 A 
ATOM      7  N2  <0> d           2.880   0.417   5.445  0.00  0.00    -0.323 N 
ATOM      8  C13 <0> d           3.693   0.059   6.462  0.00  0.00     0.246 C 
ATOM      9  O3  <0> d           3.230  -0.447   7.463  0.00  0.00    -0.271 OA
ATOM     10  C14 <0> d           5.178   0.292   6.350  0.00  0.00     0.278 C 
ATOM     11  O4  <0> d           5.580   0.184   4.982  0.00  0.00    -0.340 OA
ATOM     12  H16 <0> d           1.921   0.295   5.515  0.00  0.00     0.169 HD
ENDROOT
BRANCH   1  13
ATOM     13  S1  <0> d           2.233   3.021   1.050  0.00  0.00     0.261 S 
ATOM     14  O1  <0> d           3.119   3.772   0.231  0.00  0.00    -0.200 OA
ATOM     15  O2  <0> d           1.174   3.625   1.780  0.00  0.00    -0.200 OA
BRANCH  13  16
ATOM     16  N1  <0> d           1.543   1.875   0.075  0.00  0.00    -0.302 N 
ATOM     17  C2  <0> d           2.296   1.293  -1.045  0.00  0.00     0.092 C 
ATOM     18  C1  <0> d           3.630   2.026  -1.202  0.00  0.00     0.033 C 
ATOM     19  C3  <0> d           1.472   1.448  -2.327  0.00  0.00     0.026 C 
ATOM     20  C4  <0> d           0.086   0.834  -2.115  0.00  0.00     0.004 C 
ATOM     21  C5  <0> d          -0.634   1.573  -0.985  0.00  0.00     0.021 C 
ATOM     22  C6  <0> d           0.167   1.420   0.312  0.00  0.00     0.136 C 
ENDBRANCH  13  16
ENDBRANCH   1  13
TORSDOF 2
