REMARK  5 active torsions:
REMARK  status: ('A' for Active; 'I' for Inactive)
REMARK    1  A    between atoms: C3_3  and  S1_8 
REMARK    2  A    between atoms: S1_8  and  N2_11 
REMARK    3  A    between atoms: C8_14  and  C11_17 
REMARK       I    between atoms: C11_17  and  N3_19 
REMARK    4  A    between atoms: N3_19  and  C12_20 
REMARK    5  A    between atoms: N5_23  and  C15_25 
ROOT
ATOM      1  N2  <0> d           1.570  -0.091  -3.285  0.00  0.00    -0.307 N 
ATOM      2  C6  <0> d           2.270   1.187  -3.093  0.00  0.00     0.136 C 
ATOM      3  C7  <0> d           3.570   0.926  -2.326  0.00  0.00     0.034 C 
ATOM      4  C8  <0> d           4.389  -0.135  -3.063  0.00  0.00     0.081 C 
ATOM      5  C9  <0> d           3.595  -1.442  -3.126  0.00  0.00     0.034 C 
ATOM      6  C10 <0> d           2.298  -1.210  -3.897  0.00  0.00     0.136 C 
ENDROOT
BRANCH   4   7
ATOM      7  C11 <0> d           5.684  -0.369  -2.329  0.00  0.00     0.226 C 
ATOM      8  O4  <0> d           5.928   0.251  -1.316  0.00  0.00    -0.273 OA
ATOM      9  N3  <0> d           6.572  -1.269  -2.799  0.00  0.00    -0.324 N 
ATOM     10  H16 <0> d           6.377  -1.765  -3.609  0.00  0.00     0.169 HD
BRANCH   9  11
ATOM     11  C12 <0> d           7.782  -1.487  -2.113  0.00  0.00     0.071 A 
ATOM     12  C14 <0> d           8.759  -2.358  -2.473  0.00  0.00     0.143 A 
ATOM     13  N5  <0> d           9.752  -2.263  -1.553  0.00  0.00    -0.275 N 
ATOM     14  N4  <0> d           9.366  -1.313  -0.599  0.00  0.00    -0.183 NA
ATOM     15  C13 <0> d           8.190  -0.849  -0.933  0.00  0.00     0.169 A 
BRANCH  13  16
ATOM     16  C15 <0> d          11.005  -3.024  -1.554  0.00  0.00     0.101 C 
ATOM     17  C16 <0> d          10.778  -4.381  -0.884  0.00  0.00     0.034 C 
ATOM     18  C17 <0> d          11.470  -3.239  -2.995  0.00  0.00     0.034 C 
ENDBRANCH  13  16
ENDBRANCH   9  11
ENDBRANCH   4   7
BRANCH   1  19
ATOM     19  S1  <0> d          -0.008  -0.267  -2.813  0.00  0.00     0.265 S 
ATOM     20  O2  <0> d          -0.547  -1.328  -3.589  0.00  0.00    -0.200 OA
ATOM     21  O3  <0> d          -0.577   1.035  -2.802  0.00  0.00    -0.200 OA
BRANCH  19  22
ATOM     22  C3  <0> d           0.008  -0.824  -1.141  0.00  0.00     0.137 A 
ATOM     23  C2  <0> d           0.002  -0.004   0.002  0.00  0.00     0.084 A 
ATOM     24  C1  <0> d          -0.018   1.503   0.010  0.00  0.00     0.074 C 
ATOM     25  N1  <0> d           0.023  -0.775   1.052  0.00  0.00    -0.132 NA
ATOM     26  O1  <0> d           0.034  -2.119   0.606  0.00  0.00    -0.216 OA
ATOM     27  C4  <0> d           0.027  -2.108  -0.735  0.00  0.00     0.100 A 
ATOM     28  C5  <0> d           0.039  -3.320  -1.631  0.00  0.00     0.081 C 
ENDBRANCH  19  22
ENDBRANCH   1  19
TORSDOF 5
