REMARK  5 active torsions:
REMARK  status: ('A' for Active; 'I' for Inactive)
REMARK    1  A    between atoms: N3_9  and  C7_12 
REMARK    2  A    between atoms: C7_12  and  C8_13 
REMARK       I    between atoms: C8_13  and  N5_15 
REMARK    3  A    between atoms: N5_15  and  C9_16 
REMARK    4  A    between atoms: C9_16  and  C10_17 
REMARK    5  A    between atoms: C13_20  and  C14_22 
ROOT
ATOM      1  C8  <0> d           1.147   1.655  -0.000  0.00  0.00     0.236 C 
ATOM      2  O2  <0> d           1.130   2.868   0.007  0.00  0.00    -0.272 OA
ATOM      3  N5  <0> d          -0.011   0.966   0.007  0.00  0.00    -0.354 N 
ATOM      4  H8  <0> d           0.002  -0.004   0.002  0.00  0.00     0.162 HD
ENDROOT
BRANCH   3   5
ATOM      5  C9  <0> d          -1.290   1.681   0.017  0.00  0.00     0.187 C 
BRANCH   5   6
ATOM      6  C10 <0> d          -2.422   0.686   0.017  0.00  0.00     0.071 A 
ATOM      7  O3  <0> d          -3.019   0.180  -1.074  0.00  0.00    -0.313 OA
ATOM      8  C13 <0> d          -3.985  -0.680  -0.697  0.00  0.00     0.086 A 
ATOM      9  C12 <0> d          -4.012  -0.717   0.661  0.00  0.00     0.040 A 
ATOM     10  C11 <0> d          -3.006   0.162   1.112  0.00  0.00     0.037 A 
BRANCH   8  11
ATOM     11  C14 <0> d          -4.866  -1.446  -1.603  0.00  0.00    -0.002 A 
ATOM     12  C19 <0> d          -4.732  -1.315  -2.987  0.00  0.00     0.016 A 
ATOM     13  C18 <0> d          -5.558  -2.032  -3.828  0.00  0.00     0.024 A 
ATOM     14  C17 <0> d          -6.517  -2.881  -3.302  0.00  0.00     0.034 A 
ATOM     15  C16 <0> d          -6.654  -3.015  -1.931  0.00  0.00     0.024 A 
ATOM     16 Cl1  <0> d          -7.551  -3.781  -4.367  0.00  0.00    -0.084 Cl
ATOM     17  C15 <0> d          -5.832  -2.307  -1.080  0.00  0.00     0.016 A 
ENDBRANCH   8  11
ENDBRANCH   5   6
ENDBRANCH   3   5
BRANCH   1  18
ATOM     18  C7  <0> d           2.462   0.920  -0.017  0.00  0.00     0.235 C 
BRANCH  18  19
ATOM     19  N3  <0> d           3.562   1.887  -0.022  0.00  0.00    -0.299 N 
ATOM     20  C5  <0> d           4.080   2.325   1.150  0.00  0.00     0.264 A 
ATOM     21  C3  <0> d           5.177   3.291   1.084  0.00  0.00     0.099 A 
ATOM     22  O1  <0> d           3.648   1.931   2.218  0.00  0.00    -0.267 OA
ATOM     23  C2  <0> d           5.623   3.700  -0.182  0.00  0.00     0.164 A 
ATOM     24  C4  <0> d           5.959   3.965   2.041  0.00  0.00     0.160 A 
ATOM     25  N1  <0> d           6.632   4.585   0.029  0.00  0.00    -0.256 N 
ATOM     26  N4  <0> d           5.034   3.197  -1.278  0.00  0.00    -0.224 NA
ATOM     27  C1  <0> d           7.401   5.274  -1.010  0.00  0.00     0.182 C 
ATOM     28  N2  <0> d           6.812   4.725   1.411  0.00  0.00    -0.182 NA
ATOM     29  C6  <0> d           4.062   2.335  -1.201  0.00  0.00     0.215 A 
ENDBRANCH  18  19
ENDBRANCH   1  18
TORSDOF 5
