REMARK  7 active torsions:
REMARK  status: ('A' for Active; 'I' for Inactive)
REMARK    1  A    between atoms: C5_5  and  S1_8 
REMARK    2  A    between atoms: S1_8  and  O3_11 
REMARK    3  A    between atoms: O3_11  and  C8_12 
REMARK    4  A    between atoms: C13_17  and  C14_18 
REMARK    5  A    between atoms: C14_18  and  N1_19 
REMARK    6  A    between atoms: N1_19  and  N2_20 
REMARK    7  A    between atoms: N2_20  and  C15_21 
ROOT
ATOM      1  C8  <0> d           1.239   3.231   0.002  0.00  0.00     0.101 A 
ATOM      2  C9  <0> d           2.434   3.931   0.000  0.00  0.00     0.040 A 
ATOM      3  C10 <0> d           3.637   3.249  -0.015  0.00  0.00     0.022 A 
ATOM      4  C11 <0> d           3.656   1.864  -0.023  0.00  0.00     0.011 A 
ATOM      5  C12 <0> d           2.475   1.152  -0.015  0.00  0.00     0.034 A 
ATOM      6  C13 <0> d           1.254   1.830  -0.000  0.00  0.00     0.019 A 
ATOM      7 Br1  <0> d           5.309   0.946  -0.043  0.00  0.00    -0.051 Br
ENDROOT
BRANCH   1   8
ATOM      8  O3  <0> d           0.057   3.901   0.011  0.00  0.00    -0.228 OA
BRANCH   8   9
ATOM      9  S1  <0> d          -0.472   4.204   1.405  0.00  0.00     0.303 S 
ATOM     10  O1  <0> d          -1.789   4.709   1.239  0.00  0.00    -0.193 OA
ATOM     11  O2  <0> d          -0.188   3.064   2.204  0.00  0.00    -0.193 OA
BRANCH   9  12
ATOM     12  C5  <0> d           0.496   5.526   2.054  0.00  0.00     0.086 A 
ATOM     13  C4  <0> d           0.106   6.836   1.844  0.00  0.00     0.026 A 
ATOM     14  C3  <0> d           0.866   7.873   2.352  0.00  0.00     0.008 A 
ATOM     15  C2  <0> d           2.014   7.601   3.071  0.00  0.00    -0.062 A 
ATOM     16  C1  <0> d           2.842   8.732   3.625  0.00  0.00     0.048 C 
ATOM     17  C7  <0> d           2.404   6.291   3.281  0.00  0.00     0.008 A 
ATOM     18  C6  <0> d           1.643   5.254   2.776  0.00  0.00     0.026 A 
ENDBRANCH   9  12
ENDBRANCH   8   9
ENDBRANCH   1   8
BRANCH   6  19
ATOM     19  C14 <0> d          -0.013   1.076   0.008  0.00  0.00     0.153 C 
BRANCH  19  20
ATOM     20  N1  <0> d          -1.145   1.709   0.017  0.00  0.00    -0.184 NA
BRANCH  20  21
ATOM     21  N2  <0> d          -2.349   0.993   0.019  0.00  0.00    -0.254 N 
ATOM     22  H12 <0> d          -2.336   0.023   0.013  0.00  0.00     0.191 HD
BRANCH  21  23
ATOM     23  C15 <0> d          -3.525   1.651   0.028  0.00  0.00     0.185 C 
ATOM     24  S2  <0> d          -4.996   0.774   0.030  0.00  0.00    -0.040 SA
ATOM     25  N3  <0> d          -3.543   2.998   0.035  0.00  0.00    -0.375 N 
ATOM     26  H13 <0> d          -2.710   3.494   0.034  0.00  0.00     0.158 HD
ATOM     27  H14 <0> d          -4.390   3.472   0.042  0.00  0.00     0.158 HD
ENDBRANCH  21  23
ENDBRANCH  20  21
ENDBRANCH  19  20
ENDBRANCH   6  19
TORSDOF 7
