REMARK  7 active torsions:
REMARK  status: ('A' for Active; 'I' for Inactive)
REMARK    1  A    between atoms: C2_2  and  N1_3 
REMARK    2  A    between atoms: N1_3  and  C3_4 
REMARK    3  A    between atoms: N1_3  and  C5_6 
REMARK    4  A    between atoms: C8_9  and  C11_12 
REMARK    5  A    between atoms: C17_19  and  O3_31 
REMARK    6  A    between atoms: C18_20  and  C20_23 
REMARK    7  A    between atoms: C20_23  and  N2_24 
ROOT
ATOM      1  C11 <0> d           1.191  -6.103   0.932  0.00  0.00     0.053 C 
ATOM      2  C12 <0> d           2.416  -6.675   0.829  0.00  0.00     0.127 A 
ATOM      3  C13 <0> d           2.694  -8.108   0.643  0.00  0.00     0.218 A 
ATOM      4  O1  <0> d           1.889  -9.018   0.551  0.00  0.00    -0.284 OA
ATOM      5  C14 <0> d           4.165  -8.195   0.594  0.00  0.00     0.051 A 
ATOM      6  C15 <0> d           5.053  -9.261   0.438  0.00  0.00     0.021 A 
ATOM      7  C16 <0> d           6.399  -9.029   0.431  0.00  0.00     0.038 A 
ATOM      8  C17 <0> d           6.887  -7.734   0.580  0.00  0.00     0.076 A 
ATOM      9  C18 <0> d           6.017  -6.667   0.736  0.00  0.00     0.038 A 
ATOM     10  C19 <0> d           4.645  -6.885   0.744  0.00  0.00     0.101 A 
ATOM     11  O2  <0> d           3.606  -6.030   0.873  0.00  0.00    -0.305 OA
ENDROOT
BRANCH   1  12
ATOM     12  C8  <0> d           1.066  -4.639   0.995  0.00  0.00    -0.033 A 
ATOM     13  C7  <0> d           2.211  -3.838   1.077  0.00  0.00     0.014 A 
ATOM     14  C6  <0> d           2.085  -2.467   1.135  0.00  0.00     0.038 A 
ATOM     15  C5  <0> d           0.830  -1.881   1.112  0.00  0.00     0.134 A 
ATOM     16  C10 <0> d          -0.307  -2.667   1.036  0.00  0.00     0.038 A 
ATOM     17  C9  <0> d          -0.198  -4.040   0.972  0.00  0.00     0.014 A 
BRANCH  15  18
ATOM     18  N1  <0> d           0.712  -0.490   1.171  0.00  0.00    -0.042 N 
ATOM     19  H33 <0> d          -0.264  -0.234   1.149  0.00  0.00     0.286 HD
BRANCH  18  20
ATOM     20  C2  <0> d           1.317   0.001   2.417  0.00  0.00     0.237 C 
ATOM     21  C1  <0> d           1.078   1.507   2.541  0.00  0.00     0.035 C 
ENDBRANCH  18  20
BRANCH  18  22
ATOM     22  C3  <0> d           1.402   0.110   0.022  0.00  0.00     0.237 C 
ATOM     23  C4  <0> d           0.693  -0.302  -1.270  0.00  0.00     0.035 C 
ENDBRANCH  18  22
ENDBRANCH  15  18
ENDBRANCH   1  12
BRANCH   9  24
ATOM     24  C20 <0> d           6.559  -5.270   0.896  0.00  0.00     0.317 C 
BRANCH  24  25
ATOM     25  N2  <0> d           6.700  -4.644  -0.426  0.00  0.00     0.096 N 
ATOM     26  C24 <0> d           6.998  -3.211  -0.301  0.00  0.00     0.300 C 
ATOM     27  C23 <0> d           7.077  -2.586  -1.696  0.00  0.00     0.264 C 
ATOM     28  N3  <0> d           8.128  -3.256  -2.474  0.00  0.00    -0.072 N 
ATOM     29  C22 <0> d           7.804  -4.682  -2.610  0.00  0.00     0.264 C 
ATOM     30  C25 <0> d           8.216  -2.644  -3.806  0.00  0.00     0.269 C 
ATOM     31  H32 <0> d           9.013  -3.157  -1.999  0.00  0.00     0.279 HD
ATOM     32  C21 <0> d           7.731  -5.324  -1.223  0.00  0.00     0.300 C 
ENDBRANCH  24  25
ENDBRANCH   9  24
BRANCH   8  33
ATOM     33  O3  <0> d           8.226  -7.514   0.573  0.00  0.00    -0.360 OA
ATOM     34  H31 <0> d           8.592  -7.341  -0.305  0.00  0.00     0.217 HD
ENDBRANCH   8  33
TORSDOF 7
