REMARK  5 active torsions:
REMARK  status: ('A' for Active; 'I' for Inactive)
REMARK    1  A    between atoms: C2_2  and  C5_5 
REMARK    2  A    between atoms: C8_8  and  O1_21 
REMARK    3  A    between atoms: C9_9  and  N1_11 
REMARK    4  A    between atoms: N1_11  and  C12_13 
REMARK    5  A    between atoms: C12_13  and  C13_14 
ROOT
ATOM      1  C5  <0> d           1.260  -0.225  -0.850  0.00  0.00    -0.005 C 
ATOM      2  C6  <0> d           0.591   0.636  -1.924  0.00  0.00     0.008 C 
ATOM      3  C7  <0> d           1.064   0.184  -3.307  0.00  0.00     0.034 C 
ATOM      4  C8  <0> d           2.583   0.339  -3.402  0.00  0.00     0.149 C 
ATOM      5  C9  <0> d           3.252  -0.522  -2.328  0.00  0.00     0.216 C 
ATOM      6  C10 <0> d           2.779  -0.070  -0.945  0.00  0.00     0.041 C 
ENDROOT
BRANCH   5   7
ATOM      7  N1  <0> d           2.890  -1.930  -2.534  0.00  0.00    -0.068 N 
ATOM      8  C11 <0> d           3.470  -2.405  -3.798  0.00  0.00     0.270 C 
ATOM      9  H38 <0> d           1.885  -2.017  -2.572  0.00  0.00     0.280 HD
BRANCH   7  10
ATOM     10  C12 <0> d           3.410  -2.737  -1.423  0.00  0.00     0.239 C 
BRANCH  10  11
ATOM     11  C13 <0> d           2.928  -4.182  -1.572  0.00  0.00     0.015 C 
ATOM     12  C17 <0> d           3.569  -5.050  -0.486  0.00  0.00     0.034 C 
ATOM     13  C16 <0> d           3.022  -6.476  -0.591  0.00  0.00     0.234 C 
ATOM     14  N2  <0> d           1.565  -6.459  -0.410  0.00  0.00    -0.075 N 
ATOM     15  C15 <0> d           0.938  -5.687  -1.489  0.00  0.00     0.234 C 
ATOM     16  C18 <0> d           1.055  -7.836  -0.434  0.00  0.00     0.269 C 
ATOM     17  H37 <0> d           1.343  -6.035   0.478  0.00  0.00     0.279 HD
ATOM     18  C14 <0> d           1.405  -4.231  -1.418  0.00  0.00     0.034 C 
ENDBRANCH  10  11
ENDBRANCH   7  10
ENDBRANCH   5   7
BRANCH   4  19
ATOM     19  O1  <0> d           3.026  -0.082  -4.694  0.00  0.00    -0.393 OA
ATOM     20  H36 <0> d           2.641   0.421  -5.425  0.00  0.00     0.210 HD
ENDBRANCH   4  19
BRANCH   1  21
ATOM     21  C2  <0> d           0.786   0.226   0.533  0.00  0.00    -0.048 C 
ATOM     22  C1  <0> d           1.163   1.693   0.748  0.00  0.00     0.015 C 
ATOM     23  C3  <0> d           1.455  -0.635   1.607  0.00  0.00     0.015 C 
ATOM     24  C4  <0> d          -0.733   0.071   0.628  0.00  0.00     0.015 C 
ENDBRANCH   1  21
TORSDOF 5
