REMARK  4 active torsions:
REMARK  status: ('A' for Active; 'I' for Inactive)
REMARK    1  A    between atoms: C2_2  and  N1_3 
REMARK    2  A    between atoms: N1_3  and  C3_4 
REMARK    3  A    between atoms: N1_3  and  C15_17 
REMARK    4  A    between atoms: C14_15  and  N2_16 
ROOT
ATOM      1  C3  <0> d          -2.130  -0.136  -1.157  0.00  0.00     0.218 C 
ATOM      2  C4  <0> d          -2.068   1.375  -1.389  0.00  0.00     0.035 C 
ATOM      3  C5  <0> d          -1.449   1.656  -2.759  0.00  0.00     0.002 C 
ATOM      4  C6  <0> d          -2.380   2.566  -3.563  0.00  0.00     0.000 C 
ATOM      5  C7  <0> d          -2.669   1.926  -4.923  0.00  0.00     0.000 C 
ATOM      6  C8  <0> d          -4.181   1.844  -5.136  0.00  0.00     0.000 C 
ATOM      7  C9  <0> d          -4.570   0.405  -5.484  0.00  0.00     0.000 C 
ATOM      8  C10 <0> d          -5.672  -0.069  -4.535  0.00  0.00     0.000 C 
ATOM      9  C11 <0> d          -5.251  -1.387  -3.881  0.00  0.00     0.000 C 
ATOM     10  C12 <0> d          -5.361  -1.260  -2.360  0.00  0.00     0.002 C 
ATOM     11  C13 <0> d          -4.031  -1.657  -1.718  0.00  0.00     0.035 C 
ATOM     12  C14 <0> d          -3.559  -0.538  -0.787  0.00  0.00     0.214 C 
ENDROOT
BRANCH   1  13
ATOM     13  N1  <0> d          -1.220  -0.500  -0.062  0.00  0.00    -0.061 N 
ATOM     14  H40 <0> d          -0.306  -0.114  -0.242  0.00  0.00     0.280 HD
BRANCH  13  15
ATOM     15  C2  <0> d          -1.124  -1.964   0.028  0.00  0.00     0.231 C 
ATOM     16  C1  <0> d          -0.466  -2.510  -1.240  0.00  0.00     0.034 C 
ENDBRANCH  13  15
BRANCH  13  17
ATOM     17  C15 <0> d          -1.738   0.035   1.204  0.00  0.00     0.188 C 
ATOM     18  C19 <0> d          -0.955  -0.560   2.388  0.00  0.00     0.033 C 
ATOM     19  C18 <0> d          -0.295   0.627   3.119  0.00  0.00     0.002 C 
ATOM     20  C17 <0> d          -1.174   1.844   2.739  0.00  0.00     0.002 C 
ATOM     21  C16 <0> d          -1.527   1.562   1.258  0.00  0.00     0.033 C 
ENDBRANCH  13  17
ENDBRANCH   1  13
BRANCH  12  22
ATOM     22  N2  <0> d          -4.447   0.624  -0.930  0.00  0.00    -0.073 N 
ATOM     23  H28 <0> d          -4.430   0.945  -1.887  0.00  0.00     0.274 HD
ATOM     24  H29 <0> d          -5.388   0.361  -0.680  0.00  0.00     0.274 HD
ATOM     25  H39 <0> d          -4.131   1.365  -0.322  0.00  0.00     0.274 HD
ENDBRANCH  12  22
TORSDOF 4
