REMARK  10 active torsions:
REMARK  status: ('A' for Active; 'I' for Inactive)
REMARK    1  A    between atoms: C2_2  and  C3_3 
REMARK    2  A    between atoms: C3_3  and  C4_4 
REMARK    3  A    between atoms: C4_4  and  N1_5 
REMARK    4  A    between atoms: C5_6  and  N5_29 
REMARK    5  A    between atoms: C6_7  and  N3_14 
REMARK    6  A    between atoms: N3_14  and  C9_15 
REMARK       I    between atoms: N3_14  and  C12_18 
REMARK    7  A    between atoms: C9_15  and  C10_16 
REMARK    8  A    between atoms: C12_18  and  C13_20 
REMARK    9  A    between atoms: C13_20  and  C14_21 
REMARK   10  A    between atoms: C14_21  and  N4_22 
ROOT
ATOM      1  N1  <0> d           4.624   8.960   1.988  0.00  0.00    -0.284 N 
ATOM      2  C5  <0> d           4.164   7.667   1.914  0.00  0.00     0.138 A 
ATOM      3  C6  <0> d           3.006   7.324   2.583  0.00  0.00     0.150 A 
ATOM      4  C7  <0> d           2.328   8.315   3.317  0.00  0.00     0.280 A 
ATOM      5  O1  <0> d           1.300   8.040   3.914  0.00  0.00    -0.265 OA
ATOM      6  N2  <0> d           2.824   9.566   3.362  0.00  0.00    -0.273 N 
ATOM      7  H1  <0> d           2.305  10.344   3.942  0.00  0.00     0.173 HD
ATOM      8  C8  <0> d           3.954   9.882   2.704  0.00  0.00     0.331 A 
ATOM      9  O2  <0> d           4.378  11.020   2.758  0.00  0.00    -0.246 OA
ENDROOT
BRANCH   3  10
ATOM     10  N3  <0> d           2.508   6.005   2.526  0.00  0.00    -0.310 N 
ATOM     11  C12 <0> d           2.114   5.483   1.347  0.00  0.00     0.226 C 
ATOM     12  O3  <0> d           2.108   6.173   0.349  0.00  0.00    -0.273 OA
BRANCH  10  13
ATOM     13  C9  <0> d           2.420   5.203   3.749  0.00  0.00     0.132 C 
BRANCH  13  14
ATOM     14  C10 <0> d           3.746   4.477   3.980  0.00  0.00     0.016 C 
ATOM     15  C11 <0> d           3.654   3.639   5.256  0.00  0.00     0.006 C 
ENDBRANCH  13  14
ENDBRANCH  10  13
BRANCH  11  16
ATOM     16  C13 <0> d           1.679   4.042   1.268  0.00  0.00     0.123 C 
BRANCH  16  17
ATOM     17  C14 <0> d           1.285   3.706  -0.172  0.00  0.00     0.142 C 
BRANCH  17  18
ATOM     18  N4  <0> d           0.863   2.305  -0.249  0.00  0.00    -0.312 N 
ATOM     19  C17 <0> d          -0.433   1.969  -0.059  0.00  0.00     0.290 A 
ATOM     20  S1  <0> d          -0.399   0.245  -0.250  0.00  0.00    -0.039 SA
ATOM     21  O4  <0> d          -1.383   2.693   0.181  0.00  0.00    -0.260 OA
ATOM     22  C16 <0> d           1.346   0.060  -0.575  0.00  0.00     0.080 A 
ATOM     23  C15 <0> d           1.772   1.324  -0.513  0.00  0.00     0.018 A 
ATOM     24  C18 <0> d           3.225   1.659  -0.730  0.00  0.00     0.069 C 
ENDBRANCH  17  18
ENDBRANCH  16  17
ENDBRANCH  11  16
ENDBRANCH   3  10
BRANCH   2  25
ATOM     25  N5  <0> d           4.849   6.726   1.183  0.00  0.00    -0.383 N 
ATOM     26  H26 <0> d           4.474   5.692   1.129  0.00  0.00     0.157 HD
ATOM     27  H27 <0> d           5.771   7.005   0.653  0.00  0.00     0.157 HD
ENDBRANCH   2  25
BRANCH   1  28
ATOM     28  C4  <0> d           5.851   9.338   1.283  0.00  0.00     0.135 C 
BRANCH  28  29
ATOM     29  C3  <0> d           5.503   9.812  -0.129  0.00  0.00     0.020 C 
BRANCH  29  30
ATOM     30  C2  <0> d           6.785  10.207  -0.865  0.00  0.00    -0.003 C 
ATOM     31  C1  <0> d           6.436  10.681  -2.278  0.00  0.00     0.005 C 
ENDBRANCH  29  30
ENDBRANCH  28  29
ENDBRANCH   1  28
TORSDOF 10
