REMARK  3 active torsions:
REMARK  status: ('A' for Active; 'I' for Inactive)
REMARK    1  A    between atoms: C8_8  and  C9_10 
REMARK       I    between atoms: C9_10  and  N1_12 
REMARK    2  A    between atoms: N1_12  and  C10_13 
REMARK    3  A    between atoms: C10_13  and  C11_14 
ROOT
ATOM      1  C9  <0> d           2.752  -2.902  -1.978  0.00  0.00     0.232 C 
ATOM      2  O1  <0> d           2.053  -2.228  -2.705  0.00  0.00    -0.272 OA
ATOM      3  N1  <0> d           3.518  -3.882  -2.498  0.00  0.00    -0.354 N 
ATOM      4  H9  <0> d           4.077  -4.420  -1.917  0.00  0.00     0.162 HD
ENDROOT
BRANCH   1   5
ATOM      5  C8  <0> d           2.765  -2.643  -0.494  0.00  0.00     0.148 C 
ATOM      6  C7  <0> d           1.372  -2.210   0.015  0.00  0.00     0.065 C 
ATOM      7  C5  <0> d           1.208  -0.710  -0.011  0.00  0.00    -0.040 A 
ATOM      8  C4  <0> d           2.381   0.038  -0.034  0.00  0.00     0.007 A 
ATOM      9  C6  <0> d           0.002  -0.004   0.002  0.00  0.00     0.008 A 
ATOM     10  C3  <0> d           2.366   1.421  -0.021  0.00  0.00     0.019 A 
ATOM     11  S1  <0> d           3.725  -1.127  -0.084  0.00  0.00    -0.115 SA
ATOM     12  C2  <0> d           1.161   2.097   0.002  0.00  0.00     0.001 A 
ATOM     13  C1  <0> d          -0.017   1.372   0.010  0.00  0.00     0.001 A 
ENDBRANCH   1   5
BRANCH   3  14
ATOM     14  C10 <0> d           3.505  -4.133  -3.942  0.00  0.00     0.183 C 
BRANCH  14  15
ATOM     15  C11 <0> d           4.439  -5.271  -4.262  0.00  0.00     0.073 A 
ATOM     16  N3  <0> d           5.728  -5.172  -4.462  0.00  0.00    -0.178 NA
ATOM     17  N2  <0> d           6.230  -6.453  -4.728  0.00  0.00    -0.289 N 
ATOM     18  C13 <0> d           5.196  -7.320  -4.688  0.00  0.00     0.111 A 
ATOM     19  H2  <0> d           7.155  -6.677  -4.911  0.00  0.00     0.188 HD
ATOM     20  C12 <0> d           4.077  -6.615  -4.402  0.00  0.00     0.049 A 
ENDBRANCH  14  15
ENDBRANCH   3  14
TORSDOF 3
