REMARK  2 active torsions:
REMARK  status: ('A' for Active; 'I' for Inactive)
REMARK    1  A    between atoms: C8_9  and  C13_20 
REMARK    2  A    between atoms: C10_15  and  N5_19 
ROOT
ATOM      1  C1  <0> d          -2.123   1.117  -0.754  0.00  0.00     0.269 C 
ATOM      2  N1  <0> d          -1.620  -0.252  -0.580  0.00  0.00    -0.075 N 
ATOM      3  C2  <0> d          -2.741  -1.197  -0.658  0.00  0.00     0.236 C 
ATOM      4  C3  <0> d          -2.213  -2.630  -0.558  0.00  0.00     0.048 C 
ATOM      5  C4  <0> d          -1.480  -2.807   0.772  0.00  0.00     0.038 C 
ATOM      6  C5  <0> d          -0.363  -1.768   0.878  0.00  0.00     0.048 C 
ATOM      7  C6  <0> d          -0.960  -0.367   0.726  0.00  0.00     0.236 C 
ATOM      8  C7  <0> d          -0.898  -4.192   0.856  0.00  0.00     0.040 A 
ATOM      9  C8  <0> d          -0.167  -4.880  -0.054  0.00  0.00     0.072 A 
ATOM     10  N2  <0> d           0.124  -6.096   0.497  0.00  0.00    -0.274 N 
ATOM     11  H1  <0> d           0.637  -6.805   0.077  0.00  0.00     0.189 HD
ATOM     12  N3  <0> d          -0.452  -6.140   1.776  0.00  0.00    -0.148 NA
ATOM     13  C9  <0> d          -1.061  -5.009   1.992  0.00  0.00     0.200 A 
ATOM     14  O1  <0> d          -1.760  -4.593   3.083  0.00  0.00    -0.272 OA
ATOM     15  C10 <0> d          -2.524  -3.490   2.950  0.00  0.00     0.161 C 
ATOM     16  C11 <0> d          -2.448  -2.629   1.913  0.00  0.00     0.086 C 
ATOM     17  C12 <0> d          -3.326  -1.498   1.897  0.00  0.00     0.100 C 
ATOM     18  N4  <0> d          -4.022  -0.600   1.885  0.00  0.00    -0.191 NA
ATOM     19  H20 <0> d          -0.956  -0.461  -1.311  0.00  0.00     0.279 HD
ENDROOT
BRANCH  15  20
ATOM     20  N5  <0> d          -3.441  -3.225   3.936  0.00  0.00    -0.379 N 
ATOM     21  H13 <0> d          -3.523  -3.823   4.696  0.00  0.00     0.158 HD
ATOM     22  H14 <0> d          -4.008  -2.441   3.873  0.00  0.00     0.158 HD
ENDBRANCH  15  20
BRANCH   9  23
ATOM     23  C13 <0> d           0.241  -4.403  -1.394  0.00  0.00    -0.007 A 
ATOM     24  C18 <0> d          -0.191  -5.075  -2.538  0.00  0.00     0.014 A 
ATOM     25  C17 <0> d           0.188  -4.622  -3.785  0.00  0.00     0.001 A 
ATOM     26  C16 <0> d           1.005  -3.511  -3.902  0.00  0.00     0.000 A 
ATOM     27  C15 <0> d           1.441  -2.844  -2.771  0.00  0.00     0.001 A 
ATOM     28  C14 <0> d           1.064  -3.284  -1.518  0.00  0.00     0.014 A 
ENDBRANCH   9  23
TORSDOF 2
