REMARK  6 active torsions:
REMARK  status: ('A' for Active; 'I' for Inactive)
REMARK    1  A    between atoms: C5_6  and  S1_8 
REMARK    2  A    between atoms: S1_8  and  C6_9 
REMARK    3  A    between atoms: C6_9  and  C7_10 
REMARK       I    between atoms: C7_10  and  N3_12 
REMARK    4  A    between atoms: N3_12  and  C8_13 
REMARK    5  A    between atoms: C8_13  and  C10_15 
REMARK    6  A    between atoms: C12_19  and  C13_21 
ROOT
ATOM      1  C8  <0> d           0.064  -1.940   7.727  0.00  0.00     0.148 C 
ATOM      2  C9  <0> d           1.507  -2.241   8.136  0.00  0.00     0.040 C 
ENDROOT
BRANCH   1   3
ATOM      3  N3  <0> d           0.050  -1.351   6.386  0.00  0.00    -0.349 N 
ATOM      4  C7  <0> d           0.056  -2.148   5.299  0.00  0.00     0.228 C 
ATOM      5  O1  <0> d           0.073  -3.354   5.431  0.00  0.00    -0.273 OA
ATOM      6  H8  <0> d           0.036  -0.387   6.280  0.00  0.00     0.163 HD
BRANCH   4   7
ATOM      7  C6  <0> d           0.041  -1.542   3.919  0.00  0.00     0.185 C 
BRANCH   7   8
ATOM      8  S1  <0> d           0.053  -2.864   2.678  0.00  0.00    -0.081 SA
BRANCH   8   9
ATOM      9  C5  <0> d           0.035  -2.005   1.140  0.00  0.00     0.189 A 
ATOM     10  N1  <0> d           0.039  -2.699   0.010  0.00  0.00    -0.228 NA
ATOM     11  C4  <0> d           0.025  -2.084  -1.161  0.00  0.00     0.035 A 
ATOM     12  C3  <0> d           0.006  -0.699  -1.198  0.00  0.00     0.053 A 
ATOM     13  C19 <0> d           0.029  -2.881  -2.440  0.00  0.00     0.070 C 
ATOM     14  C2  <0> d           0.002  -0.004   0.002  0.00  0.00     0.035 A 
ATOM     15  C1  <0> d          -0.018   1.503   0.010  0.00  0.00     0.070 C 
ATOM     16  N2  <0> d           0.022  -0.679   1.139  0.00  0.00    -0.228 NA
ENDBRANCH   8   9
ENDBRANCH   7   8
ENDBRANCH   4   7
ENDBRANCH   1   3
BRANCH   1  17
ATOM     17  C10 <0> d          -0.545  -0.972   8.708  0.00  0.00     0.104 A 
ATOM     18  N5  <0> d          -1.188  -1.298   9.793  0.00  0.00    -0.342 N 
ATOM     19  C12 <0> d          -1.588  -0.176  10.426  0.00  0.00     0.059 A 
ATOM     20  H22 <0> d          -1.352  -2.204  10.099  0.00  0.00     0.167 HD
ATOM     21  C11 <0> d          -1.175   0.885   9.684  0.00  0.00     0.119 A 
ATOM     22  N4  <0> d          -0.517   0.375   8.601  0.00  0.00    -0.352 N 
ATOM     23  H1  <0> d          -0.106   0.885   7.886  0.00  0.00     0.166 HD
BRANCH  19  24
ATOM     24  C13 <0> d          -2.347  -0.112  11.699  0.00  0.00    -0.008 A 
ATOM     25  C18 <0> d          -2.702   1.122  12.240  0.00  0.00     0.014 A 
ATOM     26  C17 <0> d          -3.414   1.175  13.421  0.00  0.00     0.001 A 
ATOM     27  C16 <0> d          -3.764   0.007  14.075  0.00  0.00     0.000 A 
ATOM     28  C15 <0> d          -3.408  -1.220  13.545  0.00  0.00     0.001 A 
ATOM     29  C14 <0> d          -2.702  -1.286  12.361  0.00  0.00     0.014 A 
ENDBRANCH  19  24
ENDBRANCH   1  17
TORSDOF 6
