REMARK  4 active torsions:
REMARK  status: ('A' for Active; 'I' for Inactive)
REMARK    1  A    between atoms: C5_5  and  N1_8 
REMARK    2  A    between atoms: C9_11  and  C11_15 
REMARK    3  A    between atoms: C9_11  and  N3_19 
REMARK       I    between atoms: N3_19  and  C12_20 
REMARK    4  A    between atoms: C12_20  and  C13_22 
ROOT
ATOM      1  N1  <0> d           0.057  -4.172  -0.021  0.00  0.00    -0.230 N 
ATOM      2  C8  <0> d           0.165  -4.934   1.086  0.00  0.00     0.291 A 
ATOM      3  O1  <0> d           0.260  -4.551   2.232  0.00  0.00    -0.267 OA
ATOM      4  C9  <0> d           0.140  -6.370   0.599  0.00  0.00     0.293 A 
ATOM      5  N2  <0> d           0.010  -6.237  -0.863  0.00  0.00    -0.300 N 
ATOM      6  C10 <0> d          -0.036  -4.919  -1.127  0.00  0.00     0.332 A 
ATOM      7  O2  <0> d          -0.145  -4.458  -2.246  0.00  0.00    -0.246 OA
ATOM      8  H8  <0> d          -0.038  -6.960  -1.508  0.00  0.00     0.167 HD
ENDROOT
BRANCH   4   9
ATOM      9  C11 <0> d           1.444  -7.083   0.960  0.00  0.00     0.441 C 
ATOM     10  F1  <0> d           1.609  -7.078   2.350  0.00  0.00    -0.166 F 
ATOM     11  F2  <0> d           1.397  -8.403   0.501  0.00  0.00    -0.166 F 
ATOM     12  F3  <0> d           2.521  -6.419   0.361  0.00  0.00    -0.166 F 
ENDBRANCH   4   9
BRANCH   4  13
ATOM     13  N3  <0> d          -1.011  -7.083   1.157  0.00  0.00    -0.319 N 
ATOM     14  C12 <0> d          -1.145  -7.207   2.492  0.00  0.00     0.227 C 
ATOM     15  O3  <0> d          -0.312  -6.728   3.232  0.00  0.00    -0.273 OA
ATOM     16  H9  <0> d          -1.677  -7.467   0.565  0.00  0.00     0.165 HD
BRANCH  14  17
ATOM     17  C13 <0> d          -2.329  -7.942   3.066  0.00  0.00     0.030 C 
ATOM     18  C14 <0> d          -2.240  -7.938   4.593  0.00  0.00     0.024 C 
ATOM     19  C15 <0> d          -3.620  -7.248   2.628  0.00  0.00     0.024 C 
ATOM     20  C16 <0> d          -2.329  -9.385   2.559  0.00  0.00     0.024 C 
ENDBRANCH  14  17
ENDBRANCH   4  13
BRANCH   1  21
ATOM     21  C5  <0> d           0.039  -2.771  -0.013  0.00  0.00     0.047 A 
ATOM     22  C4  <0> d           0.046  -2.068  -1.211  0.00  0.00     0.031 A 
ATOM     23  C3  <0> d           0.028  -0.687  -1.200  0.00  0.00     0.009 A 
ATOM     24  C2  <0> d           0.002  -0.004   0.002  0.00  0.00    -0.062 A 
ATOM     25  C1  <0> d          -0.018   1.503   0.010  0.00  0.00     0.048 C 
ATOM     26  C7  <0> d           0.001  -0.701   1.196  0.00  0.00     0.009 A 
ATOM     27  C6  <0> d           0.014  -2.082   1.192  0.00  0.00     0.031 A 
ENDBRANCH   1  21
TORSDOF 4
