REMARK  5 active torsions:
REMARK  status: ('A' for Active; 'I' for Inactive)
REMARK       I    between atoms: C2_2  and  N1_4 
REMARK    1  A    between atoms: N1_4  and  C3_5 
REMARK    2  A    between atoms: N3_9  and  C6_10 
REMARK    3  A    between atoms: C11_15  and  C12_16 
REMARK    4  A    between atoms: C11_15  and  N4_28 
REMARK    5  A    between atoms: C15_19  and  C16_21 
ROOT
ATOM      1  C6  <0> d          -7.902   4.703   4.896  0.00  0.00     0.115 C 
ATOM      2  C7  <0> d          -7.380   5.001   6.305  0.00  0.00     0.055 C 
ATOM      3  C8  <0> d          -6.190   4.088   6.606  0.00  0.00     0.237 C 
ATOM      4  C9  <0> d          -5.594   3.993   4.259  0.00  0.00     0.237 C 
ATOM      5  C10 <0> d          -6.767   4.903   3.888  0.00  0.00     0.055 C 
ATOM      6  N4  <0> d          -5.123   4.346   5.615  0.00  0.00    -0.067 N 
ATOM      7  H29 <0> d          -4.885   5.345   5.635  0.00  0.00     0.280 HD
ENDROOT
BRANCH   6   8
ATOM      8  C11 <0> d          -3.920   3.559   5.952  0.00  0.00     0.280 C 
BRANCH   8   9
ATOM      9  C12 <0> d          -2.951   3.620   4.800  0.00  0.00     0.009 A 
ATOM     10  S1  <0> d          -2.795   2.519   3.403  0.00  0.00    -0.095 SA
ATOM     11  C15 <0> d          -1.435   3.340   2.587  0.00  0.00     0.012 A 
ATOM     12  C14 <0> d          -1.191   4.378   3.423  0.00  0.00     0.018 A 
ATOM     13  C13 <0> d          -1.972   4.525   4.555  0.00  0.00     0.017 A 
BRANCH  11  14
ATOM     14  C16 <0> d          -0.736   2.970   1.304  0.00  0.00     0.161 C 
ATOM     15  O2  <0> d          -0.682   1.547   1.183  0.00  0.00    -0.381 OA
ATOM     16  C20 <0> d          -0.013   1.086   0.008  0.00  0.00     0.168 C 
ATOM     17  C19 <0> d          -0.754   1.593  -1.232  0.00  0.00     0.026 C 
ATOM     18  C18 <0> d          -0.823   3.123  -1.186  0.00  0.00     0.005 C 
ATOM     19  C17 <0> d          -1.506   3.553   0.116  0.00  0.00     0.037 C 
ENDBRANCH  11  14
ENDBRANCH   8   9
ENDBRANCH   6   8
BRANCH   1  20
ATOM     20  N3  <0> d          -9.004   5.614   4.580  0.00  0.00    -0.249 N 
ATOM     21  C3  <0> d         -10.271   5.254   4.271  0.00  0.00     0.128 A 
ATOM     22  C4  <0> d         -10.980   6.394   4.049  0.00  0.00     0.071 A 
ATOM     23  C5  <0> d         -10.113   7.477   4.220  0.00  0.00     0.142 A 
ATOM     24  N2  <0> d          -8.932   7.012   4.538  0.00  0.00    -0.183 NA
BRANCH  21  25
ATOM     25  N1  <0> d         -10.762   3.950   4.196  0.00  0.00    -0.312 N 
ATOM     26  C2  <0> d         -12.053   3.734   3.875  0.00  0.00     0.219 C 
ATOM     27  C1  <0> d         -12.583   2.326   3.795  0.00  0.00     0.117 C 
ATOM     28  O1  <0> d         -12.788   4.673   3.651  0.00  0.00    -0.274 OA
ATOM     29  H5  <0> d         -10.174   3.200   4.375  0.00  0.00     0.170 HD
ENDBRANCH  21  25
ENDBRANCH   1  20
TORSDOF 5
