REMARK  4 active torsions:
REMARK  status: ('A' for Active; 'I' for Inactive)
REMARK    1  A    between atoms: N1_2  and  C2_3 
REMARK    2  A    between atoms: N1_2  and  C11_17 
REMARK    3  A    between atoms: C2_3  and  C3_4 
REMARK       I    between atoms: C3_4  and  N2_6 
REMARK    4  A    between atoms: N2_6  and  C4_7 
ROOT
ATOM      1  C3  <0> d          -2.072  -0.105  -1.260  0.00  0.00     0.286 C 
ATOM      2  O1  <0> d          -1.475   0.546  -2.095  0.00  0.00    -0.269 OA
ATOM      3  N2  <0> d          -3.331  -0.471  -1.477  0.00  0.00    -0.026 NA
ENDROOT
BRANCH   1   4
ATOM      4  C2  <0> d          -1.383  -0.497   0.022  0.00  0.00     0.340 C 
BRANCH   4   5
ATOM      5  N1  <0> d          -0.010   0.024   0.020  0.00  0.00    -0.061 N 
ATOM      6  C1  <0> d          -0.044   1.493   0.031  0.00  0.00     0.270 C 
ATOM      7  H19 <0> d           0.469  -0.295  -0.808  0.00  0.00     0.280 HD
BRANCH   5   8
ATOM      8  C11 <0> d           0.699  -0.458   1.213  0.00  0.00     0.203 C 
ATOM      9  C14 <0> d           2.138   0.111   1.220  0.00  0.00     0.173 C 
ATOM     10  S1  <0> d           3.095  -1.222   2.050  0.00  0.00     0.146 S 
ATOM     11  C13 <0> d           1.754  -2.464   2.279  0.00  0.00     0.142 C 
ATOM     12  O2  <0> d           3.522  -0.760   3.325  0.00  0.00    -0.228 OA
ATOM     13  O3  <0> d           4.054  -1.739   1.138  0.00  0.00    -0.228 OA
ATOM     14  C12 <0> d           0.744  -1.995   1.194  0.00  0.00     0.049 C 
ENDBRANCH   5   8
ENDBRANCH   4   5
ENDBRANCH   1   4
BRANCH   3  15
ATOM     15  C4  <0> d          -3.973  -0.038  -2.559  0.00  0.00     0.708 A 
ATOM     16  N4  <0> d          -5.287  -0.252  -2.833  0.00  0.00    -0.188 N 
ATOM     17  C10 <0> d          -5.583   0.357  -4.048  0.00  0.00     0.076 A 
ATOM     18  H8  <0> d          -5.911  -0.743  -2.276  0.00  0.00     0.184 HD
ATOM     19  C5  <0> d          -4.403   0.943  -4.513  0.00  0.00     0.076 A 
ATOM     20  C9  <0> d          -6.746   0.458  -4.798  0.00  0.00     0.032 A 
ATOM     21  N3  <0> d          -3.417   0.683  -3.567  0.00  0.00    -0.188 N 
ATOM     22  C6  <0> d          -4.401   1.624  -5.722  0.00  0.00     0.032 A 
ATOM     23  H1  <0> d          -2.491   0.967  -3.619  0.00  0.00     0.184 HD
ATOM     24  C7  <0> d          -5.564   1.719  -6.460  0.00  0.00     0.002 A 
ATOM     25  C8  <0> d          -6.732   1.137  -6.000  0.00  0.00     0.002 A 
ENDBRANCH   3  15
TORSDOF 4
