REMARK  6 active torsions:
REMARK  status: ('A' for Active; 'I' for Inactive)
REMARK    1  A    between atoms: C3_3  and  O2_24 
REMARK    2  A    between atoms: C6_6  and  N1_7 
REMARK       I    between atoms: N1_7  and  C7_8 
REMARK    3  A    between atoms: C7_8  and  C8_10 
REMARK    4  A    between atoms: C8_10  and  S1_11 
REMARK    5  A    between atoms: S1_11  and  C9_12 
REMARK    6  A    between atoms: N3_16  and  C12_17 
ROOT
ATOM      1  C8  <0> d          -3.446   3.625   0.048  0.00  0.00     0.185 C 
ENDROOT
BRANCH   1   2
ATOM      2  C7  <0> d          -4.566   4.634   0.072  0.00  0.00     0.231 C 
ATOM      3  N1  <0> d          -5.848   4.218   0.081  0.00  0.00    -0.327 N 
ATOM      4  H5  <0> d          -6.051   3.272   0.003  0.00  0.00     0.169 HD
ATOM      5  O1  <0> d          -4.313   5.820   0.085  0.00  0.00    -0.272 OA
BRANCH   3   6
ATOM      6  C6  <0> d          -6.886   5.150   0.201  0.00  0.00     0.034 A 
ATOM      7  C1  <0> d          -8.038   4.820   0.902  0.00  0.00     0.032 A 
ATOM      8  C2  <0> d          -9.059   5.742   1.025  0.00  0.00     0.039 A 
ATOM      9  C3  <0> d          -8.939   6.993   0.439  0.00  0.00     0.065 A 
ATOM     10  C4  <0> d          -7.790   7.322  -0.266  0.00  0.00     0.039 A 
ATOM     11  C5  <0> d          -6.766   6.403  -0.385  0.00  0.00     0.032 A 
BRANCH   9  12
ATOM     12  O2  <0> d          -9.947   7.898   0.555  0.00  0.00    -0.361 OA
ATOM     13  H14 <0> d         -10.604   7.848  -0.153  0.00  0.00     0.217 HD
ENDBRANCH   9  12
ENDBRANCH   3   6
ENDBRANCH   1   2
BRANCH   1  14
ATOM     14  S1  <0> d          -1.856   4.489   0.042  0.00  0.00    -0.082 SA
BRANCH  14  15
ATOM     15  C9  <0> d          -0.759   3.110   0.013  0.00  0.00     0.173 A 
ATOM     16  N3  <0> d           0.603   3.175  -0.001  0.00  0.00    -0.300 N 
ATOM     17  C11 <0> d           1.066   1.876  -0.022  0.00  0.00     0.118 A 
ATOM     18  C10 <0> d          -0.013   1.075  -0.021  0.00  0.00     0.137 A 
ATOM     19  N2  <0> d          -1.113   1.847  -0.006  0.00  0.00    -0.235 NA
BRANCH  16  20
ATOM     20  C12 <0> d           1.385   4.339   0.006  0.00  0.00     0.041 A 
ATOM     21  C17 <0> d           2.423   4.474   0.917  0.00  0.00     0.031 A 
ATOM     22  C16 <0> d           3.191   5.622   0.921  0.00  0.00     0.021 A 
ATOM     23  C15 <0> d           2.926   6.637   0.019  0.00  0.00     0.011 A 
ATOM     24  C14 <0> d           1.892   6.504  -0.890  0.00  0.00     0.021 A 
ATOM     25 Br1  <0> d           3.979   8.207   0.028  0.00  0.00    -0.051 Br
ATOM     26  C13 <0> d           1.124   5.356  -0.902  0.00  0.00     0.031 A 
ENDBRANCH  16  20
ENDBRANCH  14  15
ENDBRANCH   1  14
TORSDOF 6
