REMARK  4 active torsions:
REMARK  status: ('A' for Active; 'I' for Inactive)
REMARK    1  A    between atoms: C2_2  and  O1_3 
REMARK    2  A    between atoms: O1_3  and  C3_4 
REMARK    3  A    between atoms: P1_17  and  O5_20 
REMARK    4  A    between atoms: O5_20  and  C13_21 
ROOT
ATOM      1  C3  <0> d           0.777  -1.811  -1.336  0.00  0.00     0.111 C 
ATOM      2  C4  <0> d           0.267  -2.630  -0.418  0.00  0.00     0.020 C 
ATOM      3  C5  <0> d           0.335  -4.122  -0.529  0.00  0.00     0.030 C 
ATOM      4  C6  <0> d           0.524  -4.756   0.844  0.00  0.00     0.123 C 
ATOM      5  N1  <0> d           1.815  -4.357   1.431  0.00  0.00    -0.219 NA
ATOM      6  C7  <0> d           2.943  -4.759   0.584  0.00  0.00     0.104 C 
ATOM      7  C8  <0> d           2.802  -4.146  -0.814  0.00  0.00     0.029 C 
ATOM      8  C9  <0> d           1.489  -4.561  -1.431  0.00  0.00     0.003 C 
ATOM      9  C10 <0> d           1.361  -3.837  -2.781  0.00  0.00     0.091 C 
ATOM     10  C11 <0> d           1.448  -2.352  -2.528  0.00  0.00     0.182 C 
ATOM     11  O2  <0> d           2.085  -1.633  -3.269  0.00  0.00    -0.290 OA
ATOM     12  C12 <0> d           4.278  -4.265   1.154  0.00  0.00     0.201 C 
ATOM     13  O3  <0> d           4.486  -4.830   2.460  0.00  0.00    -0.296 OA
ATOM     14  P1  <0> d           3.283  -4.690   3.547  0.00  0.00     0.444 P 
ATOM     15  O4  <0> d           3.293  -3.340   4.152  0.00  0.00    -0.233 OA
ATOM     16  N2  <0> d           1.890  -4.928   2.685  0.00  0.00    -0.255 N 
ATOM     17  H18 <0> d           1.152  -5.443   3.046  0.00  0.00     0.186 HD
ENDROOT
BRANCH  14  18
ATOM     18  O5  <0> d           3.430  -5.814   4.691  0.00  0.00    -0.298 OA
BRANCH  18  19
ATOM     19  C13 <0> d           2.648  -5.814   5.887  0.00  0.00     0.175 C 
ATOM     20  C14 <0> d           3.039  -7.015   6.751  0.00  0.00     0.034 C 
ENDBRANCH  18  19
ENDBRANCH  14  18
BRANCH   1  21
ATOM     21  O1  <0> d           0.671  -0.465  -1.174  0.00  0.00    -0.348 OA
BRANCH  21  22
ATOM     22  C2  <0> d           0.002  -0.004   0.002  0.00  0.00     0.171 C 
ATOM     23  C1  <0> d          -0.019   1.526   0.010  0.00  0.00     0.034 C 
ENDBRANCH  21  22
ENDBRANCH   1  21
TORSDOF 4
