REMARK  3 active torsions:
REMARK  status: ('A' for Active; 'I' for Inactive)
REMARK    1  A    between atoms: C2_2  and  C4_4 
REMARK    2  A    between atoms: C7_8  and  N2_13 
REMARK       I    between atoms: N2_13  and  C11_14 
REMARK    3  A    between atoms: C11_14  and  C12_16 
ROOT
ATOM      1  C4  <0> d          -1.425  -0.504   0.021  0.00  0.00     0.150 A 
ATOM      2  N1  <0> d          -1.938  -1.267  -0.897  0.00  0.00    -0.225 NA
ATOM      3  C5  <0> d          -3.228  -1.546  -0.565  0.00  0.00     0.095 A 
ATOM      4  C6  <0> d          -4.237  -2.299  -1.167  0.00  0.00     0.064 A 
ATOM      5  C7  <0> d          -5.477  -2.389  -0.561  0.00  0.00     0.037 A 
ATOM      6  C8  <0> d          -5.720  -1.731   0.643  0.00  0.00     0.032 A 
ATOM      7  C9  <0> d          -4.728  -0.985   1.242  0.00  0.00     0.042 A 
ATOM      8  C10 <0> d          -3.479  -0.887   0.647  0.00  0.00     0.106 A 
ATOM      9  O1  <0> d          -2.331  -0.255   0.979  0.00  0.00    -0.293 OA
ENDROOT
BRANCH   5  10
ATOM     10  N2  <0> d          -6.493  -3.143  -1.161  0.00  0.00    -0.323 N 
ATOM     11  C11 <0> d          -7.367  -3.825  -0.395  0.00  0.00     0.257 C 
ATOM     12  O2  <0> d          -7.326  -3.720   0.816  0.00  0.00    -0.267 OA
ATOM     13  H11 <0> d          -6.567  -3.174  -2.127  0.00  0.00     0.169 HD
BRANCH  11  14
ATOM     14  C12 <0> d          -8.376  -4.702  -1.026  0.00  0.00     0.050 A 
ATOM     15  C16 <0> d          -9.286  -5.414  -0.245  0.00  0.00     0.142 A 
ATOM     16  N3  <0> d         -10.189  -6.192  -0.808  0.00  0.00    -0.210 N 
ATOM     17  C15 <0> d         -10.262  -6.338  -2.119  0.00  0.00     0.125 A 
ATOM     18  O3  <0> d         -11.101  -6.895   0.015  0.00  0.00    -0.082 OA
ATOM     19  C14 <0> d          -9.391  -5.671  -2.961  0.00  0.00     0.021 A 
ATOM     20  C13 <0> d          -8.429  -4.837  -2.419  0.00  0.00     0.020 A 
ENDBRANCH  11  14
ENDBRANCH   5  10
BRANCH   1  21
ATOM     21  C2  <0> d          -0.013   0.022   0.013  0.00  0.00     0.055 C 
ATOM     22  C1  <0> d          -0.038   1.552   0.012  0.00  0.00     0.018 C 
ATOM     23  C3  <0> d           0.723  -0.475   1.259  0.00  0.00     0.018 C 
ENDBRANCH   1  21
TORSDOF 3
