REMARK  3 active torsions:
REMARK  status: ('A' for Active; 'I' for Inactive)
REMARK    1  A    between atoms: C6_6  and  C10_11 
REMARK       I    between atoms: C10_11  and  N1_13 
REMARK    2  A    between atoms: N1_13  and  C11_14 
REMARK    3  A    between atoms: C11_14  and  C12_15 
ROOT
ATOM      1  C10 <0> d           1.211  -5.002  -1.103  0.00  0.00     0.253 C 
ATOM      2  O1  <0> d           0.904  -4.580  -2.202  0.00  0.00    -0.268 OA
ATOM      3  N1  <0> d           1.512  -6.306  -0.942  0.00  0.00    -0.351 N 
ATOM      4  H13 <0> d           1.757  -6.642  -0.066  0.00  0.00     0.163 HD
ENDROOT
BRANCH   1   5
ATOM      5  C6  <0> d           1.254  -4.088   0.050  0.00  0.00     0.045 A 
ATOM      6  C5  <0> d           0.935  -2.681  -0.093  0.00  0.00    -0.029 A 
ATOM      7  C4  <0> d           0.536  -2.012  -1.400  0.00  0.00     0.041 C 
ATOM      8  C8  <0> d           1.019  -1.977   1.058  0.00  0.00    -0.010 A 
ATOM      9  C3  <0> d           0.724  -0.500  -1.254  0.00  0.00     0.009 C 
ATOM     10  C2  <0> d           0.002  -0.004   0.002  0.00  0.00    -0.014 C 
ATOM     11  C1  <0> d          -0.019   1.526   0.010  0.00  0.00     0.010 C 
ATOM     12  C9  <0> d           0.750  -0.515   1.243  0.00  0.00     0.051 C 
ATOM     13  S1  <0> d           1.508  -3.168   2.271  0.00  0.00    -0.105 SA
ATOM     14  C7  <0> d           1.597  -4.538   1.304  0.00  0.00     0.067 A 
ENDBRANCH   1   5
BRANCH   3  15
ATOM     15  C11 <0> d           1.469  -7.215  -2.090  0.00  0.00     0.183 C 
BRANCH  15  16
ATOM     16  C12 <0> d           1.845  -8.604  -1.644  0.00  0.00     0.073 A 
ATOM     17  N3  <0> d           3.062  -9.072  -1.535  0.00  0.00    -0.178 NA
ATOM     18  N2  <0> d           2.983 -10.398  -1.090  0.00  0.00    -0.289 N 
ATOM     19  C14 <0> d           1.679 -10.711  -0.946  0.00  0.00     0.111 A 
ATOM     20  H2  <0> d           3.734 -10.989  -0.920  0.00  0.00     0.188 HD
ATOM     21  C13 <0> d           0.953  -9.619  -1.282  0.00  0.00     0.049 A 
ENDBRANCH  15  16
ENDBRANCH   3  15
TORSDOF 3
