REMARK  7 active torsions:
REMARK  status: ('A' for Active; 'I' for Inactive)
REMARK    1  A    between atoms: C2_2  and  C4_4 
REMARK    2  A    between atoms: C4_4  and  C5_5 
REMARK    3  A    between atoms: C5_5  and  N5_29 
REMARK    4  A    between atoms: C9_11  and  C10_12 
REMARK    5  A    between atoms: C10_12  and  C11_13 
REMARK       I    between atoms: C11_13  and  N2_15 
REMARK    6  A    between atoms: N2_15  and  C13_17 
REMARK    7  A    between atoms: C13_17  and  C14_18 
ROOT
ATOM      1  C10 <0> d          -3.198  -2.730   3.430  0.00  0.00     0.146 C 
ENDROOT
BRANCH   1   2
ATOM      2  C9  <0> d          -4.572  -2.352   3.986  0.00  0.00     0.288 C 
ATOM      3  C8  <0> d          -4.826  -0.892   3.737  0.00  0.00     0.249 C 
ATOM      4  N1  <0> d          -6.005  -0.424   3.313  0.00  0.00    -0.358 N 
ATOM      5  O1  <0> d          -3.924  -0.104   3.929  0.00  0.00    -0.271 OA
ATOM      6  C7  <0> d          -7.142  -1.291   3.019  0.00  0.00     0.150 C 
ATOM      7  H18 <0> d          -6.109   0.533   3.197  0.00  0.00     0.162 HD
ATOM      8  C6  <0> d          -6.944  -2.659   3.675  0.00  0.00     0.255 C 
ATOM      9  N5  <0> d          -5.604  -3.154   3.302  0.00  0.00    -0.056 N 
ATOM     10  H34 <0> d          -5.482  -3.062   2.286  0.00  0.00     0.281 HD
BRANCH   9  11
ATOM     11  C5  <0> d          -5.467  -4.580   3.675  0.00  0.00     0.236 C 
BRANCH  11  12
ATOM     12  C4  <0> d          -6.277  -5.429   2.694  0.00  0.00     0.031 C 
BRANCH  12  13
ATOM     13  C2  <0> d          -6.133  -6.908   3.059  0.00  0.00    -0.021 C 
ATOM     14  C1  <0> d          -6.766  -7.159   4.429  0.00  0.00     0.009 C 
ATOM     15  C3  <0> d          -6.839  -7.765   2.006  0.00  0.00     0.009 C 
ENDBRANCH  12  13
ENDBRANCH  11  12
ENDBRANCH   9  11
ENDBRANCH   1   2
BRANCH   1  16
ATOM     16  C11 <0> d          -3.184  -2.518   1.938  0.00  0.00     0.222 C 
ATOM     17  O2  <0> d          -4.203  -2.203   1.360  0.00  0.00    -0.273 OA
ATOM     18  N2  <0> d          -2.039  -2.679   1.245  0.00  0.00    -0.351 N 
ATOM     19  C12 <0> d          -0.808  -3.060   1.942  0.00  0.00     0.153 C 
BRANCH  18  20
ATOM     20  C13 <0> d          -2.026  -2.474  -0.206  0.00  0.00     0.186 C 
BRANCH  20  21
ATOM     21  C14 <0> d          -1.708  -1.031  -0.505  0.00  0.00     0.080 A 
ATOM     22  N4  <0> d          -2.581  -0.062  -0.635  0.00  0.00    -0.177 NA
ATOM     23  N3  <0> d          -1.884   1.125  -0.904  0.00  0.00    -0.281 N 
ATOM     24  C16 <0> d          -0.573   0.833  -0.939  0.00  0.00     0.036 A 
ATOM     25  H2  <0> d          -2.290   2.028  -1.045  0.00  0.00     0.189 HD
ATOM     26  C15 <0> d          -0.436  -0.495  -0.693  0.00  0.00    -0.006 A 
ATOM     27  C17 <0> d           0.581   1.769  -1.194  0.00  0.00     0.059 C 
ATOM     28  C20 <0> d           0.888  -1.214  -0.644  0.00  0.00     0.043 C 
ATOM     29  C19 <0> d           1.946  -0.326  -1.310  0.00  0.00     0.005 C 
ATOM     30  C18 <0> d           1.871   1.086  -0.723  0.00  0.00     0.006 C 
ENDBRANCH  20  21
ENDBRANCH  18  20
ENDBRANCH   1  16
TORSDOF 7
