REMARK  3 active torsions:
REMARK  status: ('A' for Active; 'I' for Inactive)
REMARK    1  A    between atoms: C2_2  and  C3_3 
REMARK    2  A    between atoms: C2_2  and  N2_7 
REMARK    3  A    between atoms: C3_3  and  C4_4 
ROOT
ATOM      1  N2  <0> d          -1.372  -0.511   0.012  0.00  0.00    -0.283 N 
ATOM      2  C5  <0> d          -2.241  -0.234   0.995  0.00  0.00     0.228 A 
ATOM      3  O1  <0> d          -2.006   0.449   1.969  0.00  0.00    -0.273 OA
ATOM      4  C6  <0> d          -3.563  -0.911   0.695  0.00  0.00     0.122 A 
ATOM      5  C7  <0> d          -3.297  -1.625  -0.636  0.00  0.00     0.050 A 
ATOM      6  C8  <0> d          -1.868  -1.287  -0.964  0.00  0.00     0.236 A 
ATOM      7  O2  <0> d          -1.264  -1.656  -1.947  0.00  0.00    -0.272 OA
ATOM      8  C9  <0> d          -4.250  -1.122  -1.729  0.00  0.00     0.020 C 
ATOM      9  C10 <0> d          -4.534  -2.381  -2.587  0.00  0.00     0.001 C 
ATOM     10  C11 <0> d          -4.598  -3.513  -1.530  0.00  0.00     0.001 C 
ATOM     11  C12 <0> d          -3.505  -3.135  -0.504  0.00  0.00     0.020 C 
ENDROOT
BRANCH   1  12
ATOM     12  C2  <0> d           0.002  -0.004   0.002  0.00  0.00     0.098 C 
ATOM     13  C1  <0> d          -0.019   1.526   0.010  0.00  0.00     0.033 C 
BRANCH  12  14
ATOM     14  C3  <0> d           0.742  -0.511   1.242  0.00  0.00     0.094 C 
BRANCH  14  15
ATOM     15  C4  <0> d           0.870  -2.011   1.172  0.00  0.00     0.073 C 
ATOM     16  S1  <0> d           0.269  -2.807  -0.078  0.00  0.00    -0.066 SA
ATOM     17  N1  <0> d           1.491  -2.681   2.163  0.00  0.00    -0.393 N 
ATOM     18  H7  <0> d           1.855  -2.198   2.921  0.00  0.00     0.156 HD
ATOM     19  H8  <0> d           1.573  -3.646   2.118  0.00  0.00     0.156 HD
ENDBRANCH  14  15
ENDBRANCH  12  14
ENDBRANCH   1  12
TORSDOF 3
