REMARK  7 active torsions:
REMARK  status: ('A' for Active; 'I' for Inactive)
REMARK    1  A    between atoms: C5_6  and  N2_8 
REMARK    2  A    between atoms: N2_8  and  C7_9 
REMARK    3  A    between atoms: C7_9  and  C8_10 
REMARK    4  A    between atoms: C7_9  and  C15_18 
REMARK    5  A    between atoms: C12_14  and  O1_16 
REMARK    6  A    between atoms: C18_22  and  N3_23 
REMARK       I    between atoms: N3_23  and  C19_24 
REMARK    7  A    between atoms: C19_24  and  C20_26 
ROOT
ATOM      1  C7  <0> d          -0.043  -2.200   3.637  0.00  0.00     0.152 C 
ENDROOT
BRANCH   1   2
ATOM      2  N2  <0> d           0.029  -3.127   2.506  0.00  0.00    -0.363 N 
ATOM      3  H8  <0> d          -0.501  -2.964   1.710  0.00  0.00     0.162 HD
BRANCH   2   4
ATOM      4  C5  <0> d           0.859  -4.241   2.571  0.00  0.00     0.102 A 
ATOM      5  N1  <0> d           0.863  -5.115   1.577  0.00  0.00    -0.353 N 
ATOM      6  C4  <0> d           1.635  -6.185   1.601  0.00  0.00     0.090 A 
ATOM      7  H24 <0> d           0.284  -4.966   0.814  0.00  0.00     0.166 HD
ATOM      8  C3  <0> d           2.471  -6.432   2.670  0.00  0.00     0.024 A 
ATOM      9  C2  <0> d           2.497  -5.539   3.734  0.00  0.00    -0.057 A 
ATOM     10  C1  <0> d           3.398  -5.777   4.918  0.00  0.00     0.048 C 
ATOM     11  C6  <0> d           1.673  -4.429   3.684  0.00  0.00     0.054 A 
ENDBRANCH   2   4
ENDBRANCH   1   2
BRANCH   1  12
ATOM     12  C8  <0> d          -1.376  -1.496   3.626  0.00  0.00    -0.028 A 
ATOM     13  C13 <0> d          -2.101  -1.373   4.794  0.00  0.00     0.046 A 
ATOM     14  C12 <0> d          -3.325  -0.719   4.784  0.00  0.00     0.068 A 
ATOM     15  C11 <0> d          -3.823  -0.202   3.597  0.00  0.00     0.037 A 
ATOM     16  C10 <0> d          -3.096  -0.334   2.429  0.00  0.00     0.003 A 
ATOM     17  C9  <0> d          -1.874  -0.980   2.443  0.00  0.00     0.010 A 
BRANCH  14  18
ATOM     18  O1  <0> d          -4.038  -0.591   5.934  0.00  0.00    -0.356 OA
ATOM     19  C14 <0> d          -5.293   0.088   5.847  0.00  0.00     0.210 C 
ENDBRANCH  14  18
ENDBRANCH   1  12
BRANCH   1  20
ATOM     20  C15 <0> d           1.063  -1.183   3.525  0.00  0.00     0.004 A 
ATOM     21  C18 <0> d           1.549  -0.561   4.636  0.00  0.00     0.086 A 
ATOM     22  S1  <0> d           2.803   0.504   3.943  0.00  0.00    -0.077 SA
ATOM     23  C17 <0> d           2.592   0.060   2.227  0.00  0.00    -0.019 A 
ATOM     24  C16 <0> d           1.599  -0.859   2.292  0.00  0.00     0.026 A 
ATOM     25  C24 <0> d           3.329   0.575   1.018  0.00  0.00     0.056 C 
BRANCH  21  26
ATOM     26  N3  <0> d           1.167  -0.719   5.970  0.00  0.00    -0.315 N 
ATOM     27  C19 <0> d           1.778  -0.003   6.935  0.00  0.00     0.280 C 
ATOM     28  O2  <0> d           2.663   0.781   6.643  0.00  0.00    -0.265 OA
ATOM     29  H17 <0> d           0.463  -1.343   6.202  0.00  0.00     0.170 HD
BRANCH  27  30
ATOM     30  C20 <0> d           1.377  -0.168   8.335  0.00  0.00     0.142 A 
ATOM     31  O3  <0> d           0.417  -0.997   8.793  0.00  0.00    -0.317 OA
ATOM     32  C23 <0> d           0.328  -0.884  10.124  0.00  0.00     0.143 A 
ATOM     33  C22 <0> d           1.230   0.031  10.544  0.00  0.00     0.027 A 
ATOM     34  C21 <0> d           1.907   0.496   9.405  0.00  0.00     0.045 A 
ENDBRANCH  27  30
ENDBRANCH  21  26
ENDBRANCH   1  20
TORSDOF 7
