REMARK  5 active torsions:
REMARK  status: ('A' for Active; 'I' for Inactive)
REMARK    1  A    between atoms: C4_4  and  N1_7 
REMARK    2  A    between atoms: C12_16  and  S2_17 
REMARK    3  A    between atoms: S2_17  and  C13_18 
REMARK    4  A    between atoms: C13_18  and  C14_19 
REMARK    5  A    between atoms: C14_19  and  N3_26 
ROOT
ATOM      1  N1  <0> d           1.304  -4.546  -0.364  0.00  0.00    -0.256 N 
ATOM      2  C7  <0> d           1.815  -3.352   0.017  0.00  0.00     0.268 A 
ATOM      3  O1  <0> d           3.014  -3.175   0.152  0.00  0.00    -0.267 OA
ATOM      4  C8  <0> d           0.861  -2.309   0.252  0.00  0.00     0.076 A 
ATOM      5  C9  <0> d           1.149  -0.946   0.665  0.00  0.00    -0.026 A 
ATOM      6  C10 <0> d           0.087  -0.124   0.829  0.00  0.00    -0.008 A 
ATOM      7  S1  <0> d          -1.333  -1.116   0.444  0.00  0.00    -0.073 SA
ATOM      8  C11 <0> d          -0.504  -2.627   0.065  0.00  0.00     0.117 A 
ATOM      9  N2  <0> d          -0.942  -3.822  -0.311  0.00  0.00    -0.216 NA
ATOM     10  C12 <0> d          -0.033  -4.765  -0.520  0.00  0.00     0.177 A 
ATOM     11  C15 <0> d           0.109   1.314   1.246  0.00  0.00     0.047 C 
ATOM     12  C16 <0> d           1.496   1.633   1.822  0.00  0.00     0.005 C 
ATOM     13  C17 <0> d           2.561   1.091   0.866  0.00  0.00     0.005 C 
ATOM     14  C18 <0> d           2.568  -0.438   0.909  0.00  0.00     0.041 C 
ENDROOT
BRANCH  10  15
ATOM     15  S2  <0> d          -0.575  -6.365  -1.020  0.00  0.00    -0.090 SA
BRANCH  15  16
ATOM     16  C13 <0> d          -2.363  -6.092  -1.066  0.00  0.00     0.109 C 
BRANCH  16  17
ATOM     17  C14 <0> d          -3.066  -7.383  -1.488  0.00  0.00     0.240 C 
BRANCH  17  18
ATOM     18  N3  <0> d          -4.522  -7.156  -1.501  0.00  0.00    -0.079 N 
ATOM     19  H10 <0> d          -4.750  -6.391  -2.134  0.00  0.00     0.274 HD
ATOM     20  H11 <0> d          -5.005  -8.000  -1.802  0.00  0.00     0.274 HD
ATOM     21  H20 <0> d          -4.834  -6.911  -0.554  0.00  0.00     0.274 HD
ENDBRANCH  17  18
ENDBRANCH  16  17
ENDBRANCH  15  16
ENDBRANCH  10  15
BRANCH   1  22
ATOM     22  C4  <0> d           2.188  -5.605  -0.609  0.00  0.00     0.044 A 
ATOM     23  C3  <0> d           2.545  -6.466   0.421  0.00  0.00     0.030 A 
ATOM     24  C2  <0> d           3.417  -7.509   0.177  0.00  0.00     0.002 A 
ATOM     25  C1  <0> d           3.934  -7.697  -1.092  0.00  0.00     0.000 A 
ATOM     26  C6  <0> d           3.581  -6.841  -2.119  0.00  0.00     0.002 A 
ATOM     27  C5  <0> d           2.705  -5.799  -1.882  0.00  0.00     0.030 A 
ENDBRANCH   1  22
TORSDOF 5
