REMARK  5 active torsions:
REMARK  status: ('A' for Active; 'I' for Inactive)
REMARK    1  A    between atoms: C2_2  and  N1_3 
REMARK    2  A    between atoms: C3_4  and  C5_9 
REMARK    3  A    between atoms: C5_9  and  N4_10 
REMARK       I    between atoms: N4_10  and  C6_11 
REMARK    4  A    between atoms: C6_11  and  C7_13 
REMARK    5  A    between atoms: C10_16  and  C12_19 
ROOT
ATOM      1  N4  <0> d          -1.735  -0.058   5.046  0.00  0.00    -0.348 N 
ATOM      2  C6  <0> d          -2.673  -0.949   4.669  0.00  0.00     0.268 C 
ATOM      3  O1  <0> d          -2.720  -1.331   3.514  0.00  0.00    -0.266 OA
ATOM      4  H9  <0> d          -1.741   0.301   5.947  0.00  0.00     0.163 HD
ENDROOT
BRANCH   2   5
ATOM      5  C7  <0> d          -3.636  -1.458   5.649  0.00  0.00     0.103 A 
ATOM      6  N5  <0> d          -4.708  -2.279   5.379  0.00  0.00    -0.346 N 
ATOM      7  C10 <0> d          -5.363  -2.536   6.548  0.00  0.00     0.045 A 
ATOM      8  C11 <0> d          -5.080  -2.795   4.059  0.00  0.00     0.156 C 
ATOM      9  C9  <0> d          -4.714  -1.869   7.565  0.00  0.00     0.033 A 
ATOM     10  C8  <0> d          -3.632  -1.193   7.004  0.00  0.00     0.038 A 
BRANCH   7  11
ATOM     11  C12 <0> d          -6.567  -3.380   6.698  0.00  0.00    -0.009 A 
ATOM     12  C17 <0> d          -7.399  -3.223   7.809  0.00  0.00     0.017 A 
ATOM     13  C16 <0> d          -8.524  -4.010   7.940  0.00  0.00     0.043 A 
ATOM     14  C15 <0> d          -8.824  -4.962   6.979  0.00  0.00     0.116 A 
ATOM     15  C14 <0> d          -7.999  -5.125   5.877  0.00  0.00     0.043 A 
ATOM     16  F1  <0> d          -9.924  -5.733   7.115  0.00  0.00    -0.206 F 
ATOM     17  C13 <0> d          -6.874  -4.340   5.732  0.00  0.00     0.017 A 
ENDBRANCH   7  11
ENDBRANCH   2   5
BRANCH   1  18
ATOM     18  C5  <0> d          -0.705   0.369   4.096  0.00  0.00     0.203 C 
BRANCH  18  19
ATOM     19  C3  <0> d           0.213   1.361   4.761  0.00  0.00     0.146 A 
ATOM     20  N1  <0> d           1.292   1.972   4.171  0.00  0.00    -0.308 N 
ATOM     21  C4  <0> d           1.869   2.785   5.079  0.00  0.00     0.196 A 
ATOM     22  N3  <0> d           1.152   2.690   6.218  0.00  0.00    -0.251 N 
ATOM     23  S1  <0> d           3.252   3.762   4.830  0.00  0.00    -0.039 SA
ATOM     24  N2  <0> d           0.114   1.777   5.982  0.00  0.00    -0.157 NA
ATOM     25  H6  <0> d           1.325   3.162   7.047  0.00  0.00     0.191 HD
BRANCH  20  26
ATOM     26  C2  <0> d           1.744   1.769   2.792  0.00  0.00     0.128 C 
ATOM     27  C1  <0> d           2.747   0.614   2.748  0.00  0.00     0.027 C 
ENDBRANCH  20  26
ENDBRANCH  18  19
ENDBRANCH   1  18
TORSDOF 5
