REMARK  3 active torsions:
REMARK  status: ('A' for Active; 'I' for Inactive)
REMARK    1  A    between atoms: N1_4  and  C7_9 
REMARK    2  A    between atoms: C7_9  and  C8_10 
REMARK    3  A    between atoms: C8_10  and  O2_16 
ROOT
ATOM      1  C8  <0> d           4.141   0.327  -2.554  0.00  0.00     0.087 C 
ATOM      2  C9  <0> d           3.861   1.822  -2.376  0.00  0.00     0.067 C 
ATOM      3  C10 <0> d           5.161   2.606  -2.567  0.00  0.00     0.235 C 
ATOM      4  N2  <0> d           5.690   2.362  -3.915  0.00  0.00    -0.075 N 
ATOM      5  C11 <0> d           6.029   0.942  -4.068  0.00  0.00     0.235 C 
ATOM      6  C12 <0> d           4.762   0.095  -3.934  0.00  0.00     0.067 C 
ATOM      7  H19 <0> d           4.994   2.617  -4.599  0.00  0.00     0.277 HD
ATOM      8  H25 <0> d           6.518   2.921  -4.056  0.00  0.00     0.277 HD
ENDROOT
BRANCH   1   9
ATOM      9  C7  <0> d           2.832  -0.456  -2.443  0.00  0.00     0.310 C 
BRANCH   9  10
ATOM     10  N1  <0> d           2.162  -0.115  -1.181  0.00  0.00     0.096 N 
ATOM     11  C3  <0> d           0.745  -0.505  -1.213  0.00  0.00     0.303 C 
ATOM     12  C2  <0> d           0.074  -0.078   0.095  0.00  0.00     0.146 C 
ATOM     13  C1  <0> d           0.116   1.446   0.217  0.00  0.00     0.041 C 
ATOM     14  O1  <0> d           0.771  -0.665   1.197  0.00  0.00    -0.378 OA
ATOM     15  C5  <0> d           2.155  -0.305   1.259  0.00  0.00     0.146 C 
ATOM     16  C4  <0> d           2.847  -0.734  -0.037  0.00  0.00     0.303 C 
ATOM     17  C6  <0> d           2.813  -1.009   2.447  0.00  0.00     0.041 C 
ENDBRANCH   9  10
ENDBRANCH   1   9
BRANCH   1  18
ATOM     18  O2  <0> d           5.049  -0.114  -1.542  0.00  0.00    -0.388 OA
ATOM     19  H24 <0> d           5.902   0.341  -1.553  0.00  0.00     0.210 HD
ENDBRANCH   1  18
TORSDOF 3
