REMARK  5 active torsions:
REMARK  status: ('A' for Active; 'I' for Inactive)
REMARK    1  A    between atoms: C12_13  and  O5_26 
REMARK    2  A    between atoms: C18_19  and  C19_20 
REMARK    3  A    between atoms: C18_19  and  O4_24 
REMARK    4  A    between atoms: C19_20  and  C20_22 
REMARK    5  A    between atoms: C20_22  and  O3_23 
ROOT
ATOM      1  C1  <0> d           3.849   0.047  -0.089  0.00  0.00     0.023 C 
ATOM      2  C2  <0> d           2.704   0.251   0.908  0.00  0.00     0.019 C 
ATOM      3  C3  <0> d           2.585   1.728   1.206  0.00  0.00     0.025 C 
ATOM      4  C4  <0> d           1.829   2.475   0.104  0.00  0.00     0.084 C 
ATOM      5  C5  <0> d           0.462   1.836  -0.022  0.00  0.00     0.149 C 
ATOM      6  O1  <0> d          -0.553   2.503  -0.060  0.00  0.00    -0.293 OA
ATOM      7  C6  <0> d           0.425   0.372  -0.109  0.00  0.00     0.053 C 
ATOM      8  C7  <0> d           1.459  -0.352   0.312  0.00  0.00    -0.065 C 
ATOM      9  C8  <0> d           1.375  -1.865   0.199  0.00  0.00     0.036 C 
ATOM     10  C9  <0> d           1.580  -2.480   1.593  0.00  0.00     0.013 C 
ATOM     11  C10 <0> d           1.808  -1.342   2.577  0.00  0.00     0.034 C 
ATOM     12  C11 <0> d           3.050  -0.541   2.179  0.00  0.00     0.144 C 
ATOM     13  C12 <0> d           3.532   0.329   3.319  0.00  0.00     0.160 C 
ATOM     14  C13 <0> d           3.949  -0.495   4.548  0.00  0.00     0.048 C 
ATOM     15  C14 <0> d           3.212  -1.798   4.645  0.00  0.00     0.001 C 
ATOM     16  C15 <0> d           1.807  -1.720   4.021  0.00  0.00     0.005 C 
ATOM     17  C16 <0> d           1.221  -3.094   4.382  0.00  0.00     0.009 C 
ATOM     18  C17 <0> d           1.771  -3.361   5.809  0.00  0.00     0.047 C 
ATOM     19  C18 <0> d           2.869  -2.295   6.063  0.00  0.00     0.128 C 
ATOM     20  C21 <0> d           4.045  -2.923   4.005  0.00  0.00     0.019 C 
ATOM     21  F1  <0> d           4.074  -1.429   1.802  0.00  0.00    -0.239 F 
ENDROOT
BRANCH  19  22
ATOM     22  C19 <0> d           2.333  -1.199   6.940  0.00  0.00     0.184 C 
ATOM     23  O2  <0> d           1.716  -0.283   6.452  0.00  0.00    -0.292 OA
BRANCH  22  24
ATOM     24  C20 <0> d           2.564  -1.243   8.428  0.00  0.00     0.245 C 
BRANCH  24  25
ATOM     25  O3  <0> d           1.963  -0.099   9.038  0.00  0.00    -0.393 OA
ATOM     26  H24 <0> d           2.073  -0.061   9.998  0.00  0.00     0.209 HD
ENDBRANCH  24  25
ENDBRANCH  22  24
ENDBRANCH  19  22
BRANCH  19  27
ATOM     27  O4  <0> d           4.023  -2.898   6.650  0.00  0.00    -0.381 OA
ATOM     28  H25 <0> d           3.879  -3.234   7.545  0.00  0.00     0.211 HD
ENDBRANCH  19  27
BRANCH  13  29
ATOM     29  O5  <0> d           4.678   1.087   2.894  0.00  0.00    -0.392 OA
ATOM     30  H29 <0> d           5.041   1.668   3.577  0.00  0.00     0.210 HD
ENDBRANCH  13  29
TORSDOF 5
