REMARK  4 active torsions:
REMARK  status: ('A' for Active; 'I' for Inactive)
REMARK    1  A    between atoms: C5_5  and  C6_7 
REMARK       I    between atoms: C6_7  and  N1_9 
REMARK    2  A    between atoms: C9_12  and  N2_15 
REMARK    3  A    between atoms: C12_16  and  N4_20 
REMARK       I    between atoms: N4_20  and  C15_21 
REMARK    4  A    between atoms: C15_21  and  C16_23 
ROOT
ATOM      1  C6  <0> d          -1.782   8.435   0.060  0.00  0.00     0.260 C 
ATOM      2  O1  <0> d          -2.051   9.023  -0.971  0.00  0.00    -0.267 OA
ATOM      3  N1  <0> d          -1.539   7.110   0.037  0.00  0.00    -0.347 N 
ATOM      4  C7  <0> d          -1.074   6.412   1.243  0.00  0.00     0.128 C 
ATOM      5  C8  <0> d           0.209   5.646   0.906  0.00  0.00     0.047 C 
ATOM      6  C9  <0> d          -0.050   4.727  -0.291  0.00  0.00     0.115 C 
ATOM      7  C10 <0> d          -0.443   5.570  -1.506  0.00  0.00     0.047 C 
ATOM      8  C11 <0> d          -1.733   6.335  -1.197  0.00  0.00     0.128 C 
ENDROOT
BRANCH   6   9
ATOM      9  N2  <0> d           1.166   3.968  -0.595  0.00  0.00    -0.249 N 
ATOM     10  N3  <0> d           2.409   4.509  -0.948  0.00  0.00    -0.183 NA
ATOM     11  C14 <0> d           3.247   3.524  -1.143  0.00  0.00     0.142 A 
ATOM     12  C13 <0> d           2.570   2.321  -0.922  0.00  0.00     0.071 A 
ATOM     13  C12 <0> d           1.285   2.621  -0.590  0.00  0.00     0.128 A 
BRANCH  13  14
ATOM     14  N4  <0> d           0.275   1.705  -0.295  0.00  0.00    -0.311 N 
ATOM     15  C15 <0> d           0.534   0.383  -0.325  0.00  0.00     0.229 C 
ATOM     16  O2  <0> d           1.646  -0.011  -0.608  0.00  0.00    -0.273 OA
ATOM     17  H18 <0> d          -0.614   2.020  -0.069  0.00  0.00     0.170 HD
BRANCH  15  18
ATOM     18  C16 <0> d          -0.557  -0.606  -0.006  0.00  0.00     0.104 C 
ATOM     19  C19 <0> d          -1.072  -0.411   1.436  0.00  0.00     0.181 C 
ATOM     20  O3  <0> d          -1.283  -1.710   2.001  0.00  0.00    -0.390 OA
ATOM     21  C18 <0> d          -0.984  -2.723   1.026  0.00  0.00     0.168 C 
ATOM     22  C17 <0> d           0.004  -2.054   0.038  0.00  0.00     0.042 C 
ENDBRANCH  15  18
ENDBRANCH  13  14
ENDBRANCH   6   9
BRANCH   1  23
ATOM     23  C5  <0> d          -1.722   9.168   1.328  0.00  0.00     0.073 A 
ATOM     24  C4  <0> d          -1.540  10.525   1.545  0.00  0.00     0.025 A 
ATOM     25  C3  <0> d          -1.525  10.954   2.849  0.00  0.00     0.015 A 
ATOM     26  C2  <0> d          -1.685  10.046   3.847  0.00  0.00    -0.020 A 
ATOM     27  C1  <0> d          -1.703  10.285   5.335  0.00  0.00     0.056 C 
ATOM     28  S1  <0> d          -1.872   8.549   2.994  0.00  0.00    -0.090 SA
ENDBRANCH   1  23
TORSDOF 4
