REMARK  5 active torsions:
REMARK  status: ('A' for Active; 'I' for Inactive)
REMARK    1  A    between atoms: C9_9  and  C11_14 
REMARK    2  A    between atoms: C11_14  and  N2_15 
REMARK    3  A    between atoms: N2_15  and  C12_16 
REMARK       I    between atoms: N2_15  and  C14_19 
REMARK    4  A    between atoms: C12_16  and  C13_17 
REMARK    5  A    between atoms: C13_17  and  O2_18 
ROOT
ATOM      1  C1  <0> d           1.506  -4.905  -2.852  0.00  0.00     0.049 C 
ATOM      2  C2  <0> d           1.045  -3.962  -3.933  0.00  0.00    -0.050 A 
ATOM      3  C3  <0> d           1.313  -4.238  -5.244  0.00  0.00     0.008 A 
ATOM      4  C4  <0> d           0.894  -3.376  -6.247  0.00  0.00     0.009 A 
ATOM      5  C5  <0> d           0.198  -2.225  -5.942  0.00  0.00    -0.034 A 
ATOM      6  C6  <0> d          -0.086  -1.924  -4.614  0.00  0.00     0.051 A 
ATOM      7  C7  <0> d           0.341  -2.801  -3.599  0.00  0.00    -0.002 A 
ATOM      8  C8  <0> d           0.036  -2.474  -2.205  0.00  0.00     0.028 A 
ATOM      9  C9  <0> d          -0.649  -1.335  -1.941  0.00  0.00     0.029 A 
ATOM     10  C10 <0> d          -1.060  -0.492  -2.996  0.00  0.00     0.253 A 
ATOM     11  O1  <0> d          -1.679   0.525  -2.737  0.00  0.00    -0.268 OA
ATOM     12  N1  <0> d          -0.781  -0.780  -4.279  0.00  0.00    -0.322 N 
ATOM     13  H1  <0> d          -1.081  -0.157  -5.002  0.00  0.00     0.169 HD
ATOM     14  C16 <0> d          -0.251  -1.298  -7.041  0.00  0.00     0.050 C 
ENDROOT
BRANCH   9  15
ATOM     15  C11 <0> d          -0.980  -0.969  -0.517  0.00  0.00     0.170 C 
BRANCH  15  16
ATOM     16  N2  <0> d           0.044  -0.060   0.004  0.00  0.00    -0.346 N 
ATOM     17  C14 <0> d           1.174  -0.557   0.546  0.00  0.00     0.216 C 
ATOM     18  O3  <0> d           1.984   0.191   1.052  0.00  0.00    -0.274 OA
ATOM     19  C15 <0> d           1.430  -2.042   0.525  0.00  0.00     0.117 C 
BRANCH  16  20
ATOM     20  C12 <0> d          -0.160   1.389  -0.064  0.00  0.00     0.152 C 
BRANCH  20  21
ATOM     21  C13 <0> d          -0.979   1.846   1.144  0.00  0.00     0.184 C 
BRANCH  21  22
ATOM     22  O2  <0> d          -0.229   1.626   2.340  0.00  0.00    -0.399 OA
ATOM     23  H14 <0> d          -0.688   1.894   3.147  0.00  0.00     0.209 HD
ENDBRANCH  21  22
ENDBRANCH  20  21
ENDBRANCH  16  20
ENDBRANCH  15  16
ENDBRANCH   9  15
TORSDOF 5
