REMARK  7 active torsions:
REMARK  status: ('A' for Active; 'I' for Inactive)
REMARK    1  A    between atoms: C3_3  and  C6_7 
REMARK    2  A    between atoms: C6_7  and  N1_8 
REMARK       I    between atoms: N1_8  and  C7_9 
REMARK    3  A    between atoms: C7_9  and  C8_11 
REMARK       I    between atoms: C8_11  and  N2_13 
REMARK    4  A    between atoms: N2_13  and  C9_14 
REMARK    5  A    between atoms: C13_18  and  N3_20 
REMARK    6  A    between atoms: N4_23  and  C19_26 
REMARK    7  A    between atoms: C19_26  and  C20_27 
ROOT
ATOM      1  C9  <0> d          -6.264   1.699  -4.451  0.00  0.00     0.037 A 
ATOM      2  C10 <0> d          -5.393   1.636  -5.532  0.00  0.00     0.029 A 
ATOM      3  C11 <0> d          -5.793   2.096  -6.771  0.00  0.00     0.004 A 
ATOM      4  C12 <0> d          -7.060   2.621  -6.941  0.00  0.00     0.029 A 
ATOM      5  C13 <0> d          -7.936   2.687  -5.864  0.00  0.00     0.032 A 
ATOM      6  C14 <0> d          -7.539   2.220  -4.619  0.00  0.00     0.058 A 
ENDROOT
BRANCH   1   7
ATOM      7  N2  <0> d          -5.858   1.233  -3.198  0.00  0.00    -0.319 N 
ATOM      8  C8  <0> d          -4.579   1.391  -2.802  0.00  0.00     0.313 C 
ATOM      9  O3  <0> d          -3.762   1.863  -3.565  0.00  0.00    -0.262 OA
ATOM     10  H9  <0> d          -6.497   0.797  -2.612  0.00  0.00     0.169 HD
BRANCH   8  11
ATOM     11  C7  <0> d          -4.168   0.984  -1.425  0.00  0.00     0.309 C 
ATOM     12  N1  <0> d          -2.889   1.141  -1.030  0.00  0.00    -0.349 N 
ATOM     13  H8  <0> d          -2.236   1.518  -1.639  0.00  0.00     0.163 HD
ATOM     14  O2  <0> d          -4.986   0.511  -0.662  0.00  0.00    -0.262 OA
BRANCH  12  15
ATOM     15  C6  <0> d          -2.486   0.742   0.321  0.00  0.00     0.164 C 
BRANCH  15  16
ATOM     16  C3  <0> d          -1.017   1.020   0.510  0.00  0.00    -0.009 A 
ATOM     17  C2  <0> d          -0.456   2.209   0.792  0.00  0.00     0.056 A 
ATOM     18  C1  <0> d          -1.194   3.510   0.976  0.00  0.00     0.077 C 
ATOM     19  O1  <0> d           0.874   2.042   0.876  0.00  0.00    -0.327 OA
ATOM     20  C5  <0> d           1.178   0.752   0.660  0.00  0.00     0.142 A 
ATOM     21  C4  <0> d           0.036   0.080   0.425  0.00  0.00     0.036 A 
ENDBRANCH  15  16
ENDBRANCH  12  15
ENDBRANCH   8  11
ENDBRANCH   1   7
BRANCH   5  22
ATOM     22  N3  <0> d          -9.217   3.218  -6.036  0.00  0.00    -0.378 N 
ATOM     23  C18 <0> d          -9.703   3.603  -7.370  0.00  0.00     0.150 C 
ATOM     24  C17 <0> d         -10.262   5.023  -7.296  0.00  0.00     0.254 C 
ATOM     25  N4  <0> d         -11.276   5.097  -6.236  0.00  0.00    -0.068 N 
ATOM     26  C16 <0> d         -10.653   4.847  -4.930  0.00  0.00     0.254 C 
ATOM     27  H29 <0> d         -11.989   4.403  -6.405  0.00  0.00     0.280 HD
ATOM     28  C15 <0> d         -10.115   3.413  -4.887  0.00  0.00     0.150 C 
BRANCH  25  29
ATOM     29  C19 <0> d         -11.888   6.432  -6.237  0.00  0.00     0.239 C 
BRANCH  29  30
ATOM     30  C20 <0> d         -12.644   6.645  -7.550  0.00  0.00     0.011 A 
ATOM     31  C22 <0> d         -13.452   7.936  -7.699  0.00  0.00     0.007 A 
ATOM     32  C21 <0> d         -12.148   7.756  -8.479  0.00  0.00     0.007 A 
ENDBRANCH  29  30
ENDBRANCH  25  29
ENDBRANCH   5  22
TORSDOF 7
