REMARK  5 active torsions:
REMARK  status: ('A' for Active; 'I' for Inactive)
REMARK    1  A    between atoms: C6_6  and  S2_22 
REMARK       I    between atoms: N1_10  and  C10_11 
REMARK    2  A    between atoms: C10_11  and  C11_13 
REMARK    3  A    between atoms: C11_13  and  S1_14 
REMARK    4  A    between atoms: S1_14  and  C12_15 
REMARK    5  A    between atoms: S2_22  and  N3_25 
ROOT
ATOM      1  C1  <0> d           0.031   1.808   0.133  0.00  0.00     0.033 C 
ATOM      2  C2  <0> d          -0.080   0.282   0.173  0.00  0.00     0.093 A 
ATOM      3  C3  <0> d          -1.549  -0.142   0.331  0.00  0.00     0.066 A 
ATOM      4  C4  <0> d          -1.588  -0.903   1.637  0.00  0.00    -0.028 A 
ATOM      5  C5  <0> d          -2.635  -1.520   2.295  0.00  0.00     0.034 A 
ATOM      6  C6  <0> d          -2.415  -2.163   3.499  0.00  0.00     0.080 A 
ATOM      7  C7  <0> d          -1.144  -2.188   4.043  0.00  0.00     0.027 A 
ATOM      8  C8  <0> d          -0.097  -1.574   3.390  0.00  0.00     0.032 A 
ATOM      9  C9  <0> d          -0.311  -0.922   2.174  0.00  0.00     0.044 A 
ATOM     10  N1  <0> d           0.604  -0.246   1.357  0.00  0.00    -0.312 N 
ATOM     11  C10 <0> d           1.918  -0.101   1.619  0.00  0.00     0.234 C 
ATOM     12  O1  <0> d           2.627   0.505   0.845  0.00  0.00    -0.272 OA
ENDROOT
BRANCH  11  13
ATOM     13  C11 <0> d           2.505  -0.693   2.875  0.00  0.00     0.184 C 
BRANCH  13  14
ATOM     14  S1  <0> d           4.281  -0.330   2.940  0.00  0.00    -0.101 SA
BRANCH  14  15
ATOM     15  C12 <0> d           4.813  -1.077   4.445  0.00  0.00     0.102 A 
ATOM     16  N2  <0> d           5.988  -0.748   4.962  0.00  0.00    -0.194 N 
ATOM     17  C16 <0> d           6.421  -1.280   6.090  0.00  0.00     0.127 A 
ATOM     18  O2  <0> d           6.797   0.202   4.291  0.00  0.00    -0.080 OA
ATOM     19  C15 <0> d           5.664  -2.214   6.769  0.00  0.00     0.020 A 
ATOM     20  C14 <0> d           4.429  -2.590   6.257  0.00  0.00     0.004 A 
ATOM     21  C13 <0> d           3.999  -2.011   5.076  0.00  0.00     0.039 A 
ENDBRANCH  14  15
ENDBRANCH  13  14
ENDBRANCH  11  13
BRANCH   6  22
ATOM     22  S2  <0> d          -3.750  -2.950   4.337  0.00  0.00     0.256 S 
ATOM     23  O3  <0> d          -3.389  -3.010   5.710  0.00  0.00    -0.201 OA
ATOM     24  O4  <0> d          -4.940  -2.315   3.890  0.00  0.00    -0.201 OA
BRANCH  22  25
ATOM     25  N3  <0> d          -3.816  -4.513   3.795  0.00  0.00    -0.324 N 
ATOM     26  H16 <0> d          -3.179  -4.824   3.133  0.00  0.00     0.169 HD
ATOM     27  H17 <0> d          -4.491  -5.118   4.139  0.00  0.00     0.169 HD
ENDBRANCH  22  25
ENDBRANCH   6  22
TORSDOF 5
