REMARK  3 active torsions:
REMARK  status: ('A' for Active; 'I' for Inactive)
REMARK    1  A    between atoms: C4_6  and  C5_7 
REMARK    2  A    between atoms: C5_7  and  N3_8 
REMARK    3  A    between atoms: C8_11  and  O1_13 
ROOT
ATOM      1  N3  <0> d          -1.596  -0.420   2.933  0.00  0.00    -0.062 N 
ATOM      2  C6  <0> d          -2.403   0.482   2.085  0.00  0.00     0.238 C 
ATOM      3  C7  <0> d          -3.472   1.071   3.039  0.00  0.00     0.061 C 
ATOM      4  C8  <0> d          -2.662   1.240   4.351  0.00  0.00     0.145 C 
ATOM      5  C9  <0> d          -1.716   0.021   4.335  0.00  0.00     0.267 C 
ATOM      6  H15 <0> d          -1.940  -1.365   2.844  0.00  0.00     0.280 HD
ENDROOT
BRANCH   1   7
ATOM      7  C5  <0> d          -0.189  -0.364   2.516  0.00  0.00     0.313 C 
BRANCH   7   8
ATOM      8  C4  <0> d          -0.052  -0.945   1.132  0.00  0.00     0.132 A 
ATOM      9  N1  <0> d           0.088  -2.257   0.840  0.00  0.00    -0.328 N 
ATOM     10  C1  <0> d           0.134  -3.362   1.801  0.00  0.00     0.159 C 
ATOM     11  C2  <0> d           0.173  -2.362  -0.522  0.00  0.00     0.124 A 
ATOM     12  C3  <0> d           0.088  -1.110  -1.015  0.00  0.00     0.161 A 
ATOM     13 Cl1  <0> d           0.357  -3.825  -1.439  0.00  0.00    -0.063 Cl
ATOM     14  N2  <0> d          -0.045  -0.265   0.019  0.00  0.00    -0.242 NA
ENDBRANCH   7   8
ENDBRANCH   1   7
BRANCH   4  15
ATOM     15  O1  <0> d          -3.527   1.198   5.488  0.00  0.00    -0.394 OA
ATOM     16  H14 <0> d          -4.190   1.901   5.505  0.00  0.00     0.210 HD
ENDBRANCH   4  15
TORSDOF 3
