REMARK  6 active torsions:
REMARK  status: ('A' for Active; 'I' for Inactive)
REMARK    1  A    between atoms: C2_2  and  O1_3 
REMARK    2  A    between atoms: O1_3  and  C3_4 
REMARK    3  A    between atoms: C3_4  and  C4_6 
REMARK    4  A    between atoms: C4_6  and  C5_7 
REMARK    5  A    between atoms: C8_12  and  C12_19 
REMARK    6  A    between atoms: C10_14  and  N3_16 
ROOT
ATOM      1  C5  <0> d           1.496  -3.885   2.424  0.00  0.00     0.057 A 
ATOM      2  N1  <0> d           0.965  -4.610   1.492  0.00  0.00    -0.156 NA
ATOM      3  N2  <0> d           1.148  -5.976   1.708  0.00  0.00    -0.128 NA
ATOM      4  C6  <0> d           1.843  -6.207   2.761  0.00  0.00     0.180 A 
ATOM      5  C7  <0> d           2.098  -4.852   3.416  0.00  0.00     0.129 A 
ATOM      6  C8  <0> d           3.623  -4.704   3.483  0.00  0.00     0.091 C 
ATOM      7  C9  <0> d           4.221  -6.019   3.910  0.00  0.00     0.083 C 
ATOM      8  C10 <0> d           3.598  -7.210   3.800  0.00  0.00     0.161 C 
ATOM      9  O3  <0> d           2.337  -7.342   3.301  0.00  0.00    -0.276 OA
ATOM     10  C11 <0> d           5.539  -6.003   4.470  0.00  0.00     0.100 C 
ATOM     11  N4  <0> d           6.584  -5.990   4.913  0.00  0.00    -0.191 NA
ENDROOT
BRANCH   6  12
ATOM     12  C12 <0> d           4.153  -4.323   2.125  0.00  0.00    -0.006 A 
ATOM     13  S1  <0> d           4.029  -5.209   0.580  0.00  0.00    -0.104 SA
ATOM     14  C15 <0> d           4.909  -4.045  -0.449  0.00  0.00     0.069 A 
ATOM     15  C14 <0> d           5.241  -3.078   0.441  0.00  0.00     0.018 A 
ATOM     16  C13 <0> d           4.853  -3.220   1.761  0.00  0.00     0.035 A 
ATOM     17 Br1  <0> d           6.218  -1.558  -0.113  0.00  0.00    -0.051 Br
ENDBRANCH   6  12
BRANCH   8  18
ATOM     18  N3  <0> d           4.261  -8.338   4.214  0.00  0.00    -0.379 N 
ATOM     19  H10 <0> d           5.158  -8.268   4.577  0.00  0.00     0.158 HD
ATOM     20  H11 <0> d           3.832  -9.206   4.145  0.00  0.00     0.158 HD
ENDBRANCH   8  18
BRANCH   1  21
ATOM     21  C4  <0> d           1.516  -2.381   2.500  0.00  0.00     0.168 C 
BRANCH  21  22
ATOM     22  C3  <0> d           0.801  -1.808   1.304  0.00  0.00     0.264 C 
ATOM     23  O2  <0> d           0.324  -2.546   0.475  0.00  0.00    -0.265 OA
BRANCH  22  24
ATOM     24  O1  <0> d           0.693  -0.477   1.160  0.00  0.00    -0.322 OA
BRANCH  24  25
ATOM     25  C2  <0> d           0.002  -0.004   0.002  0.00  0.00     0.174 C 
ATOM     26  C1  <0> d          -0.019   1.526   0.010  0.00  0.00     0.034 C 
ENDBRANCH  24  25
ENDBRANCH  22  24
ENDBRANCH  21  22
ENDBRANCH   1  21
TORSDOF 6
