REMARK  4 active torsions:
REMARK  status: ('A' for Active; 'I' for Inactive)
REMARK    1  A    between atoms: C4_4  and  N3_8 
REMARK       I    between atoms: N3_8  and  C5_9 
REMARK    2  A    between atoms: C5_9  and  C6_11 
REMARK    3  A    between atoms: C8_13  and  N4_21 
REMARK    4  A    between atoms: C10_15  and  S1_17 
ROOT
ATOM      1  C6  <0> d           0.042  -4.288  -3.758  0.00  0.00     0.036 A 
ATOM      2  C7  <0> d           0.056  -5.566  -3.196  0.00  0.00     0.053 A 
ATOM      3  C8  <0> d           0.067  -6.676  -4.015  0.00  0.00     0.105 A 
ATOM      4  C9  <0> d           0.064  -6.524  -5.391  0.00  0.00     0.059 A 
ATOM      5  C10 <0> d           0.050  -5.261  -5.954  0.00  0.00     0.062 A 
ATOM      6  C11 <0> d           0.033  -4.142  -5.146  0.00  0.00     0.040 A 
ENDROOT
BRANCH   1   7
ATOM      7  C5  <0> d           0.030  -3.094  -2.886  0.00  0.00     0.257 C 
ATOM      8  N3  <0> d           0.038  -3.238  -1.546  0.00  0.00    -0.308 N 
ATOM      9  H6  <0> d           0.052  -4.125  -1.154  0.00  0.00     0.170 HD
ATOM     10  O1  <0> d           0.013  -1.982  -3.378  0.00  0.00    -0.267 OA
BRANCH   8  11
ATOM     11  C4  <0> d           0.027  -2.112  -0.724  0.00  0.00     0.126 A 
ATOM     12  C3  <0> d           0.008  -0.815  -1.136  0.00  0.00     0.078 A 
ATOM     13  C2  <0> d           0.002  -0.004   0.002  0.00  0.00     0.054 A 
ATOM     14  C1  <0> d          -0.018   1.503   0.010  0.00  0.00     0.072 C 
ATOM     15  N2  <0> d           0.023  -0.775   1.059  0.00  0.00    -0.178 NA
ATOM     16  N1  <0> d           0.034  -2.109   0.634  0.00  0.00    -0.262 N 
ATOM     17  H1  <0> d           0.047  -2.892   1.207  0.00  0.00     0.191 HD
ENDBRANCH   8  11
ENDBRANCH   1   7
BRANCH   5  18
ATOM     18  S1  <0> d           0.046  -5.079  -7.706  0.00  0.00     0.172 S 
ATOM     19  O2  <0> d           0.635  -3.807  -7.940  0.00  0.00    -0.223 OA
ATOM     20  O3  <0> d           0.662  -6.263  -8.194  0.00  0.00    -0.223 OA
ATOM     21  C12 <0> d          -1.707  -5.050  -8.169  0.00  0.00     0.167 C 
ENDBRANCH   5  18
BRANCH   3  22
ATOM     22  N4  <0> d           0.082  -8.031  -3.421  0.00  0.00    -0.116 N 
ATOM     23  O4  <0> d           0.085  -8.165  -2.220  0.00  0.00    -0.532 OA
ATOM     24  O5  <0> d           0.091  -9.005  -4.138  0.00  0.00    -0.532 OA
ENDBRANCH   3  22
TORSDOF 4
