REMARK  4 active torsions:
REMARK  status: ('A' for Active; 'I' for Inactive)
REMARK    1  A    between atoms: O1_2  and  C2_3 
REMARK    2  A    between atoms: C5_6  and  C8_10 
REMARK    3  A    between atoms: N1_11  and  N2_12 
REMARK    4  A    between atoms: N2_12  and  C9_13 
ROOT
ATOM      1  N2  <0> d           3.159  -4.407  -5.522  0.00  0.00    -0.273 N 
ATOM      2  H8  <0> d           3.555  -3.869  -6.226  0.00  0.00     0.186 HD
ENDROOT
BRANCH   1   3
ATOM      3  N1  <0> d           2.538  -3.785  -4.431  0.00  0.00    -0.188 NA
ATOM      4  C8  <0> d           2.491  -2.491  -4.362  0.00  0.00     0.149 C 
BRANCH   4   5
ATOM      5  C5  <0> d           1.837  -1.837  -3.213  0.00  0.00    -0.016 A 
ATOM      6  C4  <0> d           1.785  -0.443  -3.136  0.00  0.00     0.016 A 
ATOM      7  C3  <0> d           1.172   0.164  -2.062  0.00  0.00     0.039 A 
ATOM      8  C2  <0> d           0.606  -0.607  -1.056  0.00  0.00     0.085 A 
ATOM      9  C7  <0> d           0.659  -1.994  -1.125  0.00  0.00     0.045 A 
ATOM     10  C6  <0> d           1.266  -2.610  -2.199  0.00  0.00     0.034 A 
ATOM     11 Br1  <0> d          -0.107  -3.038   0.253  0.00  0.00    -0.048 Br
BRANCH   8  12
ATOM     12  O1  <0> d           0.002  -0.004   0.002  0.00  0.00    -0.355 OA
ATOM     13  C1  <0> d          -0.017   1.425   0.010  0.00  0.00     0.210 C 
ENDBRANCH   8  12
ENDBRANCH   4   5
ENDBRANCH   1   3
BRANCH   1  14
ATOM     14  C9  <0> d           3.212  -5.868  -5.601  0.00  0.00     0.306 A 
ATOM     15  N4  <0> d           4.417  -6.291  -6.325  0.00  0.00    -0.350 N 
ATOM     16  C15 <0> d           4.029  -6.954  -7.376  0.00  0.00     0.057 A 
ATOM     17  H15 <0> d           5.335  -6.110  -6.068  0.00  0.00     0.163 HD
ATOM     18  C10 <0> d           2.542  -7.006  -7.405  0.00  0.00     0.057 A 
ATOM     19  C14 <0> d           4.760  -7.615  -8.466  0.00  0.00     0.031 A 
ATOM     20  N3  <0> d           2.068  -6.373  -6.370  0.00  0.00    -0.350 N 
ATOM     21  C11 <0> d           1.902  -7.715  -8.521  0.00  0.00     0.031 A 
ATOM     22  H14 <0> d           1.131  -6.257  -6.148  0.00  0.00     0.163 HD
ATOM     23  C12 <0> d           2.668  -8.288  -9.471  0.00  0.00     0.002 A 
ATOM     24  C13 <0> d           4.073  -8.239  -9.444  0.00  0.00     0.002 A 
ENDBRANCH   1  14
TORSDOF 4
