REMARK  7 active torsions:
REMARK  status: ('A' for Active; 'I' for Inactive)
REMARK    1  A    between atoms: C7_7  and  N1_8 
REMARK    2  A    between atoms: C8_9  and  N2_10 
REMARK    3  A    between atoms: C12_18  and  S1_19 
REMARK    4  A    between atoms: S1_19  and  C13_20 
REMARK    5  A    between atoms: C13_20  and  C14_21 
REMARK       I    between atoms: C14_21  and  N6_23 
REMARK    6  A    between atoms: N6_23  and  C15_24 
REMARK    7  A    between atoms: C19_28  and  O2_30 
ROOT
ATOM      1  N1  <0> d           2.351   3.901   0.001  0.00  0.00    -0.275 N 
ATOM      2  C8  <0> d           2.952   4.265   1.196  0.00  0.00     0.124 A 
ATOM      3  C9  <0> d           4.208   5.022   1.115  0.00  0.00     0.081 A 
ATOM      4  C10 <0> d           5.096   5.556   2.064  0.00  0.00     0.068 A 
ATOM      5  N3  <0> d           6.069   6.152   1.428  0.00  0.00    -0.177 NA
ATOM      6  N4  <0> d           5.863   6.035   0.048  0.00  0.00    -0.260 N 
ATOM      7  H1  <0> d           6.584   6.479  -0.655  0.00  0.00     0.191 HD
ATOM      8  C11 <0> d           4.713   5.337  -0.154  0.00  0.00     0.162 A 
ATOM      9  N5  <0> d           4.048   4.941  -1.250  0.00  0.00    -0.204 NA
ATOM     10  C12 <0> d           2.930   4.261  -1.185  0.00  0.00     0.177 A 
ATOM     11  C22 <0> d           4.951   5.458   3.561  0.00  0.00     0.073 C 
ENDROOT
BRANCH  10  12
ATOM     12  S1  <0> d           2.139   3.789  -2.688  0.00  0.00    -0.082 SA
BRANCH  12  13
ATOM     13  C13 <0> d           3.295   4.500  -3.887  0.00  0.00     0.185 C 
BRANCH  13  14
ATOM     14  C14 <0> d           2.808   4.213  -5.284  0.00  0.00     0.231 C 
ATOM     15  O1  <0> d           1.781   3.589  -5.452  0.00  0.00    -0.272 OA
ATOM     16  N6  <0> d           3.514   4.649  -6.346  0.00  0.00    -0.326 N 
ATOM     17  H12 <0> d           4.403   5.278  -6.195  0.00  0.00     0.169 HD
BRANCH  16  18
ATOM     18  C15 <0> d           3.116   4.300  -7.641  0.00  0.00     0.037 A 
ATOM     19  C20 <0> d           1.767   4.185  -7.946  0.00  0.00     0.066 A 
ATOM     20  C19 <0> d           1.376   3.839  -9.230  0.00  0.00     0.070 A 
ATOM     21  C18 <0> d           2.334   3.611 -10.208  0.00  0.00     0.037 A 
ATOM     22  C17 <0> d           3.677   3.727  -9.903  0.00  0.00     0.005 A 
ATOM     23  C16 <0> d           4.070   4.076  -8.626  0.00  0.00     0.029 A 
BRANCH  20  24
ATOM     24  O2  <0> d           0.056   3.726  -9.532  0.00  0.00    -0.356 OA
ATOM     25  C21 <0> d          -0.274   3.367 -10.875  0.00  0.00     0.210 C 
ENDBRANCH  20  24
ENDBRANCH  16  18
ENDBRANCH  13  14
ENDBRANCH  12  13
ENDBRANCH  10  12
BRANCH   1  26
ATOM     26  C7  <0> d           1.153   3.174   0.008  0.00  0.00     0.049 A 
ATOM     27  C2  <0> d          -0.065   3.840   0.019  0.00  0.00    -0.035 A 
ATOM     28  C1  <0> d          -0.101   5.346   0.024  0.00  0.00     0.050 C 
ATOM     29  C3  <0> d          -1.244   3.120   0.027  0.00  0.00     0.009 A 
ATOM     30  C4  <0> d          -1.212   1.738   0.018  0.00  0.00     0.001 A 
ATOM     31  C5  <0> d           0.001   1.071   0.013  0.00  0.00     0.002 A 
ATOM     32  C6  <0> d           1.183   1.785   0.005  0.00  0.00     0.031 A 
ENDBRANCH   1  26
BRANCH   2  33
ATOM     33  N2  <0> d           2.424   3.942   2.351  0.00  0.00    -0.384 N 
ATOM     34  H9  <0> d           2.921   4.242   3.286  0.00  0.00     0.157 HD
ATOM     35  H23 <0> d           1.485   3.371   2.386  0.00  0.00     0.157 HD
ENDBRANCH   2  33
TORSDOF 7
