REMARK  4 active torsions:
REMARK  status: ('A' for Active; 'I' for Inactive)
REMARK    1  A    between atoms: C6_6  and  N1_8 
REMARK    2  A    between atoms: C14_20  and  C15_21 
REMARK    3  A    between atoms: C15_21  and  C16_22 
REMARK       I    between atoms: C16_22  and  N5_24 
REMARK    4  A    between atoms: N5_24  and  C17_25 
ROOT
ATOM      1  N1  <0> d          -0.128   5.550  -0.345  0.00  0.00    -0.215 N 
ATOM      2  C8  <0> d           0.768   6.263   0.391  0.00  0.00     0.171 A 
ATOM      3  C9  <0> d           0.491   7.621   0.163  0.00  0.00     0.099 A 
ATOM      4  C10 <0> d          -0.605   7.673  -0.725  0.00  0.00     0.160 A 
ATOM      5  N2  <0> d          -0.960   6.453  -1.016  0.00  0.00    -0.177 NA
ATOM      6  C11 <0> d           1.282   8.596   0.807  0.00  0.00     0.265 A 
ATOM      7  O1  <0> d           1.058   9.780   0.629  0.00  0.00    -0.267 OA
ATOM      8  N3  <0> d           2.306   8.207   1.635  0.00  0.00    -0.286 N 
ATOM      9  C12 <0> d           2.507   6.865   1.795  0.00  0.00     0.174 A 
ATOM     10  N4  <0> d           1.781   5.944   1.203  0.00  0.00    -0.204 NA
ATOM     11  S1  <0> d           3.883   6.683   2.910  0.00  0.00    -0.090 SA
ATOM     12  C13 <0> d           4.255   8.449   3.216  0.00  0.00     0.108 A 
ATOM     13  C14 <0> d           3.185   9.130   2.351  0.00  0.00     0.113 A 
ENDROOT
BRANCH  13  14
ATOM     14  C15 <0> d           2.325  10.018   3.253  0.00  0.00     0.129 C 
BRANCH  14  15
ATOM     15  C16 <0> d           3.189  11.081   3.882  0.00  0.00     0.224 C 
ATOM     16  O2  <0> d           4.349  11.196   3.547  0.00  0.00    -0.273 OA
ATOM     17  N5  <0> d           2.672  11.904   4.815  0.00  0.00    -0.327 N 
ATOM     18  H14 <0> d           1.764  11.771   5.130  0.00  0.00     0.169 HD
BRANCH  17  19
ATOM     19  C17 <0> d           3.443  12.947   5.330  0.00  0.00     0.037 A 
ATOM     20  C21 <0> d           2.858  14.162   5.683  0.00  0.00     0.049 A 
ATOM     21  C20 <0> d           3.655  15.168   6.188  0.00  0.00     0.118 A 
ATOM     22  N6  <0> d           4.954  14.991   6.339  0.00  0.00    -0.273 NA
ATOM     23  C19 <0> d           5.545  13.856   6.017  0.00  0.00     0.118 A 
ATOM     24  C18 <0> d           4.817  12.799   5.510  0.00  0.00     0.049 A 
ENDBRANCH  17  19
ENDBRANCH  14  15
ENDBRANCH  13  14
BRANCH   1  25
ATOM     25  C6  <0> d          -0.208   4.153  -0.413  0.00  0.00     0.061 A 
ATOM     26  C5  <0> d           0.949   3.387  -0.364  0.00  0.00     0.032 A 
ATOM     27  C4  <0> d           0.867   2.010  -0.432  0.00  0.00     0.003 A 
ATOM     28  C3  <0> d          -0.365   1.394  -0.549  0.00  0.00     0.007 A 
ATOM     29  C2  <0> d          -1.519   2.155  -0.603  0.00  0.00    -0.060 A 
ATOM     30  C1  <0> d          -2.860   1.480  -0.738  0.00  0.00     0.048 C 
ATOM     31  C7  <0> d          -1.444   3.531  -0.530  0.00  0.00     0.038 A 
ENDBRANCH   1  25
TORSDOF 4
