REMARK  1 active torsions:
REMARK  status: ('A' for Active; 'I' for Inactive)
REMARK    1  A    between atoms: C5_7  and  N4_11 
ROOT
ATOM      1  N4  <0> d          -2.321  -0.695   0.021  0.00  0.00    -0.365 N 
ATOM      2  C7  <0> d          -2.758   0.703   0.137  0.00  0.00     0.125 C 
ATOM      3  C8  <0> d          -3.724   0.819   1.323  0.00  0.00     0.031 C 
ATOM      4  C9  <0> d          -4.844  -0.199   1.166  0.00  0.00    -0.013 C 
ATOM      5  C10 <0> d          -4.300  -1.619   1.107  0.00  0.00     0.031 C 
ATOM      6  C11 <0> d          -3.338  -1.749  -0.085  0.00  0.00     0.125 C 
ATOM      7  C12 <0> d          -5.688   0.111  -0.084  0.00  0.00     0.114 C 
ATOM      8  C13 <0> d          -7.106  -0.210   0.341  0.00  0.00     0.218 C 
ATOM      9  O1  <0> d          -8.040  -0.361  -0.417  0.00  0.00    -0.274 OA
ATOM     10  N5  <0> d          -7.177  -0.303   1.681  0.00  0.00    -0.360 N 
ATOM     11  C14 <0> d          -5.870  -0.057   2.304  0.00  0.00     0.132 C 
ATOM     12  H15 <0> d          -7.988  -0.506   2.173  0.00  0.00     0.162 HD
ENDROOT
BRANCH   1  13
ATOM     13  C5  <0> d          -0.974  -1.012   0.006  0.00  0.00     0.141 A 
ATOM     14  C4  <0> d          -0.267  -1.089  -1.203  0.00  0.00     0.057 A 
ATOM     15  C1  <0> d          -0.604  -0.905  -2.614  0.00  0.00     0.036 A 
ATOM     16  C3  <0> d           1.101  -1.415  -1.165  0.00  0.00     0.142 A 
ATOM     17  C2  <0> d           0.523  -1.119  -3.313  0.00  0.00     0.091 A 
ATOM     18  N1  <0> d           1.550  -1.425  -2.458  0.00  0.00    -0.350 N 
ATOM     19  H1  <0> d           2.460  -1.620  -2.729  0.00  0.00     0.166 HD
ATOM     20  N3  <0> d           1.670  -1.637   0.018  0.00  0.00    -0.223 NA
ATOM     21  C6  <0> d           0.968  -1.553   1.128  0.00  0.00     0.237 A 
ATOM     22  N2  <0> d          -0.317  -1.250   1.137  0.00  0.00    -0.224 NA
ENDBRANCH   1  13
TORSDOF 1
