REMARK  4 active torsions:
REMARK  status: ('A' for Active; 'I' for Inactive)
REMARK    1  A    between atoms: C5_5  and  C10_12 
REMARK    2  A    between atoms: C7_7  and  N1_8 
REMARK       I    between atoms: N1_8  and  C8_9 
REMARK       I    between atoms: C10_12  and  N2_14 
REMARK    3  A    between atoms: N2_14  and  N3_15 
REMARK    4  A    between atoms: N3_15  and  C11_16 
ROOT
ATOM      1  C10 <0> d           0.085  -4.266  -0.011  0.00  0.00     0.270 C 
ATOM      2  O2  <0> d           0.095  -4.879   1.039  0.00  0.00    -0.266 OA
ATOM      3  N2  <0> d           0.096  -4.934  -1.181  0.00  0.00    -0.264 N 
ATOM      4  H11 <0> d           0.088  -4.445  -2.019  0.00  0.00     0.190 HD
ENDROOT
BRANCH   1   5
ATOM      5  C5  <0> d           0.061  -2.788  -0.003  0.00  0.00     0.035 A 
ATOM      6  C4  <0> d           0.050  -2.081  -1.207  0.00  0.00     0.018 A 
ATOM      7  C3  <0> d           0.027  -0.702  -1.198  0.00  0.00     0.010 A 
ATOM      8  C2  <0> d           0.015  -0.014   0.002  0.00  0.00    -0.035 A 
ATOM      9  C1  <0> d          -0.009   1.493   0.004  0.00  0.00     0.050 C 
ATOM     10  C7  <0> d           0.032  -0.708   1.206  0.00  0.00     0.041 A 
ATOM     11  C6  <0> d           0.049  -2.094   1.207  0.00  0.00     0.047 A 
BRANCH  10  12
ATOM     12  N1  <0> d           0.025  -0.007   2.417  0.00  0.00    -0.327 N 
ATOM     13  C8  <0> d          -0.632  -0.509   3.482  0.00  0.00     0.218 C 
ATOM     14  O1  <0> d          -1.147  -1.604   3.416  0.00  0.00    -0.274 OA
ATOM     15  C9  <0> d          -0.725   0.292   4.755  0.00  0.00     0.117 C 
ATOM     16  H7  <0> d           0.493   0.839   2.491  0.00  0.00     0.169 HD
ENDBRANCH  10  12
ENDBRANCH   1   5
BRANCH   3  17
ATOM     17  N3  <0> d           0.118  -6.335  -1.188  0.00  0.00    -0.277 N 
ATOM     18  H19 <0> d           0.126  -6.824  -0.351  0.00  0.00     0.189 HD
BRANCH  17  19
ATOM     19  C11 <0> d           0.130  -7.018  -2.387  0.00  0.00     0.166 A 
ATOM     20  S1  <0> d           0.119  -6.365  -4.051  0.00  0.00    -0.050 SA
ATOM     21  C17 <0> d           0.147  -7.923  -4.903  0.00  0.00     0.035 A 
ATOM     22  C12 <0> d           0.155  -8.850  -3.836  0.00  0.00     0.053 A 
ATOM     23  C16 <0> d           0.157  -8.309  -6.220  0.00  0.00     0.021 A 
ATOM     24  N4  <0> d           0.145  -8.315  -2.596  0.00  0.00    -0.329 N 
ATOM     25  C13 <0> d           0.173 -10.217  -4.197  0.00  0.00     0.031 A 
ATOM     26  C18 <0> d           0.152  -9.215  -1.440  0.00  0.00     0.158 C 
ATOM     27  C14 <0> d           0.182 -10.594  -5.515  0.00  0.00     0.002 A 
ATOM     28  C15 <0> d           0.174  -9.656  -6.537  0.00  0.00     0.002 A 
ENDBRANCH  17  19
ENDBRANCH   3  17
TORSDOF 4
