REMARK  4 active torsions:
REMARK  status: ('A' for Active; 'I' for Inactive)
REMARK       I    between atoms: N1_2  and  C3_4 
REMARK    1  A    between atoms: C3_4  and  C4_6 
REMARK       I    between atoms: C4_6  and  N2_8 
REMARK    2  A    between atoms: N2_8  and  C5_9 
REMARK    3  A    between atoms: C7_11  and  O4_18 
REMARK    4  A    between atoms: C8_12  and  O3_16 
ROOT
ATOM      1  C5  <0> d          -0.343  -4.011  -3.426  0.00  0.00     0.055 A 
ATOM      2  C6  <0> d          -0.460  -4.929  -2.390  0.00  0.00     0.070 A 
ATOM      3  C7  <0> d          -0.531  -6.283  -2.671  0.00  0.00     0.103 A 
ATOM      4  C8  <0> d          -0.485  -6.722  -3.991  0.00  0.00     0.102 A 
ATOM      5  C9  <0> d          -0.368  -5.805  -5.023  0.00  0.00     0.061 A 
ATOM      6  C10 <0> d          -0.302  -4.452  -4.743  0.00  0.00     0.040 A 
ATOM      7 Br1  <0> d          -0.150  -3.202  -6.153  0.00  0.00    -0.049 Br
ENDROOT
BRANCH   1   8
ATOM      8  N2  <0> d          -0.271  -2.643  -3.143  0.00  0.00    -0.318 N 
ATOM      9  C4  <0> d          -0.710  -2.176  -1.958  0.00  0.00     0.314 C 
ATOM     10  O2  <0> d          -1.263  -2.923  -1.178  0.00  0.00    -0.262 OA
ATOM     11  H7  <0> d           0.095  -2.031  -3.801  0.00  0.00     0.169 HD
BRANCH   9  12
ATOM     12  C3  <0> d          -0.515  -0.738  -1.604  0.00  0.00     0.311 C 
ATOM     13  N1  <0> d          -0.841  -0.297  -0.373  0.00  0.00    -0.353 N 
ATOM     14  C1  <0> d          -0.757   1.132  -0.060  0.00  0.00     0.152 C 
ATOM     15  C2  <0> d          -1.278  -1.247   0.654  0.00  0.00     0.152 C 
ATOM     16  O1  <0> d          -0.064   0.033  -2.425  0.00  0.00    -0.262 OA
ENDBRANCH   9  12
ENDBRANCH   1   8
BRANCH   3  17
ATOM     17  O4  <0> d          -0.645  -7.183  -1.657  0.00  0.00    -0.353 OA
ATOM     18  C12 <0> d          -0.685  -6.661  -0.328  0.00  0.00     0.210 C 
ENDBRANCH   3  17
BRANCH   4  19
ATOM     19  O3  <0> d          -0.554  -8.052  -4.268  0.00  0.00    -0.353 OA
ATOM     20  C11 <0> d          -0.502  -8.431  -5.645  0.00  0.00     0.210 C 
ENDBRANCH   4  19
TORSDOF 4
