REMARK  6 active torsions:
REMARK  status: ('A' for Active; 'I' for Inactive)
REMARK    1  A    between atoms: C2_2  and  C3_3 
REMARK    2  A    between atoms: C3_3  and  N1_5 
REMARK    3  A    between atoms: N1_5  and  C5_6 
REMARK       I    between atoms: N1_5  and  C9_13 
REMARK    4  A    between atoms: C9_13  and  C10_15 
REMARK    5  A    between atoms: C10_15  and  N2_16 
REMARK    6  A    between atoms: C12_19  and  C15_24 
ROOT
ATOM      1  N2  <0> d           0.016   0.328  -0.353  0.00  0.00    -0.259 N 
ATOM      2  C11 <0> d           1.232  -0.245  -0.255  0.00  0.00     0.263 A 
ATOM      3  O4  <0> d           1.477  -1.414  -0.046  0.00  0.00    -0.270 OA
ATOM      4  C12 <0> d           2.231   0.877  -0.458  0.00  0.00     0.161 A 
ATOM      5  N3  <0> d           1.382   2.063  -0.667  0.00  0.00    -0.319 N 
ATOM      6  C13 <0> d           0.107   1.642  -0.587  0.00  0.00     0.326 A 
ATOM      7  O5  <0> d          -0.856   2.372  -0.719  0.00  0.00    -0.247 OA
ATOM      8  C14 <0> d           3.096   0.611  -1.691  0.00  0.00     0.057 C 
ATOM      9  H19 <0> d           1.683   2.970  -0.830  0.00  0.00     0.166 HD
ENDROOT
BRANCH   1  10
ATOM     10  C10 <0> d          -1.249  -0.399  -0.220  0.00  0.00     0.239 C 
BRANCH  10  11
ATOM     11  C9  <0> d          -1.687  -0.897  -1.573  0.00  0.00     0.239 C 
ATOM     12  N1  <0> d          -2.487  -1.978  -1.667  0.00  0.00    -0.341 N 
ATOM     13  O3  <0> d          -1.318  -0.326  -2.578  0.00  0.00    -0.271 OA
BRANCH  12  14
ATOM     14  C3  <0> d          -2.794  -2.550  -2.980  0.00  0.00     0.083 C 
ATOM     15  C4  <0> d          -1.500  -3.024  -3.644  0.00  0.00     0.032 C 
BRANCH  14  16
ATOM     16  C2  <0> d          -3.458  -1.487  -3.858  0.00  0.00     0.020 C 
ATOM     17  C1  <0> d          -4.821  -1.119  -3.269  0.00  0.00     0.007 C 
ENDBRANCH  14  16
ENDBRANCH  12  14
BRANCH  12  18
ATOM     18  C5  <0> d          -3.051  -2.579  -0.456  0.00  0.00     0.102 C 
ATOM     19  C8  <0> d          -1.916  -3.231   0.370  0.00  0.00     0.165 C 
ATOM     20  S1  <0> d          -2.505  -3.028   2.099  0.00  0.00     0.146 S 
ATOM     21  C7  <0> d          -4.054  -2.081   1.784  0.00  0.00     0.142 C 
ATOM     22  O1  <0> d          -1.592  -2.198   2.804  0.00  0.00    -0.228 OA
ATOM     23  O2  <0> d          -2.842  -4.303   2.628  0.00  0.00    -0.228 OA
ATOM     24  C6  <0> d          -3.746  -1.491   0.379  0.00  0.00     0.041 C 
ENDBRANCH  12  18
ENDBRANCH  10  11
ENDBRANCH   1  10
BRANCH   4  25
ATOM     25  C15 <0> d           3.093   1.048   0.766  0.00  0.00     0.092 A 
ATOM     26  O6  <0> d           3.426   0.061   1.617  0.00  0.00    -0.311 OA
ATOM     27  C22 <0> d           4.210   0.526   2.610  0.00  0.00     0.086 A 
ATOM     28  C17 <0> d           4.387   1.903   2.391  0.00  0.00     0.000 A 
ATOM     29  C21 <0> d           4.811  -0.069   3.712  0.00  0.00     0.038 A 
ATOM     30  C16 <0> d           3.636   2.205   1.167  0.00  0.00     0.050 A 
ATOM     31  C18 <0> d           5.158   2.658   3.274  0.00  0.00     0.014 A 
ATOM     32  C19 <0> d           5.741   2.053   4.353  0.00  0.00     0.001 A 
ATOM     33  C20 <0> d           5.570   0.694   4.574  0.00  0.00     0.003 A 
ENDBRANCH   4  25
TORSDOF 6
