REMARK  4 active torsions:
REMARK  status: ('A' for Active; 'I' for Inactive)
REMARK    1  A    between atoms: S1_2  and  C2_3 
REMARK    2  A    between atoms: C6_7  and  N1_9 
REMARK       I    between atoms: N1_9  and  C8_10 
REMARK    3  A    between atoms: C8_10  and  C9_12 
REMARK    4  A    between atoms: N3_14  and  C13_19 
ROOT
ATOM      1  C9  <0> d          -0.002  -0.022   0.164  0.00  0.00     0.123 C 
ATOM      2  N2  <0> d          -0.000   1.266   0.005  0.00  0.00    -0.168 NA
ATOM      3  N3  <0> d           1.196   1.991  -0.013  0.00  0.00    -0.232 N 
ATOM      4  C10 <0> d           2.367   1.368  -0.251  0.00  0.00     0.240 C 
ATOM      5  O2  <0> d           3.400   2.003  -0.271  0.00  0.00    -0.272 OA
ATOM      6  C11 <0> d           2.389  -0.120  -0.492  0.00  0.00     0.111 C 
ATOM      7  C12 <0> d           1.287  -0.781   0.339  0.00  0.00     0.076 C 
ENDROOT
BRANCH   1   8
ATOM      8  C8  <0> d          -1.276  -0.748   0.175  0.00  0.00     0.272 C 
ATOM      9  N1  <0> d          -2.435  -0.078   0.020  0.00  0.00    -0.322 N 
ATOM     10  H9  <0> d          -2.433   0.891  -0.022  0.00  0.00     0.169 HD
ATOM     11  O1  <0> d          -1.287  -1.955   0.325  0.00  0.00    -0.266 OA
BRANCH   9  12
ATOM     12  C6  <0> d          -3.640  -0.779  -0.080  0.00  0.00     0.036 A 
ATOM     13  C5  <0> d          -4.809  -0.230   0.434  0.00  0.00     0.029 A 
ATOM     14  C4  <0> d          -6.001  -0.922   0.335  0.00  0.00     0.004 A 
ATOM     15  C3  <0> d          -6.036  -2.161  -0.275  0.00  0.00     0.018 A 
ATOM     16  C2  <0> d          -4.870  -2.716  -0.791  0.00  0.00     0.002 A 
ATOM     17  C7  <0> d          -3.672  -2.021  -0.697  0.00  0.00     0.048 A 
BRANCH  16  18
ATOM     18  S1  <0> d          -4.915  -4.296  -1.569  0.00  0.00    -0.134 SA
ATOM     19  C1  <0> d          -6.656  -4.791  -1.458  0.00  0.00     0.095 C 
ENDBRANCH  16  18
ENDBRANCH   9  12
ENDBRANCH   1   8
BRANCH   3  20
ATOM     20  C13 <0> d           1.174   3.436   0.227  0.00  0.00     0.128 C 
ATOM     21  C16 <0> d           0.289   4.121  -0.842  0.00  0.00     0.167 C 
ATOM     22  S2  <0> d          -0.412   5.554   0.072  0.00  0.00     0.146 S 
ATOM     23  C15 <0> d           0.305   5.233   1.739  0.00  0.00     0.142 C 
ATOM     24  O3  <0> d          -1.824   5.410   0.142  0.00  0.00    -0.228 OA
ATOM     25  O4  <0> d           0.144   6.753  -0.447  0.00  0.00    -0.228 OA
ATOM     26  C14 <0> d           0.609   3.712   1.630  0.00  0.00     0.043 C 
ENDBRANCH   3  20
TORSDOF 4
