REMARK  3 active torsions:
REMARK  status: ('A' for Active; 'I' for Inactive)
REMARK    1  A    between atoms: C9_10  and  C10_11 
REMARK       I    between atoms: C10_11  and  N1_13 
REMARK    2  A    between atoms: N1_13  and  N2_14 
REMARK       I    between atoms: N2_14  and  C11_15 
REMARK    3  A    between atoms: C11_15  and  C12_17 
ROOT
ATOM      1  C10 <0> d          -3.571   1.810   0.029  0.00  0.00     0.294 C 
ATOM      2  O2  <0> d          -3.587   3.026   0.035  0.00  0.00    -0.264 OA
ATOM      3  N1  <0> d          -2.394   1.152   0.020  0.00  0.00    -0.261 N 
ATOM      4  H7  <0> d          -2.381   0.182   0.014  0.00  0.00     0.190 HD
ENDROOT
BRANCH   1   5
ATOM      5  C9  <0> d          -4.833   1.058   0.031  0.00  0.00     0.152 A 
ATOM      6  C2  <0> d          -6.073   1.612   0.040  0.00  0.00    -0.009 A 
ATOM      7  C1  <0> d          -6.409   3.081   0.050  0.00  0.00     0.052 C 
ATOM      8  C3  <0> d          -7.016   0.495   0.037  0.00  0.00     0.009 A 
ATOM      9  C8  <0> d          -6.228  -0.671   0.027  0.00  0.00     0.087 A 
ATOM     10  C4  <0> d          -8.411   0.398   0.042  0.00  0.00     0.057 A 
ATOM     11  C7  <0> d          -6.851  -1.913   0.021  0.00  0.00     0.041 A 
ATOM     12  O1  <0> d          -4.936  -0.287   0.018  0.00  0.00    -0.304 OA
ATOM     13  C6  <0> d          -8.226  -1.995   0.027  0.00  0.00     0.045 A 
ATOM     14  C5  <0> d          -9.006  -0.844   0.037  0.00  0.00     0.117 A 
ATOM     15  F1  <0> d         -10.353  -0.945   0.042  0.00  0.00    -0.206 F 
ENDBRANCH   1   5
BRANCH   3  16
ATOM     16  N2  <0> d          -1.191   1.869   0.018  0.00  0.00    -0.262 N 
ATOM     17  C11 <0> d          -0.014   1.211   0.009  0.00  0.00     0.290 C 
ATOM     18  O3  <0> d           0.002  -0.004   0.002  0.00  0.00    -0.264 OA
ATOM     19  H8  <0> d          -1.204   2.839   0.023  0.00  0.00     0.190 HD
BRANCH  17  20
ATOM     20  C12 <0> d           1.258   1.969   0.001  0.00  0.00     0.143 A 
ATOM     21  N4  <0> d           1.243   3.299   0.002  0.00  0.00    -0.253 NA
ATOM     22  C15 <0> d           2.377   3.970  -0.001  0.00  0.00     0.136 A 
ATOM     23  C14 <0> d           3.587   3.292  -0.015  0.00  0.00     0.135 A 
ATOM     24  N3  <0> d           3.608   1.971  -0.022  0.00  0.00    -0.269 NA
ATOM     25  C13 <0> d           2.476   1.290  -0.015  0.00  0.00     0.153 A 
ENDBRANCH  17  20
ENDBRANCH   3  16
TORSDOF 3
