REMARK  7 active torsions:
REMARK  status: ('A' for Active; 'I' for Inactive)
REMARK    1  A    between atoms: C4_4  and  C7_7 
REMARK    2  A    between atoms: C7_7  and  C8_8 
REMARK    3  A    between atoms: C9_11  and  C10_13 
REMARK    4  A    between atoms: C10_13  and  N3_14 
REMARK    5  A    between atoms: C13_17  and  C16_20 
REMARK    6  A    between atoms: C16_20  and  C17_21 
REMARK    7  A    between atoms: C16_20  and  O2_28 
ROOT
ATOM      1  N3  <0> d           7.263  -0.692   4.391  0.00  0.00    -0.064 N 
ATOM      2  C11 <0> d           7.890  -0.102   3.203  0.00  0.00     0.236 C 
ATOM      3  C12 <0> d           9.315  -0.639   3.053  0.00  0.00     0.035 C 
ATOM      4  C13 <0> d          10.127  -0.269   4.298  0.00  0.00     0.022 C 
ATOM      5  C14 <0> d           9.423  -0.827   5.539  0.00  0.00     0.035 C 
ATOM      6  C15 <0> d           7.994  -0.282   5.596  0.00  0.00     0.236 C 
ATOM      7  H25 <0> d           7.280  -1.698   4.314  0.00  0.00     0.280 HD
ENDROOT
BRANCH   1   8
ATOM      8  C10 <0> d           5.870  -0.234   4.487  0.00  0.00     0.322 C 
BRANCH   8   9
ATOM      9  C9  <0> d           5.087  -0.757   3.310  0.00  0.00     0.195 A 
ATOM     10  N2  <0> d           4.440  -1.887   3.256  0.00  0.00    -0.125 NA
ATOM     11  N1  <0> d           3.888  -2.008   2.100  0.00  0.00    -0.127 NA
ATOM     12  C8  <0> d           4.164  -0.959   1.377  0.00  0.00     0.173 A 
ATOM     13  O1  <0> d           4.932  -0.147   2.123  0.00  0.00    -0.276 OA
BRANCH  12  14
ATOM     14  C7  <0> d           3.711  -0.707  -0.038  0.00  0.00     0.127 C 
BRANCH  14  15
ATOM     15  C4  <0> d           2.396   0.029  -0.020  0.00  0.00    -0.051 A 
ATOM     16  C3  <0> d           2.377   1.411  -0.013  0.00  0.00     0.007 A 
ATOM     17  C2  <0> d           1.171   2.086   0.002  0.00  0.00     0.001 A 
ATOM     18  C1  <0> d          -0.017   1.378   0.010  0.00  0.00     0.000 A 
ATOM     19  C6  <0> d           0.002  -0.004   0.002  0.00  0.00     0.001 A 
ATOM     20  C5  <0> d           1.208  -0.679  -0.012  0.00  0.00     0.007 A 
ENDBRANCH  14  15
ENDBRANCH  12  14
ENDBRANCH   8   9
ENDBRANCH   1   8
BRANCH   4  21
ATOM     21  C16 <0> d          11.529  -0.871   4.191  0.00  0.00     0.155 C 
BRANCH  21  22
ATOM     22  C17 <0> d          12.327  -0.507   5.417  0.00  0.00    -0.029 A 
ATOM     23  C22 <0> d          12.477  -1.423   6.441  0.00  0.00     0.011 A 
ATOM     24  C21 <0> d          13.213  -1.091   7.563  0.00  0.00     0.024 A 
ATOM     25  C20 <0> d          13.791   0.162   7.665  0.00  0.00     0.034 A 
ATOM     26  C19 <0> d          13.636   1.081   6.642  0.00  0.00     0.024 A 
ATOM     27 Cl1  <0> d          14.711   0.582   9.076  0.00  0.00    -0.084 Cl
ATOM     28  C18 <0> d          12.904   0.746   5.518  0.00  0.00     0.011 A 
ENDBRANCH  21  22
BRANCH  21  29
ATOM     29  O2  <0> d          12.181  -0.357   3.028  0.00  0.00    -0.391 OA
ATOM     30  H24 <0> d          12.283   0.605   3.027  0.00  0.00     0.210 HD
ENDBRANCH  21  29
ENDBRANCH   4  21
TORSDOF 7
