REMARK  2 active torsions:
REMARK  status: ('A' for Active; 'I' for Inactive)
REMARK    1  A    between atoms: C6_9  and  N3_11 
REMARK       I    between atoms: N3_11  and  C8_12 
REMARK    2  A    between atoms: C8_12  and  C9_14 
ROOT
ATOM      1  N3  <0> d           1.215  -2.084  -0.021  0.00  0.00    -0.322 N 
ATOM      2  C8  <0> d           0.060  -2.769   0.088  0.00  0.00     0.257 C 
ATOM      3  O1  <0> d          -1.000  -2.175   0.103  0.00  0.00    -0.267 OA
ATOM      4  H6  <0> d           2.055  -2.561  -0.113  0.00  0.00     0.169 HD
ENDROOT
BRANCH   1   5
ATOM      5  C6  <0> d           1.204  -0.688  -0.002  0.00  0.00     0.049 A 
ATOM      6  C4  <0> d           2.242   0.037  -0.613  0.00  0.00     0.038 A 
ATOM      7  C3  <0> d           2.215   1.443  -0.585  0.00  0.00     0.064 A 
ATOM      8  C5  <0> d           3.413  -0.339  -1.313  0.00  0.00     0.154 A 
ATOM      9  C2  <0> d           1.163   2.102   0.046  0.00  0.00     0.032 A 
ATOM     10  N2  <0> d           3.337   1.869  -1.249  0.00  0.00    -0.278 N 
ATOM     11  C1  <0> d           0.154   1.377   0.639  0.00  0.00     0.005 A 
ATOM     12  C7  <0> d           0.171  -0.010   0.617  0.00  0.00     0.030 A 
ATOM     13  N1  <0> d           4.043   0.739  -1.679  0.00  0.00    -0.186 NA
ATOM     14  H1  <0> d           3.596   2.792  -1.396  0.00  0.00     0.189 HD
ENDBRANCH   1   5
BRANCH   2  15
ATOM     15  C9  <0> d           0.082  -4.243   0.191  0.00  0.00     0.051 A 
ATOM     16  C13 <0> d           1.292  -4.938   0.176  0.00  0.00     0.133 A 
ATOM     17  N4  <0> d           1.313  -6.251   0.274  0.00  0.00    -0.271 NA
ATOM     18  C12 <0> d           0.205  -6.959   0.377  0.00  0.00     0.135 A 
ATOM     19  C11 <0> d          -1.036  -6.346   0.393  0.00  0.00     0.029 A 
ATOM     20  C10 <0> d          -1.112  -4.967   0.299  0.00  0.00     0.039 A 
ATOM     21 Br1  <0> d          -2.611  -7.382   0.542  0.00  0.00    -0.050 Br
ENDBRANCH   2  15
TORSDOF 2
