REMARK  3 active torsions:
REMARK  status: ('A' for Active; 'I' for Inactive)
REMARK    1  A    between atoms: C2_2  and  C4_4 
REMARK    2  A    between atoms: N1_7  and  C7_9 
REMARK    3  A    between atoms: C15_19  and  C16_20 
ROOT
ATOM      1  C4  <0> d           0.731  -0.503   1.223  0.00  0.00     0.069 A 
ATOM      2  C5  <0> d           0.199  -1.321   2.209  0.00  0.00     0.024 A 
ATOM      3  C6  <0> d           1.177  -1.552   3.140  0.00  0.00     0.141 A 
ATOM      4  N1  <0> d           2.281  -0.886   2.745  0.00  0.00    -0.217 N 
ATOM      5  N2  <0> d           1.980  -0.243   1.533  0.00  0.00    -0.169 NA
ATOM      6  N3  <0> d           0.958  -2.361   4.254  0.00  0.00    -0.311 N 
ATOM      7  C13 <0> d          -0.181  -3.084   4.300  0.00  0.00     0.224 C 
ATOM      8  O1  <0> d          -0.481  -3.643   5.334  0.00  0.00    -0.273 OA
ATOM      9  C14 <0> d          -1.090  -3.218   3.111  0.00  0.00     0.117 C 
ATOM     10  C15 <0> d          -1.187  -1.902   2.334  0.00  0.00     0.068 C 
ATOM     11  H14 <0> d           1.605  -2.403   4.975  0.00  0.00     0.170 HD
ENDROOT
BRANCH   4  12
ATOM     12  C7  <0> d           3.510  -0.847   3.419  0.00  0.00     0.060 A 
ATOM     13  C12 <0> d           4.697  -0.801   2.700  0.00  0.00     0.031 A 
ATOM     14  C11 <0> d           5.905  -0.757   3.367  0.00  0.00     0.002 A 
ATOM     15  C10 <0> d           5.934  -0.770   4.750  0.00  0.00     0.000 A 
ATOM     16  C9  <0> d           4.754  -0.822   5.468  0.00  0.00     0.002 A 
ATOM     17  C8  <0> d           3.542  -0.860   4.807  0.00  0.00     0.031 A 
ENDBRANCH   4  12
BRANCH   1  18
ATOM     18  C2  <0> d           0.002  -0.004   0.002  0.00  0.00     0.032 C 
ATOM     19  C1  <0> d          -0.019   1.526   0.010  0.00  0.00     0.016 C 
ATOM     20  C3  <0> d           0.718  -0.497  -1.257  0.00  0.00     0.016 C 
ENDBRANCH   1  18
BRANCH  10  21
ATOM     21  C16 <0> d          -1.754  -2.162   0.962  0.00  0.00    -0.025 A 
ATOM     22  C19 <0> d          -1.238  -2.975   0.023  0.00  0.00     0.149 A 
ATOM     23  O2  <0> d          -2.037  -2.937  -1.056  0.00  0.00    -0.334 OA
ATOM     24  C18 <0> d          -3.060  -2.098  -0.826  0.00  0.00     0.142 A 
ATOM     25  C17 <0> d          -2.927  -1.594   0.414  0.00  0.00     0.034 A 
ENDBRANCH  10  21
TORSDOF 3
