REMARK  3 active torsions:
REMARK  status: ('A' for Active; 'I' for Inactive)
REMARK    1  A    between atoms: C4_4  and  N1_6 
REMARK       I    between atoms: N1_6  and  C6_7 
REMARK    2  A    between atoms: C6_7  and  C7_9 
REMARK    3  A    between atoms: C8_12  and  C10_17 
ROOT
ATOM      1  C7  <0> d           0.755  -3.334  -2.970  0.00  0.00     0.189 A 
ATOM      2  N2  <0> d           0.693  -2.925  -4.212  0.00  0.00    -0.151 NA
ATOM      3  N3  <0> d           0.478  -3.817  -5.253  0.00  0.00    -0.190 N 
ATOM      4  C8  <0> d           0.349  -3.824  -6.629  0.00  0.00     0.156 A 
ATOM      5  N4  <0> d           0.152  -5.055  -7.008  0.00  0.00    -0.132 NA
ATOM      6  N5  <0> d           0.145  -5.838  -5.986  0.00  0.00    -0.120 NA
ATOM      7  C9  <0> d           0.337  -5.142  -4.907  0.00  0.00     0.218 A 
ATOM      8  S1  <0> d           0.515  -5.096  -3.141  0.00  0.00    -0.021 SA
ENDROOT
BRANCH   1   9
ATOM      9  C6  <0> d           0.974  -2.543  -1.742  0.00  0.00     0.279 C 
ATOM     10  N1  <0> d           1.136  -1.207  -1.821  0.00  0.00    -0.350 N 
ATOM     11  H10 <0> d           1.109  -0.765  -2.685  0.00  0.00     0.163 HD
ATOM     12  O1  <0> d           1.008  -3.096  -0.661  0.00  0.00    -0.265 OA
BRANCH  10  13
ATOM     13  C4  <0> d           1.353  -0.422  -0.604  0.00  0.00     0.084 C 
ATOM     14  C3  <0> d           2.107   0.881  -0.942  0.00  0.00     0.025 C 
ATOM     15  C2  <0> d           1.477   1.939  -0.002  0.00  0.00     0.002 C 
ATOM     16  C1  <0> d          -0.019   1.538   0.011  0.00  0.00     0.002 C 
ATOM     17  C5  <0> d           0.002  -0.004   0.002  0.00  0.00     0.025 C 
ENDBRANCH  10  13
ENDBRANCH   1   9
BRANCH   4  18
ATOM     18  C10 <0> d           0.421  -2.620  -7.532  0.00  0.00     0.059 A 
ATOM     19  C12 <0> d           1.513  -2.606  -8.604  0.00  0.00     0.013 A 
ATOM     20  C11 <0> d           0.052  -2.818  -9.004  0.00  0.00     0.013 A 
ENDBRANCH   4  18
TORSDOF 3
