REMARK  4 active torsions:
REMARK  status: ('A' for Active; 'I' for Inactive)
REMARK       I    between atoms: C2_2  and  N1_4 
REMARK    1  A    between atoms: N1_4  and  C3_5 
REMARK    2  A    between atoms: N2_7  and  C4_8 
REMARK    3  A    between atoms: C5_9  and  C16_21 
REMARK    4  A    between atoms: C9_14  and  C12_17 
REMARK       I    between atoms: C16_21  and  N3_23 
ROOT
ATOM      1  C4  <0> d          -3.057   0.494   1.206  0.00  0.00     0.093 A 
ATOM      2  C5  <0> d          -2.447   0.874   0.018  0.00  0.00     0.072 A 
ATOM      3  C6  <0> d          -3.100   0.495  -1.223  0.00  0.00    -0.026 A 
ATOM      4  C7  <0> d          -4.253  -0.194  -1.079  0.00  0.00    -0.008 A 
ATOM      5  S2  <0> d          -4.477  -0.341   0.671  0.00  0.00    -0.075 SA
ATOM      6  C8  <0> d          -5.138  -0.712  -2.171  0.00  0.00     0.052 C 
ATOM      7  C9  <0> d          -4.352  -0.673  -3.490  0.00  0.00    -0.002 C 
ATOM      8  C10 <0> d          -3.685   0.699  -3.627  0.00  0.00     0.010 C 
ATOM      9  C11 <0> d          -2.554   0.832  -2.605  0.00  0.00     0.041 C 
ENDROOT
BRANCH   1  10
ATOM     10  N2  <0> d          -2.633   0.727   2.505  0.00  0.00    -0.326 N 
ATOM     11  C3  <0> d          -3.365   0.277   3.543  0.00  0.00     0.179 C 
ATOM     12  S1  <0> d          -4.817  -0.583   3.258  0.00  0.00    -0.040 SA
ATOM     13  H6  <0> d          -1.810   1.214   2.666  0.00  0.00     0.169 HD
BRANCH  11  14
ATOM     14  N1  <0> d          -2.953   0.504   4.806  0.00  0.00    -0.304 N 
ATOM     15  C2  <0> d          -3.684   0.054   5.845  0.00  0.00     0.219 C 
ATOM     16  C1  <0> d          -3.224   0.308   7.257  0.00  0.00     0.117 C 
ATOM     17  O1  <0> d          -4.713  -0.555   5.643  0.00  0.00    -0.274 OA
ATOM     18  H5  <0> d          -2.130   0.992   4.968  0.00  0.00     0.171 HD
ENDBRANCH  11  14
ENDBRANCH   1  10
BRANCH   2  19
ATOM     19  C16 <0> d          -1.187   1.624   0.017  0.00  0.00     0.252 C 
ATOM     20  O2  <0> d          -1.204   2.841   0.023  0.00  0.00    -0.268 OA
ATOM     21  N3  <0> d          -0.011   0.966   0.007  0.00  0.00    -0.366 N 
ATOM     22  H22 <0> d           0.002  -0.004   0.002  0.00  0.00     0.159 HD
ATOM     23  H23 <0> d           0.822   1.462   0.002  0.00  0.00     0.159 HD
ENDBRANCH   2  19
BRANCH   7  24
ATOM     24  C12 <0> d          -5.307  -0.899  -4.663  0.00  0.00    -0.047 C 
ATOM     25  C13 <0> d          -4.525  -0.843  -5.976  0.00  0.00     0.015 C 
ATOM     26  C14 <0> d          -5.972  -2.270  -4.524  0.00  0.00     0.015 C 
ATOM     27  C15 <0> d          -6.382   0.191  -4.662  0.00  0.00     0.015 C 
ENDBRANCH   7  24
TORSDOF 4
