REMARK  5 active torsions:
REMARK  status: ('A' for Active; 'I' for Inactive)
REMARK    1  A    between atoms: C2_2  and  C3_3 
REMARK    2  A    between atoms: C2_2  and  N1_17 
REMARK    3  A    between atoms: C3_3  and  C4_4 
REMARK    4  A    between atoms: C3_3  and  S2_9 
REMARK    5  A    between atoms: S2_9  and  C8_10 
ROOT
ATOM      1  C3  <0> d           0.691  -0.830   1.230  0.00  0.00     0.116 C 
ENDROOT
BRANCH   1   2
ATOM      2  C2  <0> d          -0.107  -0.337   0.021  0.00  0.00     0.198 C 
ATOM      3  C1  <0> d           0.077   1.175  -0.129  0.00  0.00     0.041 C 
BRANCH   2   4
ATOM      4  N1  <0> d           0.373  -1.011  -1.192  0.00  0.00    -0.074 N 
ATOM      5  H13 <0> d           1.352  -0.803  -1.327  0.00  0.00     0.274 HD
ATOM      6  H14 <0> d           0.252  -2.008  -1.093  0.00  0.00     0.274 HD
ATOM      7  H15 <0> d          -0.153  -0.686  -1.989  0.00  0.00     0.274 HD
ENDBRANCH   2   4
ENDBRANCH   1   2
BRANCH   1   8
ATOM      8  C4  <0> d           0.555  -2.327   1.344  0.00  0.00    -0.035 A 
ATOM      9  C7  <0> d          -0.664  -2.897   1.510  0.00  0.00     0.058 A 
ATOM     10  S1  <0> d          -0.254  -4.633   1.580  0.00  0.00    -0.113 SA
ATOM     11  C6  <0> d           1.515  -4.481   1.393  0.00  0.00     0.050 A 
ATOM     12  C5  <0> d           1.672  -3.139   1.287  0.00  0.00     0.016 A 
ENDBRANCH   1   8
BRANCH   1  13
ATOM     13  S2  <0> d           0.051  -0.049   2.736  0.00  0.00    -0.118 SA
BRANCH  13  14
ATOM     14  C8  <0> d           1.263  -0.425   3.959  0.00  0.00     0.002 A 
ATOM     15  C13 <0> d           1.034  -0.100   5.290  0.00  0.00     0.037 A 
ATOM     16  C12 <0> d           1.984  -0.402   6.247  0.00  0.00     0.012 A 
ATOM     17  C11 <0> d           3.168  -1.016   5.878  0.00  0.00     0.019 A 
ATOM     18 Br1  <0> d           1.671   0.033   8.060  0.00  0.00    -0.051 Br
ATOM     19  C10 <0> d           3.401  -1.337   4.553  0.00  0.00     0.003 A 
ATOM     20  C9  <0> d           2.453  -1.043   3.593  0.00  0.00     0.018 A 
ENDBRANCH  13  14
ENDBRANCH   1  13
TORSDOF 5
