REMARK  5 active torsions:
REMARK  status: ('A' for Active; 'I' for Inactive)
REMARK    1  A    between atoms: C2_2  and  N1_3 
REMARK    2  A    between atoms: C3_4  and  C14_22 
REMARK    3  A    between atoms: C4_7  and  S1_8 
REMARK    4  A    between atoms: S1_8  and  C5_9 
REMARK    5  A    between atoms: C5_9  and  C6_10 
ROOT
ATOM      1  N1  <0> d           0.743  -0.636   1.132  0.00  0.00    -0.023 N 
ATOM      2  C3  <0> d           0.895  -2.110   1.147  0.00  0.00     0.312 C 
ATOM      3  N2  <0> d           0.874  -2.464   2.590  0.00  0.00    -0.225 NA
ATOM      4  N3  <0> d          -0.125  -1.538   3.145  0.00  0.00    -0.221 NA
ATOM      5  C4  <0> d           0.093  -0.273   2.408  0.00  0.00     0.340 C 
ATOM      6  H9  <0> d           1.779  -2.315   3.012  0.00  0.00     0.143 HD
ATOM      7  H10 <0> d          -1.061  -1.885   2.998  0.00  0.00     0.143 HD
ATOM      8  H21 <0> d           1.648  -0.195   1.066  0.00  0.00     0.285 HD
ENDROOT
BRANCH   5   9
ATOM      9  S1  <0> d          -1.496   0.542   2.086  0.00  0.00    -0.112 SA
BRANCH   9  10
ATOM     10  C5  <0> d          -1.937   1.288   3.680  0.00  0.00     0.155 C 
BRANCH  10  11
ATOM     11  C6  <0> d          -3.201   2.093   3.524  0.00  0.00     0.116 A 
ATOM     12  N5  <0> d          -3.762   2.140   2.354  0.00  0.00    -0.234 NA
ATOM     13  C13 <0> d          -4.904   2.839   2.140  0.00  0.00     0.074 A 
ATOM     14  C8  <0> d          -5.488   3.543   3.217  0.00  0.00     0.061 A 
ATOM     15  C12 <0> d          -5.511   2.884   0.884  0.00  0.00     0.032 A 
ATOM     16  C7  <0> d          -4.825   3.474   4.527  0.00  0.00     0.259 A 
ATOM     17  C9  <0> d          -6.659   4.273   3.021  0.00  0.00     0.019 A 
ATOM     18  N4  <0> d          -3.692   2.738   4.615  0.00  0.00    -0.310 N 
ATOM     19  O1  <0> d          -5.276   4.058   5.496  0.00  0.00    -0.267 OA
ATOM     20  H3  <0> d          -3.228   2.670   5.463  0.00  0.00     0.170 HD
ATOM     21  C10 <0> d          -7.239   4.303   1.772  0.00  0.00     0.001 A 
ATOM     22  C11 <0> d          -6.667   3.612   0.711  0.00  0.00     0.002 A 
ENDBRANCH  10  11
ENDBRANCH   9  10
ENDBRANCH   5   9
BRANCH   1  23
ATOM     23  C2  <0> d          -0.101  -0.228   0.001  0.00  0.00     0.236 C 
ATOM     24  C1  <0> d          -0.064   1.295  -0.140  0.00  0.00     0.034 C 
ENDBRANCH   1  23
BRANCH   2  25
ATOM     25  C14 <0> d           2.206  -2.511   0.522  0.00  0.00     0.005 A 
ATOM     26  C19 <0> d           2.799  -3.712   0.868  0.00  0.00     0.020 A 
ATOM     27  C18 <0> d           4.000  -4.082   0.290  0.00  0.00     0.020 A 
ATOM     28 Br1  <0> d           1.963  -4.851   2.125  0.00  0.00    -0.050 Br
ATOM     29  C17 <0> d           4.613  -3.247  -0.625  0.00  0.00     0.001 A 
ATOM     30  C16 <0> d           4.023  -2.044  -0.967  0.00  0.00     0.001 A 
ATOM     31  C15 <0> d           2.820  -1.677  -0.394  0.00  0.00     0.012 A 
ENDBRANCH   2  25
TORSDOF 5
