REMARK  6 active torsions:
REMARK  status: ('A' for Active; 'I' for Inactive)
REMARK    1  A    between atoms: C5_5  and  C8_8 
REMARK    2  A    between atoms: C9_9  and  S1_10 
REMARK    3  A    between atoms: S1_10  and  N1_13 
REMARK    4  A    between atoms: N1_13  and  C10_14 
REMARK    5  A    between atoms: C10_14  and  C11_15 
REMARK       I    between atoms: C11_15  and  N2_17 
REMARK    6  A    between atoms: N2_17  and  C12_18 
ROOT
ATOM      1  N1  <0> d           1.542  -7.156   1.772  0.00  0.00    -0.307 N 
ATOM      2  H10 <0> d           2.192  -7.627   1.227  0.00  0.00     0.172 HD
ENDROOT
BRANCH   1   3
ATOM      3  S1  <0> d           0.098  -6.682   1.113  0.00  0.00     0.249 S 
ATOM      4  O1  <0> d          -0.917  -7.106   2.012  0.00  0.00    -0.201 OA
ATOM      5  O2  <0> d           0.123  -7.080  -0.251  0.00  0.00    -0.201 OA
BRANCH   3   6
ATOM      6  C9  <0> d           0.074  -4.920   1.123  0.00  0.00     0.132 C 
ATOM      7  C8  <0> d           0.060  -4.251  -0.021  0.00  0.00     0.025 C 
BRANCH   7   8
ATOM      8  C5  <0> d           0.040  -2.773  -0.013  0.00  0.00    -0.036 A 
ATOM      9  C4  <0> d           0.024  -2.066  -1.216  0.00  0.00     0.012 A 
ATOM     10  C3  <0> d           0.006  -0.686  -1.202  0.00  0.00     0.007 A 
ATOM     11  C2  <0> d           0.002  -0.004   0.002  0.00  0.00    -0.062 A 
ATOM     12  C1  <0> d          -0.018   1.503   0.010  0.00  0.00     0.048 C 
ATOM     13  C7  <0> d           0.023  -0.699   1.198  0.00  0.00     0.007 A 
ATOM     14  C6  <0> d           0.037  -2.079   1.197  0.00  0.00     0.012 A 
ENDBRANCH   7   8
ENDBRANCH   3   6
ENDBRANCH   1   3
BRANCH   1  15
ATOM     15  C10 <0> d           1.837  -6.864   3.177  0.00  0.00     0.235 C 
BRANCH  15  16
ATOM     16  C11 <0> d           3.010  -7.697   3.627  0.00  0.00     0.241 C 
ATOM     17  O3  <0> d           3.546  -8.459   2.850  0.00  0.00    -0.271 OA
ATOM     18  N2  <0> d           3.463  -7.594   4.892  0.00  0.00    -0.310 N 
ATOM     19  H13 <0> d           3.034  -6.985   5.513  0.00  0.00     0.170 HD
BRANCH  18  20
ATOM     20  C12 <0> d           4.548  -8.364   5.308  0.00  0.00     0.135 A 
ATOM     21  N3  <0> d           5.128  -9.194   4.456  0.00  0.00    -0.243 NA
ATOM     22  C16 <0> d           6.160  -9.936   4.808  0.00  0.00     0.119 A 
ATOM     23  C15 <0> d           6.668  -9.882   6.091  0.00  0.00     0.020 A 
ATOM     24  C14 <0> d           6.084  -9.028   7.017  0.00  0.00     0.012 A 
ATOM     25  C13 <0> d           5.006  -8.258   6.617  0.00  0.00    -0.016 A 
ATOM     26  C17 <0> d           4.339  -7.316   7.585  0.00  0.00     0.052 C 
ENDBRANCH  18  20
ENDBRANCH  15  16
ENDBRANCH   1  15
TORSDOF 6
