REMARK  4 active torsions:
REMARK  status: ('A' for Active; 'I' for Inactive)
REMARK    1  A    between atoms: N2_5  and  S1_8 
REMARK    2  A    between atoms: S1_8  and  C6_11 
REMARK    3  A    between atoms: C9_14  and  N4_18 
REMARK    4  A    between atoms: C10_15  and  N3_17 
ROOT
ATOM      1  C6  <0> d           0.196   0.409   3.578  0.00  0.00     0.082 A 
ATOM      2  C7  <0> d           1.313  -0.348   3.279  0.00  0.00     0.027 A 
ATOM      3  C8  <0> d           2.398  -0.355   4.136  0.00  0.00     0.027 A 
ATOM      4  C9  <0> d           2.364   0.390   5.304  0.00  0.00     0.037 A 
ATOM      5  C10 <0> d           1.234   1.150   5.609  0.00  0.00     0.048 A 
ATOM      6  C11 <0> d           0.152   1.155   4.741  0.00  0.00     0.056 A 
ENDROOT
BRANCH   1   7
ATOM      7  S1  <0> d          -1.180   0.417   2.477  0.00  0.00     0.261 S 
ATOM      8  O1  <0> d          -2.318   0.768   3.252  0.00  0.00    -0.200 OA
ATOM      9  O2  <0> d          -1.110  -0.790   1.730  0.00  0.00    -0.200 OA
BRANCH   7  10
ATOM     10  N2  <0> d          -0.940   1.653   1.402  0.00  0.00    -0.304 N 
ATOM     11  C3  <0> d          -0.218   1.428   0.141  0.00  0.00     0.163 C 
ATOM     12  C2  <0> d          -1.065   1.974  -1.014  0.00  0.00     0.255 C 
ATOM     13  N1  <0> d          -1.415   3.374  -0.740  0.00  0.00    -0.072 N 
ATOM     14  C1  <0> d          -2.079   3.987  -1.899  0.00  0.00     0.269 C 
ATOM     15  C5  <0> d          -2.246   3.490   0.465  0.00  0.00     0.255 C 
ATOM     16  H25 <0> d          -0.480   3.923  -0.556  0.00  0.00     0.279 HD
ATOM     17  C4  <0> d          -1.448   3.006   1.680  0.00  0.00     0.163 C 
ENDBRANCH   7  10
ENDBRANCH   1   7
BRANCH   5  18
ATOM     18  N3  <0> d           1.193   1.905   6.787  0.00  0.00    -0.398 N 
ATOM     19  H15 <0> d           0.301   2.504   7.025  0.00  0.00     0.156 HD
ATOM     20  H16 <0> d           2.052   1.900   7.474  0.00  0.00     0.156 HD
ENDBRANCH   5  18
BRANCH   4  21
ATOM     21  N4  <0> d           3.459   0.381   6.176  0.00  0.00    -0.281 NA
ATOM     22  C15 <0> d           4.074   1.723   6.268  0.00  0.00     0.096 C 
ATOM     23  C14 <0> d           5.589   1.514   6.449  0.00  0.00     0.016 C 
ATOM     24  C13 <0> d           5.792  -0.019   6.420  0.00  0.00     0.016 C 
ATOM     25  C12 <0> d           4.529  -0.521   5.677  0.00  0.00     0.096 C 
ENDBRANCH   4  21
TORSDOF 4
