REMARK  3 active torsions:
REMARK  status: ('A' for Active; 'I' for Inactive)
REMARK    1  A    between atoms: C2_2  and  N1_3 
REMARK    2  A    between atoms: N2_6  and  S1_9 
REMARK    3  A    between atoms: S1_9  and  C7_12 
ROOT
ATOM      1  S1  <0> d          -4.589  -3.017  -1.580  0.00  0.00     0.263 S 
ATOM      2  O1  <0> d          -4.898  -4.089  -0.700  0.00  0.00    -0.200 OA
ATOM      3  O2  <0> d          -5.594  -2.235  -2.212  0.00  0.00    -0.200 OA
ENDROOT
BRANCH   1   4
ATOM      4  N2  <0> d          -3.637  -1.964  -0.728  0.00  0.00    -0.303 N 
ATOM      5  C4  <0> d          -3.555  -0.545  -1.105  0.00  0.00     0.165 C 
ATOM      6  C3  <0> d          -2.077  -0.159  -1.229  0.00  0.00     0.293 C 
ATOM      7  N1  <0> d          -1.376  -0.512   0.012  0.00  0.00     0.091 N 
ATOM      8  C6  <0> d          -1.400  -1.963   0.243  0.00  0.00     0.293 C 
ATOM      9  C5  <0> d          -2.850  -2.424   0.427  0.00  0.00     0.165 C 
BRANCH   7  10
ATOM     10  C2  <0> d           0.002  -0.004   0.002  0.00  0.00     0.268 C 
ATOM     11  C1  <0> d          -0.019   1.526   0.010  0.00  0.00     0.037 C 
ENDBRANCH   7  10
ENDBRANCH   1   4
BRANCH   1  12
ATOM     12  C7  <0> d          -3.595  -3.694  -2.868  0.00  0.00     0.109 A 
ATOM     13  C10 <0> d          -3.014  -2.964  -3.996  0.00  0.00     0.035 A 
ATOM     14  C9  <0> d          -2.302  -3.914  -4.754  0.00  0.00     0.139 A 
ATOM     15  C11 <0> d          -3.034  -1.631  -4.410  0.00  0.00     0.018 A 
ATOM     16  N3  <0> d          -2.457  -5.126  -4.126  0.00  0.00    -0.349 N 
ATOM     17  N4  <0> d          -1.660  -3.535  -5.851  0.00  0.00    -0.242 NA
ATOM     18  C8  <0> d          -3.229  -4.978  -3.005  0.00  0.00     0.116 A 
ATOM     19  H1  <0> d          -2.076  -5.964  -4.432  0.00  0.00     0.167 HD
ATOM     20  C13 <0> d          -1.673  -2.285  -6.263  0.00  0.00     0.119 A 
ATOM     21  C12 <0> d          -2.349  -1.298  -5.564  0.00  0.00     0.020 A 
ENDBRANCH   1  12
TORSDOF 3
