REMARK  2 active torsions:
REMARK  status: ('A' for Active; 'I' for Inactive)
REMARK    1  A    between atoms: C14_14  and  C15_15 
REMARK    2  A    between atoms: C16_16  and  N4_27 
ROOT
ATOM      1  C15 <0> d           4.845   2.190  -0.026  0.00  0.00     0.260 C 
ATOM      2  C16 <0> d           4.867   4.614  -0.293  0.00  0.00     0.688 C 
ATOM      3  N1  <0> d           3.519   4.741  -0.017  0.00  0.00    -0.021 N 
ATOM      4  C17 <0> d           2.770   3.571  -0.007  0.00  0.00     0.724 A 
ATOM      5  N2  <0> d           3.391   2.344  -0.018  0.00  0.00    -0.152 N 
ATOM      6  C18 <0> d           2.406   1.384  -0.014  0.00  0.00     0.083 A 
ATOM      7  C19 <0> d           2.403  -0.004  -0.022  0.00  0.00     0.033 A 
ATOM      8  C20 <0> d           1.207  -0.690  -0.014  0.00  0.00     0.002 A 
ATOM      9  C21 <0> d           0.002  -0.004   0.002  0.00  0.00     0.002 A 
ATOM     10  C22 <0> d          -0.017   1.372   0.010  0.00  0.00     0.034 A 
ATOM     11  C23 <0> d           1.185   2.084   0.002  0.00  0.00     0.103 A 
ATOM     12  N3  <0> d           1.481   3.413   0.007  0.00  0.00    -0.062 NA
ATOM     13  H11 <0> d           3.115   5.605   0.162  0.00  0.00     0.203 HD
ATOM     14  N5  <0> d           5.578   3.479  -0.331  0.00  0.00    -0.200 N 
ATOM     15  H18 <0> d           6.579   3.483  -0.559  0.00  0.00     0.180 HD
ENDROOT
BRANCH   1  16
ATOM     16  C14 <0> d           5.237   1.195  -1.088  0.00  0.00     0.008 A 
ATOM     17  C4  <0> d           5.201   1.556  -2.434  0.00  0.00    -0.015 A 
ATOM     18  C3  <0> d           4.799   2.849  -2.832  0.00  0.00     0.013 A 
ATOM     19  C5  <0> d           5.588   0.590  -3.467  0.00  0.00    -0.024 A 
ATOM     20  C2  <0> d           4.775   3.167  -4.151  0.00  0.00     0.001 A 
ATOM     21  C1  <0> d           5.139   2.246  -5.134  0.00  0.00     0.001 A 
ATOM     22  C6  <0> d           5.545   0.990  -4.820  0.00  0.00     0.012 A 
ATOM     23  C7  <0> d           5.984  -0.698  -3.110  0.00  0.00     0.024 A 
ATOM     24  C8  <0> d           6.015  -1.060  -1.765  0.00  0.00    -0.024 A 
ATOM     25  C13 <0> d           5.633  -0.092  -0.731  0.00  0.00    -0.015 A 
ATOM     26  C9  <0> d           6.410  -2.356  -1.368  0.00  0.00     0.012 A 
ATOM     27  C12 <0> d           5.675  -0.493   0.622  0.00  0.00     0.013 A 
ATOM     28  C11 <0> d           6.064  -1.755   0.935  0.00  0.00     0.001 A 
ATOM     29  C10 <0> d           6.428  -2.676  -0.049  0.00  0.00     0.001 A 
ENDBRANCH   1  16
BRANCH   2  30
ATOM     30  N4  <0> d           5.592   5.751  -0.564  0.00  0.00    -0.234 N 
ATOM     31  H16 <0> d           6.539   5.687  -0.761  0.00  0.00     0.174 HD
ATOM     32  H17 <0> d           5.155   6.617  -0.558  0.00  0.00     0.174 HD
ENDBRANCH   2  30
TORSDOF 2
