REMARK  6 active torsions:
REMARK  status: ('A' for Active; 'I' for Inactive)
REMARK    1  A    between atoms: C2_2  and  N1_3 
REMARK    2  A    between atoms: N1_3  and  C3_4 
REMARK    3  A    between atoms: C3_4  and  C4_5 
REMARK    4  A    between atoms: C3_4  and  C12_17 
REMARK    5  A    between atoms: C4_5  and  S1_6 
REMARK    6  A    between atoms: S1_6  and  C5_7 
ROOT
ATOM      1  S1  <0> d           0.306  -2.010   3.885  0.00  0.00    -0.087 SA
ENDROOT
BRANCH   1   2
ATOM      2  C4  <0> d           1.361  -2.468   2.483  0.00  0.00     0.127 C 
BRANCH   2   3
ATOM      3  C3  <0> d           0.733  -1.960   1.184  0.00  0.00     0.295 C 
BRANCH   3   4
ATOM      4  N1  <0> d           0.713  -0.491   1.192  0.00  0.00    -0.061 N 
ATOM      5  H7  <0> d           1.659  -0.141   1.185  0.00  0.00     0.278 HD
ATOM      6  H20 <0> d           0.240  -0.165   2.022  0.00  0.00     0.278 HD
BRANCH   4   7
ATOM      7  C2  <0> d           0.002  -0.004   0.002  0.00  0.00     0.229 C 
ATOM      8  C1  <0> d          -0.019   1.526   0.010  0.00  0.00     0.034 C 
ENDBRANCH   4   7
ENDBRANCH   3   4
BRANCH   3   9
ATOM      9  C12 <0> d           1.543  -2.445   0.010  0.00  0.00     0.205 C 
ATOM     10  O1  <0> d           2.205  -1.655  -0.642  0.00  0.00    -0.646 OA
ATOM     11  O2  <0> d           1.537  -3.627  -0.289  0.00  0.00    -0.646 OA
ENDBRANCH   3   9
ENDBRANCH   2   3
ENDBRANCH   1   2
BRANCH   1  12
ATOM     12  C5  <0> d           1.155  -2.658   5.287  0.00  0.00     0.191 A 
ATOM     13  N4  <0> d           0.760  -2.572   6.586  0.00  0.00    -0.311 N 
ATOM     14  C6  <0> d           1.729  -3.200   7.317  0.00  0.00     0.130 A 
ATOM     15  C7  <0> d          -0.459  -1.953   7.106  0.00  0.00     0.133 C 
ATOM     16  N3  <0> d           2.626  -3.631   6.481  0.00  0.00    -0.134 NA
ATOM     17  C11 <0> d           1.735  -3.340   8.817  0.00  0.00     0.081 C 
ATOM     18  N2  <0> d           2.296  -3.313   5.279  0.00  0.00    -0.123 NA
ATOM     19  C10 <0> d           0.357  -3.803   9.284  0.00  0.00     0.008 C 
ATOM     20  C9  <0> d          -0.542  -2.594   9.523  0.00  0.00     0.002 C 
ATOM     21  C8  <0> d          -0.211  -1.473   8.540  0.00  0.00     0.020 C 
ENDBRANCH   1  12
TORSDOF 6
