REMARK  7 active torsions:
REMARK  status: ('A' for Active; 'I' for Inactive)
REMARK    1  A    between atoms: O1_2  and  C2_3 
REMARK    2  A    between atoms: C6_7  and  C8_9 
REMARK    3  A    between atoms: C8_9  and  C9_10 
REMARK    4  A    between atoms: C8_9  and  O5_27 
REMARK    5  A    between atoms: C9_10  and  N1_31 
REMARK    6  A    between atoms: C16_17  and  O4_26 
REMARK    7  A    between atoms: C19_20  and  O3_25 
ROOT
ATOM      1  C10 <0> d           1.364   1.913   0.039  0.00  0.00     0.238 C 
ATOM      2  C11 <0> d           2.106   1.360  -1.180  0.00  0.00     0.066 C 
ATOM      3  C12 <0> d           2.154  -0.166  -1.094  0.00  0.00     0.073 C 
ATOM      4  C13 <0> d           0.730  -0.716  -1.001  0.00  0.00     0.066 C 
ATOM      5  C14 <0> d           0.029  -0.103   0.214  0.00  0.00     0.238 C 
ATOM      6  C15 <0> d           2.841  -0.730  -2.343  0.00  0.00     0.075 C 
ATOM      7  C16 <0> d           2.774  -2.258  -2.281  0.00  0.00     0.157 C 
ATOM      8  C17 <0> d           3.207  -2.732  -0.917  0.00  0.00     0.006 A 
ATOM      9  C18 <0> d           3.570  -4.060  -0.759  0.00  0.00     0.049 A 
ATOM     10  C19 <0> d           3.961  -4.534   0.482  0.00  0.00     0.066 A 
ATOM     11  C20 <0> d           3.990  -3.676   1.572  0.00  0.00     0.039 A 
ATOM     12  C21 <0> d           3.632  -2.353   1.415  0.00  0.00     0.040 A 
ATOM     13  C22 <0> d           3.241  -1.875   0.169  0.00  0.00     0.079 A 
ATOM     14  O2  <0> d           2.900  -0.564   0.056  0.00  0.00    -0.339 OA
ATOM     15  N1  <0> d          -0.010   1.366   0.053  0.00  0.00    -0.068 N 
ATOM     16  H28 <0> d          -0.467   1.592  -0.838  0.00  0.00     0.280 HD
ENDROOT
BRANCH   7  17
ATOM     17  O4  <0> d           3.641  -2.810  -3.274  0.00  0.00    -0.391 OA
ATOM     18  H26 <0> d           3.647  -3.777  -3.296  0.00  0.00     0.210 HD
ENDBRANCH   7  17
BRANCH  15  19
ATOM     19  C9  <0> d          -0.783   1.974   1.155  0.00  0.00     0.271 C 
BRANCH  19  20
ATOM     20  C8  <0> d          -2.251   1.569   1.009  0.00  0.00     0.177 C 
BRANCH  20  21
ATOM     21  C6  <0> d          -3.058   2.194   2.117  0.00  0.00    -0.025 A 
ATOM     22  C5  <0> d          -3.533   3.485   1.982  0.00  0.00     0.010 A 
ATOM     23  C4  <0> d          -4.278   4.060   2.995  0.00  0.00     0.003 A 
ATOM     24  C3  <0> d          -4.541   3.349   4.150  0.00  0.00     0.037 A 
ATOM     25  C2  <0> d          -4.061   2.054   4.290  0.00  0.00     0.068 A 
ATOM     26  C7  <0> d          -3.318   1.478   3.270  0.00  0.00     0.046 A 
BRANCH  25  27
ATOM     27  O1  <0> d          -4.317   1.353   5.426  0.00  0.00    -0.356 OA
ATOM     28  C1  <0> d          -5.088   2.010   6.434  0.00  0.00     0.210 C 
ENDBRANCH  25  27
ENDBRANCH  20  21
BRANCH  20  29
ATOM     29  O5  <0> d          -2.746   2.020  -0.254  0.00  0.00    -0.389 OA
ATOM     30  H27 <0> d          -2.702   2.978  -0.374  0.00  0.00     0.210 HD
ENDBRANCH  20  29
ENDBRANCH  19  20
ENDBRANCH  15  19
BRANCH  10  31
ATOM     31  O3  <0> d           4.316  -5.838   0.632  0.00  0.00    -0.361 OA
ATOM     32  H25 <0> d           5.257  -6.008   0.490  0.00  0.00     0.217 HD
ENDBRANCH  10  31
TORSDOF 7
