REMARK  2 active torsions:
REMARK  status: ('A' for Active; 'I' for Inactive)
REMARK    1  A    between atoms: C3_3  and  C10_12 
REMARK    2  A    between atoms: C6_6  and  C7_7 
REMARK       I    between atoms: C10_12  and  N1_14 
ROOT
ATOM      1  C10 <0> d           3.657   2.160  -0.022  0.00  0.00     0.253 C 
ATOM      2  O1  <0> d           2.618   1.541   0.093  0.00  0.00    -0.267 OA
ATOM      3  N1  <0> d           4.826   1.500  -0.138  0.00  0.00    -0.348 N 
ATOM      4  C11 <0> d           4.848   0.036  -0.263  0.00  0.00     0.129 C 
ATOM      5  C12 <0> d           5.767  -0.537   0.822  0.00  0.00     0.061 C 
ATOM      6  C13 <0> d           7.133   0.136   0.735  0.00  0.00     0.118 A 
ATOM      7  C14 <0> d           7.009   1.642   0.942  0.00  0.00     0.061 C 
ATOM      8  C15 <0> d           6.100   2.232  -0.148  0.00  0.00     0.129 C 
ATOM      9  C16 <0> d           8.079  -0.460   1.752  0.00  0.00     0.254 A 
ATOM     10  O2  <0> d           7.957  -0.458   2.958  0.00  0.00    -0.270 OA
ATOM     11  N2  <0> d           9.088  -0.996   1.034  0.00  0.00    -0.277 N 
ATOM     12  C17 <0> d           8.906  -0.820  -0.281  0.00  0.00     0.323 A 
ATOM     13  O3  <0> d           9.681  -1.215  -1.129  0.00  0.00    -0.247 OA
ATOM     14  N3  <0> d           7.768  -0.155  -0.557  0.00  0.00    -0.324 N 
ATOM     15  H18 <0> d           9.851  -1.452   1.422  0.00  0.00     0.173 HD
ATOM     16  H19 <0> d           7.433   0.084  -1.435  0.00  0.00     0.165 HD
ENDROOT
BRANCH   1  17
ATOM     17  C3  <0> d           3.639   3.639  -0.033  0.00  0.00     0.032 A 
ATOM     18  C2  <0> d           2.818   4.336   0.854  0.00  0.00     0.017 A 
ATOM     19  C1  <0> d           2.806   5.716   0.839  0.00  0.00     0.010 A 
ATOM     20  C6  <0> d           3.605   6.407  -0.054  0.00  0.00    -0.035 A 
ATOM     21  C5  <0> d           4.421   5.722  -0.936  0.00  0.00     0.010 A 
ATOM     22  C4  <0> d           4.443   4.343  -0.931  0.00  0.00     0.017 A 
BRANCH  20  23
ATOM     23  C7  <0> d           3.587   7.914  -0.065  0.00  0.00     0.141 C 
ATOM     24  S2  <0> d           5.254   8.591   0.295  0.00  0.00    -0.148 SA
ATOM     25  C9  <0> d           5.718   9.521  -1.209  0.00  0.00     0.085 C 
ATOM     26  C8  <0> d           4.398   9.995  -1.866  0.00  0.00     0.085 C 
ATOM     27  S1  <0> d           3.268   8.553  -1.760  0.00  0.00    -0.148 SA
ENDBRANCH  20  23
ENDBRANCH   1  17
TORSDOF 2
