REMARK  4 active torsions:
REMARK  status: ('A' for Active; 'I' for Inactive)
REMARK    1  A    between atoms: C5_5  and  N1_8 
REMARK    2  A    between atoms: C9_11  and  C10_13 
REMARK       I    between atoms: C10_13  and  N4_15 
REMARK    3  A    between atoms: N4_15  and  C11_16 
REMARK    4  A    between atoms: C11_16  and  C13_18 
ROOT
ATOM      1  N1  <0> d           1.199   1.741  -0.000  0.00  0.00    -0.225 N 
ATOM      2  C8  <0> d           2.028   0.678  -0.014  0.00  0.00     0.237 A 
ATOM      3  N2  <0> d           1.288  -0.401  -0.012  0.00  0.00    -0.216 NA
ATOM      4  C9  <0> d           0.002  -0.004   0.002  0.00  0.00     0.239 A 
ATOM      5  N3  <0> d          -0.016   1.311   0.009  0.00  0.00    -0.140 NA
ENDROOT
BRANCH   4   6
ATOM      6  C10 <0> d          -1.182  -0.890   0.009  0.00  0.00     0.291 C 
ATOM      7  O1  <0> d          -2.299  -0.411   0.022  0.00  0.00    -0.264 OA
ATOM      8  N4  <0> d          -1.022  -2.228  -0.000  0.00  0.00    -0.346 N 
ATOM      9  H10 <0> d          -0.011  -2.661  -0.012  0.00  0.00     0.163 HD
BRANCH   8  10
ATOM     10  C11 <0> d          -2.195  -3.106   0.006  0.00  0.00     0.114 C 
ATOM     11  C12 <0> d          -2.665  -3.318   1.447  0.00  0.00     0.037 C 
BRANCH  10  12
ATOM     12  C13 <0> d          -1.832  -4.434  -0.605  0.00  0.00    -0.036 A 
ATOM     13  C18 <0> d          -2.724  -5.076  -1.443  0.00  0.00     0.009 A 
ATOM     14  C17 <0> d          -2.390  -6.295  -2.004  0.00  0.00     0.001 A 
ATOM     15  C16 <0> d          -1.165  -6.872  -1.726  0.00  0.00     0.000 A 
ATOM     16  C15 <0> d          -0.273  -6.229  -0.888  0.00  0.00     0.001 A 
ATOM     17  C14 <0> d          -0.604  -5.008  -0.331  0.00  0.00     0.009 A 
ENDBRANCH  10  12
ENDBRANCH   8  10
ENDBRANCH   4   6
BRANCH   1  18
ATOM     18  C5  <0> d           1.592   3.087   0.003  0.00  0.00     0.059 A 
ATOM     19  C4  <0> d           0.634   4.091   0.018  0.00  0.00     0.032 A 
ATOM     20  C3  <0> d           1.024   5.416   0.021  0.00  0.00     0.009 A 
ATOM     21  C2  <0> d           2.368   5.742   0.010  0.00  0.00    -0.062 A 
ATOM     22  C1  <0> d           2.790   7.189   0.013  0.00  0.00     0.048 C 
ATOM     23  C7  <0> d           3.325   4.744  -0.005  0.00  0.00     0.009 A 
ATOM     24  C6  <0> d           2.940   3.417  -0.003  0.00  0.00     0.032 A 
ENDBRANCH   1  18
TORSDOF 4
