REMARK  2 active torsions:
REMARK  status: ('A' for Active; 'I' for Inactive)
REMARK    1  A    between atoms: C6_6  and  C7_9 
REMARK       I    between atoms: C7_9  and  N2_11 
REMARK    2  A    between atoms: N2_11  and  C8_12 
ROOT
ATOM      1  C1  <0> d          -0.017   1.384   0.010  0.00  0.00     0.005 A 
ATOM      2  C2  <0> d           1.158   2.103   0.002  0.00  0.00     0.030 A 
ATOM      3  C3  <0> d           2.381   1.439  -0.013  0.00  0.00     0.046 A 
ATOM      4  C4  <0> d           2.405   0.030  -0.021  0.00  0.00     0.032 A 
ATOM      5  C5  <0> d           3.766  -0.360  -0.037  0.00  0.00     0.052 A 
ATOM      6  C6  <0> d           4.520   0.771  -0.039  0.00  0.00     0.102 A 
ATOM      7  N1  <0> d           3.685   1.873  -0.025  0.00  0.00    -0.351 N 
ATOM      8  H1  <0> d           3.973   2.799  -0.023  0.00  0.00     0.166 HD
ATOM      9  C11 <0> d           1.199  -0.686  -0.013  0.00  0.00     0.129 A 
ATOM     10  C12 <0> d           0.002  -0.004   0.002  0.00  0.00     0.043 A 
ATOM     11  F1  <0> d           1.211  -2.037  -0.021  0.00  0.00    -0.205 F 
ENDROOT
BRANCH   6  12
ATOM     12  C7  <0> d           5.989   0.815  -0.054  0.00  0.00     0.274 C 
ATOM     13  O1  <0> d           6.628  -0.220  -0.067  0.00  0.00    -0.266 OA
ATOM     14  N2  <0> d           6.627   2.002  -0.054  0.00  0.00    -0.301 N 
ATOM     15  H5  <0> d           6.117   2.827  -0.044  0.00  0.00     0.171 HD
BRANCH  14  16
ATOM     16  C8  <0> d           8.007   2.043  -0.069  0.00  0.00     0.164 C 
ATOM     17  S1  <0> d           9.045   3.497  -0.072  0.00  0.00    -0.091 SA
ATOM     18  C10 <0> d          10.637   2.673  -0.499  0.00  0.00     0.104 C 
ATOM     19  C9  <0> d          10.264   1.225  -0.078  0.00  0.00     0.162 C 
ATOM     20  N3  <0> d           8.826   1.032  -0.089  0.00  0.00    -0.266 NA
ENDBRANCH  14  16
ENDBRANCH   6  12
TORSDOF 2
