REMARK  4 active torsions:
REMARK  status: ('A' for Active; 'I' for Inactive)
REMARK    1  A    between atoms: C5_5  and  N3_21 
REMARK    2  A    between atoms: C7_7  and  N1_8 
REMARK       I    between atoms: N1_8  and  C8_9 
REMARK    3  A    between atoms: C8_9  and  C9_11 
REMARK    4  A    between atoms: C9_11  and  N2_13 
ROOT
ATOM      1  N1  <0> d          -0.056  -0.139   2.419  0.00  0.00    -0.325 N 
ATOM      2  C8  <0> d           0.059  -0.735   3.623  0.00  0.00     0.253 C 
ATOM      3  O1  <0> d           0.344  -1.912   3.692  0.00  0.00    -0.271 OA
ATOM      4  H8  <0> d          -0.218   0.816   2.364  0.00  0.00     0.169 HD
ENDROOT
BRANCH   2   5
ATOM      5  C9  <0> d          -0.168   0.061   4.882  0.00  0.00     0.275 C 
ATOM      6  C10 <0> d           0.943   1.102   5.034  0.00  0.00     0.050 C 
BRANCH   5   7
ATOM      7  N2  <0> d          -0.155  -0.842   6.041  0.00  0.00    -0.057 N 
ATOM      8  C14 <0> d           1.193  -1.391   6.207  0.00  0.00     0.250 C 
ATOM      9  C13 <0> d           1.155  -2.584   7.167  0.00  0.00     0.168 C 
ATOM     10  S1  <0> d           0.604  -1.996   8.798  0.00  0.00     0.147 S 
ATOM     11  C12 <0> d          -0.906  -1.078   8.365  0.00  0.00     0.168 C 
ATOM     12  O2  <0> d           0.240  -3.120   9.586  0.00  0.00    -0.228 OA
ATOM     13  O3  <0> d           1.564  -1.077   9.300  0.00  0.00    -0.228 OA
ATOM     14  C11 <0> d          -0.573  -0.101   7.232  0.00  0.00     0.250 C 
ATOM     15  H22 <0> d          -0.802  -1.599   5.878  0.00  0.00     0.281 HD
ENDBRANCH   5   7
ENDBRANCH   2   5
BRANCH   1  16
ATOM     16  C7  <0> d           0.060  -0.897   1.249  0.00  0.00     0.043 A 
ATOM     17  C2  <0> d          -0.644  -0.529   0.109  0.00  0.00    -0.035 A 
ATOM     18  C1  <0> d          -1.532   0.688   0.134  0.00  0.00     0.050 C 
ATOM     19  C3  <0> d          -0.526  -1.274  -1.048  0.00  0.00     0.011 A 
ATOM     20  C4  <0> d           0.287  -2.391  -1.075  0.00  0.00     0.029 A 
ATOM     21  C5  <0> d           0.990  -2.768   0.063  0.00  0.00     0.027 A 
ATOM     22  C6  <0> d           0.874  -2.021   1.227  0.00  0.00     0.059 A 
BRANCH  21  23
ATOM     23  N3  <0> d           1.811  -3.897   0.036  0.00  0.00    -0.399 N 
ATOM     24  H20 <0> d           1.891  -4.419  -0.778  0.00  0.00     0.156 HD
ATOM     25  H21 <0> d           2.301  -4.160   0.831  0.00  0.00     0.156 HD
ENDBRANCH  21  23
ENDBRANCH   1  16
TORSDOF 4
