REMARK  3 active torsions:
REMARK  status: ('A' for Active; 'I' for Inactive)
REMARK    1  A    between atoms: C7_7  and  C8_8 
REMARK    2  A    between atoms: C8_8  and  C9_9 
REMARK    3  A    between atoms: C8_8  and  O2_14 
ROOT
ATOM      1  C1  <0> d          -0.018   1.503   0.010  0.00  0.00     0.049 C 
ATOM      2  C2  <0> d           0.002  -0.004   0.002  0.00  0.00    -0.045 A 
ATOM      3  C3  <0> d           0.006  -0.683  -1.199  0.00  0.00    -0.028 A 
ATOM      4  C4  <0> d           0.025  -2.076  -1.214  0.00  0.00     0.048 A 
ATOM      5  C5  <0> d           0.040  -2.762  -0.006  0.00  0.00    -0.021 A 
ATOM      6  C6  <0> d           0.036  -2.082   1.190  0.00  0.00     0.020 A 
ATOM      7  C7  <0> d           0.023  -0.698   1.198  0.00  0.00    -0.016 A 
ATOM      8  C13 <0> d           0.058  -4.233  -0.352  0.00  0.00     0.144 A 
ATOM      9  C14 <0> d           0.051  -4.255  -1.866  0.00  0.00     0.226 A 
ATOM     10  O3  <0> d           0.061  -5.241  -2.572  0.00  0.00    -0.273 OA
ATOM     11  N1  <0> d           0.032  -2.977  -2.280  0.00  0.00    -0.326 N 
ATOM     12  C15 <0> d          -0.011   0.083  -2.497  0.00  0.00     0.051 C 
ATOM     13  H12 <0> d           0.023  -2.711  -3.213  0.00  0.00     0.169 HD
ENDROOT
BRANCH   7  14
ATOM     14  C8  <0> d           0.025   0.051   2.506  0.00  0.00     0.208 C 
BRANCH  14  15
ATOM     15  C9  <0> d           1.439   0.427   2.867  0.00  0.00     0.085 A 
ATOM     16  O1  <0> d           2.349  -0.386   3.427  0.00  0.00    -0.324 OA
ATOM     17  C12 <0> d           3.500   0.284   3.603  0.00  0.00     0.142 A 
ATOM     18  C11 <0> d           3.330   1.544   3.163  0.00  0.00     0.027 A 
ATOM     19  C10 <0> d           2.002   1.636   2.688  0.00  0.00     0.037 A 
ENDBRANCH  14  15
BRANCH  14  20
ATOM     20  O2  <0> d          -0.523  -0.780   3.531  0.00  0.00    -0.384 OA
ATOM     21  H9  <0> d          -0.036  -1.603   3.673  0.00  0.00     0.211 HD
ENDBRANCH  14  20
ENDBRANCH   7  14
TORSDOF 3
