REMARK  8 active torsions:
REMARK  status: ('A' for Active; 'I' for Inactive)
REMARK    1  A    between atoms: C2_2  and  C3_3 
REMARK    2  A    between atoms: C2_2  and  N3_13 
REMARK       I    between atoms: C3_3  and  N1_5 
REMARK       I    between atoms: N1_5  and  C4_6 
REMARK       I    between atoms: C4_6  and  N2_8 
REMARK    3  A    between atoms: N2_8  and  C5_9 
REMARK    4  A    between atoms: C5_9  and  C6_10 
REMARK    5  A    between atoms: N4_16  and  C13_19 
REMARK    6  A    between atoms: C13_19  and  C14_20 
REMARK       I    between atoms: C14_20  and  N5_22 
REMARK    7  A    between atoms: N5_22  and  C15_23 
REMARK    8  A    between atoms: C15_23  and  C16_24 
ROOT
ATOM      1  N3  <0> d          -1.376  -0.512   0.012  0.00  0.00     0.105 N 
ATOM      2  C9  <0> d          -2.128  -0.020  -1.150  0.00  0.00     0.301 C 
ATOM      3  C10 <0> d          -3.536  -0.618  -1.134  0.00  0.00     0.265 C 
ATOM      4  N4  <0> d          -4.217  -0.235   0.110  0.00  0.00    -0.059 N 
ATOM      5  C11 <0> d          -3.468  -0.755   1.261  0.00  0.00     0.265 C 
ATOM      6  C12 <0> d          -2.059  -0.158   1.264  0.00  0.00     0.301 C 
ATOM      7  H32 <0> d          -4.268   0.771   0.168  0.00  0.00     0.280 HD
ENDROOT
BRANCH   1   8
ATOM      8  C2  <0> d           0.002  -0.004   0.002  0.00  0.00     0.310 C 
ATOM      9  C1  <0> d          -0.019   1.526   0.010  0.00  0.00     0.053 C 
BRANCH   8  10
ATOM     10  C3  <0> d           0.707  -0.490  -1.238  0.00  0.00     0.258 C 
ATOM     11  O1  <0> d           0.120  -1.191  -2.034  0.00  0.00    -0.271 OA
ATOM     12  N1  <0> d           1.991  -0.146  -1.462  0.00  0.00    -0.277 N 
ATOM     13  C4  <0> d           2.622  -0.580  -2.570  0.00  0.00     0.322 C 
ATOM     14  H5  <0> d           2.461   0.415  -0.825  0.00  0.00     0.173 HD
ATOM     15  O2  <0> d           2.033  -1.283  -3.369  0.00  0.00    -0.247 OA
ATOM     16  N2  <0> d           3.906  -0.236  -2.794  0.00  0.00    -0.342 N 
ATOM     17  H6  <0> d           4.376   0.324  -2.157  0.00  0.00     0.164 HD
BRANCH  16  18
ATOM     18  C5  <0> d           4.591  -0.709  -3.999  0.00  0.00     0.128 C 
BRANCH  18  19
ATOM     19  C6  <0> d           6.027  -0.179  -4.010  0.00  0.00    -0.005 C 
ATOM     20  C7  <0> d           6.803  -0.785  -2.839  0.00  0.00     0.011 C 
ATOM     21  C8  <0> d           6.704  -0.567  -5.326  0.00  0.00     0.011 C 
ENDBRANCH  18  19
ENDBRANCH  16  18
ENDBRANCH   8  10
ENDBRANCH   1   8
BRANCH   4  22
ATOM     22  C13 <0> d          -5.575  -0.795   0.117  0.00  0.00     0.337 C 
BRANCH  22  23
ATOM     23  C14 <0> d          -6.316  -0.301   1.333  0.00  0.00     0.243 C 
ATOM     24  O3  <0> d          -5.767   0.444   2.116  0.00  0.00    -0.272 OA
ATOM     25  N5  <0> d          -7.589  -0.687   1.549  0.00  0.00    -0.356 N 
ATOM     26  H26 <0> d          -8.028  -1.283   0.922  0.00  0.00     0.162 HD
BRANCH  25  27
ATOM     27  C15 <0> d          -8.309  -0.207   2.731  0.00  0.00     0.149 C 
BRANCH  27  28
ATOM     28  C16 <0> d          -9.702  -0.781   2.739  0.00  0.00    -0.018 C 
ATOM     29  C17 <0> d         -10.130  -1.450   3.781  0.00  0.00     0.008 C 
ENDBRANCH  27  28
ENDBRANCH  25  27
ENDBRANCH  22  23
ENDBRANCH   4  22
TORSDOF 8
