REMARK  4 active torsions:
REMARK  status: ('A' for Active; 'I' for Inactive)
REMARK    1  A    between atoms: C2_2  and  N4_35 
REMARK    2  A    between atoms: C13_15  and  C14_16 
REMARK    3  A    between atoms: C15_17  and  O3_33 
REMARK    4  A    between atoms: N3_22  and  C18_25 
ROOT
ATOM      1  C14 <0> d          -1.043  -2.457   0.116  0.00  0.00     0.098 A 
ATOM      2  C15 <0> d           0.057  -3.245  -0.052  0.00  0.00     0.158 A 
ATOM      3  N2  <0> d           1.297  -2.665  -0.134  0.00  0.00    -0.288 N 
ATOM      4  H3  <0> d           2.083  -3.221  -0.254  0.00  0.00     0.172 HD
ATOM      5  C16 <0> d           1.431  -1.328  -0.055  0.00  0.00     0.336 A 
ATOM      6  O1  <0> d           2.538  -0.831  -0.135  0.00  0.00    -0.246 OA
ATOM      7  N3  <0> d           0.359  -0.534   0.116  0.00  0.00    -0.230 N 
ATOM      8  C17 <0> d          -0.878  -1.063   0.202  0.00  0.00     0.269 A 
ATOM      9  O2  <0> d          -1.846  -0.339   0.352  0.00  0.00    -0.267 OA
ENDROOT
BRANCH   1  10
ATOM     10  C13 <0> d          -2.416  -3.071   0.210  0.00  0.00     0.281 C 
ATOM     11  C12 <0> d          -2.999  -2.802   1.577  0.00  0.00     0.053 A 
ATOM     12  C5  <0> d          -4.281  -2.414   1.768  0.00  0.00    -0.019 A 
ATOM     13  N1  <0> d          -2.362  -2.902   2.784  0.00  0.00    -0.356 N 
ATOM     14  C4  <0> d          -5.264  -2.209   0.643  0.00  0.00     0.069 C 
ATOM     15  C6  <0> d          -4.472  -2.254   3.192  0.00  0.00    -0.001 A 
ATOM     16  C3  <0> d          -4.695  -2.882  -0.613  0.00  0.00     0.241 C 
ATOM     17  N4  <0> d          -3.296  -2.434  -0.799  0.00  0.00    -0.057 N 
ATOM     18  H27 <0> d          -3.255  -1.415  -0.680  0.00  0.00     0.281 HD
ATOM     19  C11 <0> d          -3.226  -2.576   3.791  0.00  0.00     0.043 A 
ATOM     20  C7  <0> d          -5.572  -1.875   3.967  0.00  0.00     0.014 A 
ATOM     21  C10 <0> d          -3.069  -2.522   5.174  0.00  0.00     0.030 A 
ATOM     22  C9  <0> d          -4.173  -2.142   5.916  0.00  0.00     0.002 A 
ATOM     23  C8  <0> d          -5.388  -1.829   5.327  0.00  0.00     0.001 A 
ATOM     24  H1  <0> d          -1.436  -3.164   2.906  0.00  0.00     0.166 HD
BRANCH  17  25
ATOM     25  C2  <0> d          -2.833  -2.777  -2.159  0.00  0.00     0.231 C 
ATOM     26  C1  <0> d          -2.970  -4.280  -2.413  0.00  0.00     0.034 C 
ENDBRANCH  17  25
ENDBRANCH   1  10
BRANCH   2  27
ATOM     27  O3  <0> d          -0.074  -4.586  -0.137  0.00  0.00    -0.345 OA
ATOM     28  H26 <0> d           0.763  -5.056  -0.256  0.00  0.00     0.219 HD
ENDBRANCH   2  27
BRANCH   7  29
ATOM     29  C18 <0> d           0.528   0.855   0.201  0.00  0.00     0.048 A 
ATOM     30  C23 <0> d           0.459   1.635  -0.946  0.00  0.00     0.037 A 
ATOM     31  C22 <0> d           0.626   3.003  -0.859  0.00  0.00    -0.059 A 
ATOM     32  C21 <0> d           0.863   3.596   0.368  0.00  0.00     0.013 A 
ATOM     33  C24 <0> d           0.551   3.851  -2.103  0.00  0.00     0.048 C 
ATOM     34  C20 <0> d           0.932   2.822   1.511  0.00  0.00    -0.059 A 
ATOM     35  C19 <0> d           0.760   1.454   1.432  0.00  0.00     0.037 A 
ATOM     36  C25 <0> d           1.190   3.472   2.846  0.00  0.00     0.048 C 
ENDBRANCH   7  29
TORSDOF 4
