REMARK  6 active torsions:
REMARK  status: ('A' for Active; 'I' for Inactive)
REMARK    1  A    between atoms: C5_5  and  C7_7 
REMARK    2  A    between atoms: C7_7  and  O1_27 
REMARK    3  A    between atoms: N1_10  and  C12_13 
REMARK    4  A    between atoms: C12_13  and  C13_14 
REMARK    5  A    between atoms: N5_18  and  C14_19 
REMARK    6  A    between atoms: C14_19  and  C15_20 
ROOT
ATOM      1  C7  <0> d           1.228  -2.186  -0.022  0.00  0.00     0.091 C 
ATOM      2  C8  <0> d           1.953  -2.681  -1.277  0.00  0.00     0.071 C 
ATOM      3  C9  <0> d           2.040  -4.209  -1.240  0.00  0.00     0.238 C 
ATOM      4  N1  <0> d           2.781  -4.631  -0.046  0.00  0.00    -0.064 N 
ATOM      5  C10 <0> d           2.055  -4.223   1.162  0.00  0.00     0.238 C 
ATOM      6  C11 <0> d           1.969  -2.696   1.218  0.00  0.00     0.071 C 
ATOM      7  H22 <0> d           3.695  -4.203  -0.049  0.00  0.00     0.280 HD
ENDROOT
BRANCH   4   8
ATOM      8  C12 <0> d           2.929  -6.093  -0.055  0.00  0.00     0.316 C 
BRANCH   8   9
ATOM      9  C13 <0> d           3.794  -6.518   1.103  0.00  0.00     0.174 A 
ATOM     10  N5  <0> d           3.377  -6.837   2.343  0.00  0.00    -0.229 N 
ATOM     11  N4  <0> d           4.426  -7.146   3.029  0.00  0.00    -0.044 NA
ATOM     12  N3  <0> d           5.464  -7.024   2.277  0.00  0.00    -0.023 NA
ATOM     13  N2  <0> d           5.099  -6.643   1.102  0.00  0.00    -0.112 NA
BRANCH  10  14
ATOM     14  C14 <0> d           1.993  -6.838   2.822  0.00  0.00     0.193 C 
BRANCH  14  15
ATOM     15  C15 <0> d           1.382  -8.196   2.591  0.00  0.00    -0.038 A 
ATOM     16  C20 <0> d           1.476  -9.171   3.566  0.00  0.00     0.012 A 
ATOM     17  C19 <0> d           0.912 -10.415   3.357  0.00  0.00     0.043 A 
ATOM     18  C18 <0> d           0.262 -10.689   2.166  0.00  0.00     0.116 A 
ATOM     19  C17 <0> d           0.172  -9.713   1.187  0.00  0.00     0.043 A 
ATOM     20  F1  <0> d          -0.286 -11.906   1.958  0.00  0.00    -0.206 F 
ATOM     21  C16 <0> d           0.732  -8.468   1.401  0.00  0.00     0.012 A 
ENDBRANCH  14  15
ENDBRANCH  10  14
ENDBRANCH   8   9
ENDBRANCH   4   8
BRANCH   1  22
ATOM     22  C5  <0> d           1.208  -0.679  -0.013  0.00  0.00     0.015 A 
ATOM     23  C4  <0> d           2.397   0.029  -0.021  0.00  0.00     0.125 A 
ATOM     24  C3  <0> d           2.377   1.414  -0.013  0.00  0.00     0.043 A 
ATOM     25  F2  <0> d           3.577  -0.630  -0.036  0.00  0.00    -0.205 F 
ATOM     26  C2  <0> d           1.171   2.087   0.002  0.00  0.00     0.003 A 
ATOM     27  C1  <0> d          -0.017   1.378   0.010  0.00  0.00     0.001 A 
ATOM     28  C6  <0> d           0.002  -0.004   0.002  0.00  0.00     0.013 A 
ENDBRANCH   1  22
BRANCH   1  29
ATOM     29  O1  <0> d          -0.112  -2.682  -0.015  0.00  0.00    -0.385 OA
ATOM     30  H21 <0> d          -0.640  -2.400  -0.775  0.00  0.00     0.211 HD
ENDBRANCH   1  29
TORSDOF 6
