REMARK  3 active torsions:
REMARK  status: ('A' for Active; 'I' for Inactive)
REMARK       I    between atoms: N1_2  and  C3_4 
REMARK    1  A    between atoms: C3_4  and  C4_6 
REMARK       I    between atoms: N2_10  and  C7_11 
REMARK    2  A    between atoms: C7_11  and  C8_13 
REMARK    3  A    between atoms: N4_23  and  C15_24 
ROOT
ATOM      1  C8  <0> d           1.007  -2.226  -4.908  0.00  0.00     0.034 A 
ATOM      2  C9  <0> d          -0.162  -2.771  -5.449  0.00  0.00     0.019 A 
ATOM      3  C10 <0> d          -0.245  -3.026  -6.799  0.00  0.00     0.033 A 
ATOM      4  C11 <0> d           0.833  -2.742  -7.629  0.00  0.00     0.066 A 
ATOM      5  C12 <0> d           2.005  -2.197  -7.094  0.00  0.00     0.064 A 
ATOM      6  C13 <0> d           2.090  -1.935  -5.739  0.00  0.00     0.049 A 
ATOM      7  N3  <0> d           2.890  -2.027  -8.157  0.00  0.00    -0.306 N 
ATOM      8  H2  <0> d           3.788  -1.667  -8.097  0.00  0.00     0.171 HD
ATOM      9  C14 <0> d           2.283  -2.449  -9.283  0.00  0.00     0.328 A 
ATOM     10  O3  <0> d           2.781  -2.437 -10.393  0.00  0.00    -0.246 OA
ATOM     11  N4  <0> d           1.043  -2.885  -8.994  0.00  0.00    -0.293 N 
ENDROOT
BRANCH   1  12
ATOM     12  C7  <0> d           1.094  -1.954  -3.460  0.00  0.00     0.255 C 
ATOM     13  N2  <0> d           2.275  -2.070  -2.821  0.00  0.00    -0.325 N 
ATOM     14  C4  <0> d           2.426  -1.713  -1.421  0.00  0.00     0.190 C 
ATOM     15  C6  <0> d           3.481  -2.564  -3.514  0.00  0.00     0.201 C 
ATOM     16  C5  <0> d           3.850  -1.937  -0.856  0.00  0.00     0.110 C 
ATOM     17  S1  <0> d           4.493  -3.157  -2.087  0.00  0.00    -0.147 SA
ATOM     18  O2  <0> d           0.100  -1.624  -2.842  0.00  0.00    -0.267 OA
BRANCH  14  19
ATOM     19  C3  <0> d           1.455  -2.534  -0.611  0.00  0.00     0.242 C 
ATOM     20  N1  <0> d           1.105  -2.135   0.627  0.00  0.00    -0.359 N 
ATOM     21  C1  <0> d           0.239  -2.982   1.452  0.00  0.00     0.152 C 
ATOM     22  C2  <0> d           1.589  -0.854   1.149  0.00  0.00     0.152 C 
ATOM     23  O1  <0> d           0.990  -3.554  -1.074  0.00  0.00    -0.271 OA
ENDBRANCH  14  19
ENDBRANCH   1  12
BRANCH  11  24
ATOM     24  C15 <0> d           0.078  -3.420  -9.957  0.00  0.00     0.095 C 
ATOM     25  C19 <0> d          -0.242  -2.361 -11.027  0.00  0.00     0.026 C 
ATOM     26  C18 <0> d           0.184  -2.962 -12.383  0.00  0.00     0.002 C 
ATOM     27  C17 <0> d           0.151  -4.492 -12.147  0.00  0.00     0.002 C 
ATOM     28  C16 <0> d           0.687  -4.627 -10.700  0.00  0.00     0.026 C 
ENDBRANCH  11  24
TORSDOF 3
