REMARK  5 active torsions:
REMARK  status: ('A' for Active; 'I' for Inactive)
REMARK    1  A    between atoms: C2_2  and  C3_3 
REMARK    2  A    between atoms: C2_2  and  N3_9 
REMARK    3  A    between atoms: C3_3  and  N1_4 
REMARK       I    between atoms: N3_9  and  C7_10 
REMARK       I    between atoms: C7_10  and  N4_12 
REMARK    4  A    between atoms: N4_12  and  C8_13 
REMARK    5  A    between atoms: C8_13  and  C9_14 
ROOT
ATOM      1  N3  <0> d           0.688  -0.476  -1.203  0.00  0.00    -0.337 N 
ATOM      2  C7  <0> d           2.031  -0.587  -1.215  0.00  0.00     0.316 C 
ATOM      3  O1  <0> d           2.674  -0.294  -0.225  0.00  0.00    -0.247 OA
ATOM      4  N4  <0> d           2.662  -1.022  -2.324  0.00  0.00    -0.339 N 
ATOM      5  H10 <0> d           0.175  -0.710  -1.993  0.00  0.00     0.164 HD
ATOM      6  H11 <0> d           2.149  -1.255  -3.114  0.00  0.00     0.164 HD
ENDROOT
BRANCH   1   7
ATOM      7  C2  <0> d           0.002  -0.004   0.002  0.00  0.00     0.100 C 
ATOM      8  C1  <0> d          -0.019   1.526   0.010  0.00  0.00     0.034 C 
BRANCH   7   9
ATOM      9  C3  <0> d          -1.433  -0.534   0.013  0.00  0.00     0.153 C 
BRANCH   9  10
ATOM     10  N1  <0> d          -1.414  -1.994   0.125  0.00  0.00    -0.350 N 
ATOM     11  C6  <0> d          -1.426  -2.710   1.270  0.00  0.00     0.182 A 
ATOM     12  N2  <0> d          -1.404  -3.980   0.970  0.00  0.00    -0.361 N 
ATOM     13  C5  <0> d          -1.369  -4.119  -0.363  0.00  0.00     0.106 A 
ATOM     14  H16 <0> d          -1.408  -4.708   1.611  0.00  0.00     0.166 HD
ATOM     15  C4  <0> d          -1.375  -2.888  -0.911  0.00  0.00     0.108 A 
ENDBRANCH   9  10
ENDBRANCH   7   9
ENDBRANCH   1   7
BRANCH   4  16
ATOM     16  C8  <0> d           4.122  -1.142  -2.336  0.00  0.00     0.163 C 
BRANCH  16  17
ATOM     17  C9  <0> d           4.573  -1.645  -3.683  0.00  0.00    -0.032 A 
ATOM     18  C12 <0> d           4.865  -0.774  -4.680  0.00  0.00     0.059 A 
ATOM     19  S1  <0> d           5.333  -1.874  -6.006  0.00  0.00    -0.094 SA
ATOM     20  C11 <0> d           5.098  -3.420  -5.146  0.00  0.00     0.051 A 
ATOM     21  C10 <0> d           4.689  -3.002  -3.923  0.00  0.00     0.036 A 
ATOM     22 Br1  <0> d           5.353  -5.185  -5.777  0.00  0.00    -0.043 Br
ENDBRANCH  16  17
ENDBRANCH   4  16
TORSDOF 5
