REMARK  7 active torsions:
REMARK  status: ('A' for Active; 'I' for Inactive)
REMARK    1  A    between atoms: C2_2  and  N1_3 
REMARK    2  A    between atoms: N1_3  and  C3_4 
REMARK    3  A    between atoms: N1_3  and  C8_10 
REMARK    4  A    between atoms: C3_4  and  C4_5 
REMARK    5  A    between atoms: C8_10  and  C9_11 
REMARK    6  A    between atoms: C8_10  and  C10_13 
REMARK    7  A    between atoms: C9_11  and  N2_12 
ROOT
ATOM      1  C8  <0> d           0.141  -0.107  -2.620  0.00  0.00     0.305 C 
ENDROOT
BRANCH   1   2
ATOM      2  N1  <0> d           0.318  -0.304  -1.175  0.00  0.00     0.105 N 
BRANCH   2   3
ATOM      3  C2  <0> d          -0.657   0.488  -0.413  0.00  0.00     0.269 C 
ATOM      4  C1  <0> d          -0.276   1.968  -0.480  0.00  0.00     0.037 C 
ENDBRANCH   2   3
BRANCH   2   5
ATOM      5  C3  <0> d           0.231  -1.728  -0.823  0.00  0.00     0.319 C 
BRANCH   5   6
ATOM      6  C4  <0> d           0.913  -1.960   0.501  0.00  0.00     0.011 A 
ATOM      7  S1  <0> d           2.619  -2.371   0.829  0.00  0.00    -0.105 SA
ATOM      8  C7  <0> d           2.520  -2.449   2.610  0.00  0.00     0.050 A 
ATOM      9  C6  <0> d           1.213  -2.169   2.831  0.00  0.00     0.008 A 
ATOM     10  C5  <0> d           0.389  -1.918   1.750  0.00  0.00     0.017 A 
ENDBRANCH   5   6
ENDBRANCH   2   5
ENDBRANCH   1   2
BRANCH   1  11
ATOM     11  C9  <0> d           1.278  -0.802  -3.372  0.00  0.00     0.272 C 
BRANCH  11  12
ATOM     12  N2  <0> d           2.569  -0.329  -2.854  0.00  0.00    -0.077 N 
ATOM     13  H14 <0> d           3.317  -0.718  -3.408  0.00  0.00     0.274 HD
ATOM     14  H15 <0> d           2.602   0.678  -2.904  0.00  0.00     0.274 HD
ATOM     15  H18 <0> d           2.673  -0.621  -1.894  0.00  0.00     0.274 HD
ENDBRANCH  11  12
ENDBRANCH   1  11
BRANCH   1  16
ATOM     16  C10 <0> d          -1.178  -0.696  -3.049  0.00  0.00     0.089 A 
ATOM     17  O1  <0> d          -1.643  -1.911  -2.714  0.00  0.00    -0.305 OA
ATOM     18  C13 <0> d          -2.850  -2.099  -3.271  0.00  0.00     0.121 A 
ATOM     19  C12 <0> d          -3.166  -1.000  -3.982  0.00  0.00     0.048 A 
ATOM     20 Br1  <0> d          -3.922  -3.647  -3.095  0.00  0.00    -0.023 Br
ATOM     21  C11 <0> d          -2.087  -0.096  -3.838  0.00  0.00     0.038 A 
ENDBRANCH   1  16
TORSDOF 7
