REMARK  4 active torsions:
REMARK  status: ('A' for Active; 'I' for Inactive)
REMARK    1  A    between atoms: C5_6  and  C18_27 
REMARK    2  A    between atoms: C7_10  and  C8_11 
REMARK       I    between atoms: C8_11  and  N3_13 
REMARK    3  A    between atoms: N3_13  and  N4_14 
REMARK       I    between atoms: N4_14  and  C9_15 
REMARK    4  A    between atoms: C9_15  and  C10_17 
ROOT
ATOM      1  C8  <0> d          -2.332  -5.011   2.325  0.00  0.00     0.277 C 
ATOM      2  O1  <0> d          -1.239  -5.521   2.490  0.00  0.00    -0.265 OA
ATOM      3  N3  <0> d          -2.547  -3.738   2.713  0.00  0.00    -0.263 N 
ATOM      4  H5  <0> d          -3.534  -3.277   2.564  0.00  0.00     0.190 HD
ENDROOT
BRANCH   1   5
ATOM      5  C7  <0> d          -3.417  -5.783   1.704  0.00  0.00     0.083 A 
ATOM      6  C2  <0> d          -3.391  -7.064   1.247  0.00  0.00    -0.024 A 
ATOM      7  C1  <0> d          -2.126  -7.877   1.350  0.00  0.00     0.050 C 
ATOM      8  C3  <0> d          -4.546  -7.628   0.683  0.00  0.00     0.032 A 
ATOM      9  C6  <0> d          -5.679  -6.774   0.628  0.00  0.00     0.113 A 
ATOM     10  C4  <0> d          -4.744  -8.928   0.153  0.00  0.00     0.046 A 
ATOM     11  N2  <0> d          -6.821  -7.181   0.118  0.00  0.00    -0.225 NA
ATOM     12  S1  <0> d          -5.090  -5.268   1.356  0.00  0.00    -0.063 SA
ATOM     13  C5  <0> d          -6.936  -8.406  -0.358  0.00  0.00     0.131 A 
ATOM     14  N1  <0> d          -5.920  -9.251  -0.337  0.00  0.00    -0.237 NA
ATOM     15  C21 <0> d          -3.618  -9.929   0.153  0.00  0.00     0.071 C 
BRANCH  13  16
ATOM     16  C18 <0> d          -8.255  -8.851  -0.937  0.00  0.00     0.057 A 
ATOM     17  C20 <0> d          -9.475  -8.830  -0.014  0.00  0.00     0.013 A 
ATOM     18  C19 <0> d          -9.338  -7.787  -1.126  0.00  0.00     0.013 A 
ENDBRANCH  13  16
ENDBRANCH   1   5
BRANCH   3  19
ATOM     19  N4  <0> d          -1.512  -3.002   3.306  0.00  0.00    -0.263 N 
ATOM     20  C9  <0> d          -1.727  -1.730   3.693  0.00  0.00     0.272 C 
ATOM     21  O2  <0> d          -2.820  -1.220   3.529  0.00  0.00    -0.266 OA
ATOM     22  H6  <0> d          -0.525  -3.463   3.454  0.00  0.00     0.190 HD
BRANCH  20  23
ATOM     23  C10 <0> d          -0.643  -0.958   4.315  0.00  0.00     0.061 A 
ATOM     24  C13 <0> d          -0.712   0.436   4.792  0.00  0.00     0.008 A 
ATOM     25  C12 <0> d           0.562   0.731   5.303  0.00  0.00     0.043 A 
ATOM     26  C14 <0> d          -1.717   1.399   4.823  0.00  0.00     0.015 A 
ATOM     27  N5  <0> d           1.342  -0.397   5.147  0.00  0.00    -0.364 N 
ATOM     28  C17 <0> d           0.808   1.993   5.833  0.00  0.00     0.030 A 
ATOM     29  C11 <0> d           0.627  -1.389   4.564  0.00  0.00     0.106 A 
ATOM     30  H1  <0> d           2.393  -0.565   5.422  0.00  0.00     0.165 HD
ATOM     31  C16 <0> d          -0.194   2.938   5.853  0.00  0.00     0.002 A 
ATOM     32  C15 <0> d          -1.452   2.645   5.347  0.00  0.00     0.001 A 
ENDBRANCH  20  23
ENDBRANCH   3  19
TORSDOF 4
