REMARK  5 active torsions:
REMARK  status: ('A' for Active; 'I' for Inactive)
REMARK    1  A    between atoms: C8_9  and  S1_11 
REMARK    2  A    between atoms: S1_11  and  C9_12 
REMARK    3  A    between atoms: C9_12  and  C10_13 
REMARK    4  A    between atoms: C10_13  and  N3_14 
REMARK    5  A    between atoms: N3_14  and  C11_15 
ROOT
ATOM      1  S1  <0> d           0.096  -5.820   2.394  0.00  0.00    -0.090 SA
ENDROOT
BRANCH   1   2
ATOM      2  C8  <0> d           0.069  -4.265   1.566  0.00  0.00     0.167 A 
ATOM      3  N1  <0> d           0.055  -3.047   2.184  0.00  0.00    -0.333 N 
ATOM      4  C6  <0> d           0.037  -2.082   1.190  0.00  0.00     0.063 A 
ATOM      5  H19 <0> d           0.058  -2.887   3.141  0.00  0.00     0.168 HD
ATOM      6  C5  <0> d           0.040  -2.778  -0.030  0.00  0.00     0.086 A 
ATOM      7  C7  <0> d           0.023  -0.696   1.196  0.00  0.00     0.038 A 
ATOM      8  C4  <0> d           0.024  -2.063  -1.230  0.00  0.00     0.034 A 
ATOM      9  N2  <0> d           0.060  -4.104   0.266  0.00  0.00    -0.223 NA
ATOM     10  C3  <0> d           0.006  -0.686  -1.206  0.00  0.00     0.009 A 
ATOM     11  C2  <0> d           0.002  -0.004   0.002  0.00  0.00    -0.060 A 
ATOM     12  C1  <0> d          -0.018   1.503   0.010  0.00  0.00     0.048 C 
ENDBRANCH   1   2
BRANCH   1  13
ATOM     13  C9  <0> d           0.105  -7.035   1.047  0.00  0.00     0.110 C 
BRANCH  13  14
ATOM     14  C10 <0> d           0.129  -8.447   1.634  0.00  0.00     0.243 C 
BRANCH  14  15
ATOM     15  N3  <0> d           0.136  -9.431   0.542  0.00  0.00    -0.069 N 
ATOM     16  H12 <0> d          -0.693  -9.315  -0.021  0.00  0.00     0.277 HD
ATOM     17  H20 <0> d           0.955  -9.291  -0.031  0.00  0.00     0.277 HD
BRANCH  15  18
ATOM     18  C11 <0> d           0.159 -10.787   1.106  0.00  0.00     0.200 C 
ATOM     19  C14 <0> d           0.038 -11.834  -0.039  0.00  0.00     0.173 C 
ATOM     20  S2  <0> d           0.692 -13.335   0.807  0.00  0.00     0.146 S 
ATOM     21  C13 <0> d           1.660 -12.532   2.148  0.00  0.00     0.142 C 
ATOM     22  O1  <0> d          -0.392 -14.050   1.384  0.00  0.00    -0.228 OA
ATOM     23  O2  <0> d           1.585 -14.008  -0.070  0.00  0.00    -0.228 OA
ATOM     24  C12 <0> d           1.492 -11.025   1.833  0.00  0.00     0.049 C 
ENDBRANCH  15  18
ENDBRANCH  14  15
ENDBRANCH  13  14
ENDBRANCH   1  13
TORSDOF 5
