REMARK  3 active torsions:
REMARK  status: ('A' for Active; 'I' for Inactive)
REMARK    1  A    between atoms: N1_12  and  C11_16 
REMARK    2  A    between atoms: C11_16  and  C12_17 
REMARK    3  A    between atoms: C12_17  and  C13_19 
ROOT
ATOM      1  C1  <0> d          -0.019   1.523   0.010  0.00  0.00     0.004 C 
ATOM      2  C2  <0> d           1.400   2.111   0.000  0.00  0.00     0.016 C 
ATOM      3  C3  <0> d           2.085   1.630  -1.276  0.00  0.00     0.062 C 
ATOM      4  C4  <0> d           2.178   0.084  -1.139  0.00  0.00     0.060 C 
ATOM      5  C5  <0> d           3.339  -0.448  -1.859  0.00  0.00    -0.011 C 
ATOM      6  C6  <0> d           4.391   0.369  -2.010  0.00  0.00     0.042 C 
ATOM      7  S1  <0> d           3.900   1.938  -1.237  0.00  0.00    -0.136 SA
ATOM      8  C7  <0> d           0.824  -0.536  -1.182  0.00  0.00     0.124 A 
ATOM      9  C8  <0> d           0.002  -0.004   0.002  0.00  0.00     0.042 C 
ATOM     10  C9  <0> d           0.100  -0.242  -2.476  0.00  0.00     0.257 A 
ATOM     11  O1  <0> d          -0.171   0.847  -2.934  0.00  0.00    -0.270 OA
ATOM     12  N1  <0> d          -0.180  -1.447  -3.015  0.00  0.00    -0.261 N 
ATOM     13  C10 <0> d           0.265  -2.447  -2.244  0.00  0.00     0.326 A 
ATOM     14  O2  <0> d           0.131  -3.623  -2.519  0.00  0.00    -0.247 OA
ATOM     15  N2  <0> d           0.877  -2.003  -1.130  0.00  0.00    -0.324 N 
ATOM     16  H12 <0> d           1.275  -2.546  -0.431  0.00  0.00     0.165 HD
ENDROOT
BRANCH  12  17
ATOM     17  C11 <0> d          -0.884  -1.637  -4.285  0.00  0.00     0.217 C 
BRANCH  17  18
ATOM     18  C12 <0> d           0.116  -1.682  -5.412  0.00  0.00     0.173 C 
ATOM     19  O3  <0> d           1.295  -1.567  -5.178  0.00  0.00    -0.293 OA
BRANCH  18  20
ATOM     20  C13 <0> d          -0.355  -1.870  -6.831  0.00  0.00     0.201 A 
ATOM     21  N3  <0> d           0.738  -1.591  -7.771  0.00  0.00    -0.285 NA
ATOM     22  C16 <0> d           0.970  -2.670  -8.445  0.00  0.00     0.111 A 
ATOM     23  C15 <0> d           0.075  -3.752  -8.033  0.00  0.00     0.017 A 
ATOM     24  C14 <0> d          -0.734  -3.315  -7.069  0.00  0.00     0.009 A 
ENDBRANCH  18  20
ENDBRANCH  17  18
ENDBRANCH  12  17
TORSDOF 3
