REMARK  6 active torsions:
REMARK  status: ('A' for Active; 'I' for Inactive)
REMARK    1  A    between atoms: C2_2  and  O2_4 
REMARK    2  A    between atoms: O2_4  and  C3_5 
REMARK    3  A    between atoms: C8_10  and  C9_11 
REMARK       I    between atoms: C9_11  and  N1_13 
REMARK    4  A    between atoms: C11_15  and  C18_23 
REMARK       I    between atoms: C18_23  and  N3_25 
REMARK    5  A    between atoms: N3_25  and  C19_26 
REMARK    6  A    between atoms: C19_26  and  C20_27 
REMARK       I    between atoms: C20_27  and  N4_29 
ROOT
ATOM      1  C9  <0> d           0.138  -2.181  -3.483  0.00  0.00     0.256 C 
ATOM      2  O3  <0> d           0.206  -0.972  -3.583  0.00  0.00    -0.267 OA
ATOM      3  N1  <0> d           0.110  -2.949  -4.590  0.00  0.00    -0.346 N 
ATOM      4  C10 <0> d           0.092  -4.429  -4.670  0.00  0.00     0.141 C 
ATOM      5  C11 <0> d          -0.879  -4.745  -5.829  0.00  0.00     0.106 C 
ATOM      6  C12 <0> d          -0.873  -3.479  -6.702  0.00  0.00    -0.007 C 
ATOM      7  C13 <0> d           0.085  -2.504  -6.004  0.00  0.00     0.136 C 
ATOM      8  C14 <0> d          -2.273  -2.877  -6.769  0.00  0.00     0.039 C 
ATOM      9  C15 <0> d          -2.254  -1.653  -7.689  0.00  0.00     0.233 C 
ATOM     10  N2  <0> d          -1.807  -2.052  -9.028  0.00  0.00    -0.075 N 
ATOM     11  C16 <0> d          -0.425  -2.544  -8.970  0.00  0.00     0.233 C 
ATOM     12  C17 <0> d          -0.367  -3.806  -8.104  0.00  0.00     0.039 C 
ATOM     13  H17 <0> d          -2.408  -2.782  -9.378  0.00  0.00     0.277 HD
ATOM     14  H31 <0> d          -1.853  -1.256  -9.648  0.00  0.00     0.277 HD
ENDROOT
BRANCH   1  15
ATOM     15  C8  <0> d           0.086  -2.809  -2.148  0.00  0.00     0.066 A 
ATOM     16  C3  <0> d          -0.608  -2.186  -1.103  0.00  0.00     0.094 A 
ATOM     17  C4  <0> d          -0.656  -2.788   0.145  0.00  0.00     0.038 A 
ATOM     18  C5  <0> d          -0.017  -3.993   0.358  0.00  0.00     0.003 A 
ATOM     19  C6  <0> d           0.675  -4.610  -0.672  0.00  0.00     0.001 A 
ATOM     20  C7  <0> d           0.732  -4.026  -1.919  0.00  0.00     0.020 A 
BRANCH  16  21
ATOM     21  O2  <0> d          -1.236  -1.001  -1.313  0.00  0.00    -0.278 OA
BRANCH  21  22
ATOM     22  C2  <0> d          -2.502  -1.028  -1.761  0.00  0.00     0.260 C 
ATOM     23  C1  <0> d          -3.279   0.255  -1.902  0.00  0.00     0.126 C 
ATOM     24  O1  <0> d          -3.017  -2.082  -2.052  0.00  0.00    -0.265 OA
ENDBRANCH  21  22
ENDBRANCH  16  21
ENDBRANCH   1  15
BRANCH   5  25
ATOM     25  C18 <0> d          -2.263  -5.012  -5.297  0.00  0.00     0.224 C 
ATOM     26  O4  <0> d          -2.667  -4.407  -4.327  0.00  0.00    -0.273 OA
ATOM     27  N3  <0> d          -3.052  -5.924  -5.899  0.00  0.00    -0.352 N 
ATOM     28  H22 <0> d          -2.729  -6.408  -6.675  0.00  0.00     0.162 HD
BRANCH  27  29
ATOM     29  C19 <0> d          -4.398  -6.183  -5.382  0.00  0.00     0.225 C 
BRANCH  29  30
ATOM     30  C20 <0> d          -5.067  -7.237  -6.227  0.00  0.00     0.236 C 
ATOM     31  O5  <0> d          -4.477  -7.723  -7.169  0.00  0.00    -0.272 OA
ATOM     32  N4  <0> d          -6.320  -7.639  -5.936  0.00  0.00    -0.359 N 
ATOM     33  C21 <0> d          -6.970  -8.663  -6.758  0.00  0.00     0.152 C 
ATOM     34  C22 <0> d          -7.032  -7.052  -4.799  0.00  0.00     0.152 C 
ENDBRANCH  29  30
ENDBRANCH  27  29
ENDBRANCH   5  25
TORSDOF 6
