REMARK  5 active torsions:
REMARK  status: ('A' for Active; 'I' for Inactive)
REMARK    1  A    between atoms: C2_2  and  C5_5 
REMARK    2  A    between atoms: C12_13  and  O3_27 
REMARK    3  A    between atoms: C13_15  and  C14_17 
REMARK    4  A    between atoms: C18_21  and  O2_25 
REMARK    5  A    between atoms: C19_22  and  O1_23 
ROOT
ATOM      1  C5  <0> d           0.718  -0.497  -1.257  0.00  0.00    -0.002 C 
ATOM      2  C6  <0> d          -0.017   0.014  -2.499  0.00  0.00     0.010 C 
ATOM      3  C7  <0> d           0.538  -0.670  -3.751  0.00  0.00     0.041 C 
ATOM      4  C8  <0> d           2.052  -0.513  -3.763  0.00  0.00    -0.028 A 
ATOM      5  C9  <0> d           2.731  -0.196  -2.637  0.00  0.00    -0.008 A 
ATOM      6  S1  <0> d           4.429  -0.127  -3.137  0.00  0.00    -0.076 SA
ATOM      7  C10 <0> d           4.257  -0.500  -4.743  0.00  0.00     0.087 A 
ATOM      8  C11 <0> d           2.883  -0.682  -4.940  0.00  0.00     0.057 A 
ATOM      9  C12 <0> d           2.426  -1.017  -6.314  0.00  0.00     0.173 C 
ATOM     10  N1  <0> d           3.333  -1.364  -7.186  0.00  0.00    -0.235 NA
ATOM     11  C13 <0> d           4.753  -1.508  -6.889  0.00  0.00     0.246 C 
ATOM     12  N2  <0> d           5.164  -0.642  -5.769  0.00  0.00    -0.357 N 
ATOM     13  C22 <0> d           2.158   0.038  -1.273  0.00  0.00     0.052 C 
ATOM     14  H16 <0> d           6.026  -0.197  -5.756  0.00  0.00     0.162 HD
ENDROOT
BRANCH  11  15
ATOM     15  C14 <0> d           5.037  -2.943  -6.530  0.00  0.00     0.022 A 
ATOM     16  C19 <0> d           4.344  -3.965  -7.157  0.00  0.00     0.111 A 
ATOM     17  C18 <0> d           4.614  -5.290  -6.828  0.00  0.00     0.102 A 
ATOM     18  C17 <0> d           5.566  -5.581  -5.865  0.00  0.00     0.039 A 
ATOM     19  C16 <0> d           6.251  -4.556  -5.238  0.00  0.00     0.004 A 
ATOM     20  C15 <0> d           5.987  -3.241  -5.570  0.00  0.00     0.014 A 
BRANCH  16  21
ATOM     21  O1  <0> d           3.406  -3.675  -8.098  0.00  0.00    -0.352 OA
ATOM     22  C20 <0> d           3.851  -3.586  -9.453  0.00  0.00     0.210 C 
ENDBRANCH  16  21
BRANCH  17  23
ATOM     23  O2  <0> d           3.939  -6.297  -7.445  0.00  0.00    -0.353 OA
ATOM     24  C21 <0> d           4.264  -7.632  -7.052  0.00  0.00     0.210 C 
ENDBRANCH  17  23
ENDBRANCH  11  15
BRANCH   9  25
ATOM     25  O3  <0> d           1.116  -0.964  -6.648  0.00  0.00    -0.344 OA
ATOM     26  H26 <0> d           0.935  -1.202  -7.568  0.00  0.00     0.219 HD
ENDBRANCH   9  25
BRANCH   1  27
ATOM     27  C2  <0> d           0.002  -0.004   0.002  0.00  0.00    -0.047 C 
ATOM     28  C1  <0> d          -0.019   1.526   0.010  0.00  0.00     0.015 C 
ATOM     29  C3  <0> d           0.742  -0.511   1.242  0.00  0.00     0.015 C 
ATOM     30  C4  <0> d          -1.433  -0.534   0.013  0.00  0.00     0.015 C 
ENDBRANCH   1  27
TORSDOF 5
