REMARK  7 active torsions:
REMARK  status: ('A' for Active; 'I' for Inactive)
REMARK    1  A    between atoms: O1_2  and  C2_3 
REMARK    2  A    between atoms: C8_9  and  O5_33 
REMARK    3  A    between atoms: N1_15  and  C15_18 
REMARK    4  A    between atoms: C15_18  and  C16_19 
REMARK    5  A    between atoms: C16_19  and  C17_20 
REMARK    6  A    between atoms: C16_19  and  O4_32 
REMARK    7  A    between atoms: C23_28  and  O3_30 
ROOT
ATOM      1  C2  <0> d           9.189  -4.773   3.788  0.00  0.00     0.069 A 
ATOM      2  C3  <0> d           8.815  -3.592   3.163  0.00  0.00     0.039 A 
ATOM      3  C4  <0> d           8.349  -2.534   3.915  0.00  0.00     0.040 A 
ATOM      4  C5  <0> d           8.251  -2.644   5.298  0.00  0.00     0.079 A 
ATOM      5  C6  <0> d           8.622  -3.823   5.921  0.00  0.00     0.006 A 
ATOM      6  C7  <0> d           9.092  -4.884   5.166  0.00  0.00     0.049 A 
ATOM      7  C8  <0> d           8.523  -3.986   7.417  0.00  0.00     0.157 C 
ATOM      8  C9  <0> d           8.422  -2.610   8.079  0.00  0.00     0.075 C 
ATOM      9  C10 <0> d           7.352  -1.798   7.341  0.00  0.00     0.073 C 
ATOM     10  O2  <0> d           7.791  -1.576   6.002  0.00  0.00    -0.339 OA
ATOM     11  C11 <0> d           7.149  -0.458   8.049  0.00  0.00     0.066 C 
ATOM     12  C12 <0> d           6.033   0.322   7.349  0.00  0.00     0.238 C 
ATOM     13  N1  <0> d           4.793  -0.465   7.378  0.00  0.00    -0.068 N 
ATOM     14  C13 <0> d           4.952  -1.734   6.657  0.00  0.00     0.238 C 
ATOM     15  C14 <0> d           6.035  -2.576   7.335  0.00  0.00     0.066 C 
ATOM     16  H31 <0> d           4.571  -0.702   8.429  0.00  0.00     0.280 HD
ENDROOT
BRANCH  13  17
ATOM     17  C15 <0> d           3.666   0.309   6.840  0.00  0.00     0.271 C 
BRANCH  17  18
ATOM     18  C16 <0> d           2.416  -0.572   6.797  0.00  0.00     0.179 C 
BRANCH  18  19
ATOM     19  C17 <0> d           1.253   0.230   6.274  0.00  0.00    -0.000 A 
ATOM     20  C20 <0> d           0.909   0.450   4.866  0.00  0.00     0.001 A 
ATOM     21  C19 <0> d          -0.246   1.254   4.869  0.00  0.00     0.045 A 
ATOM     22  C21 <0> d           1.471   0.040   3.656  0.00  0.00     0.017 A 
ATOM     23  N2  <0> d          -0.568   1.497   6.185  0.00  0.00    -0.364 N 
ATOM     24  C24 <0> d          -0.813   1.637   3.659  0.00  0.00     0.067 A 
ATOM     25  C18 <0> d           0.336   0.879   7.008  0.00  0.00     0.099 A 
ATOM     26  H3  <0> d          -1.395   2.080   6.617  0.00  0.00     0.165 HD
ATOM     27  C23 <0> d          -0.245   1.217   2.471  0.00  0.00     0.070 A 
ATOM     28  C22 <0> d           0.898   0.421   2.476  0.00  0.00     0.038 A 
BRANCH  27  29
ATOM     29  O3  <0> d          -0.803   1.587   1.288  0.00  0.00    -0.356 OA
ATOM     30  C25 <0> d          -0.164   1.125   0.096  0.00  0.00     0.210 C 
ENDBRANCH  27  29
ENDBRANCH  18  19
BRANCH  18  31
ATOM     31  O4  <0> d           2.118  -1.040   8.114  0.00  0.00    -0.389 OA
ATOM     32  H29 <0> d           1.248  -1.692   8.283  0.00  0.00     0.210 HD
ENDBRANCH  18  31
ENDBRANCH  17  18
ENDBRANCH  13  17
BRANCH   7  33
ATOM     33  O5  <0> d           9.686  -4.661   7.899  0.00  0.00    -0.391 OA
ATOM     34  H30 <0> d           9.794  -4.872   8.973  0.00  0.00     0.210 HD
ENDBRANCH   7  33
BRANCH   1  35
ATOM     35  O1  <0> d           9.650  -5.818   3.051  0.00  0.00    -0.356 OA
ATOM     36  C1  <0> d           9.724  -5.631   1.636  0.00  0.00     0.210 C 
ENDBRANCH   1  35
TORSDOF 7
