REMARK  6 active torsions:
REMARK  status: ('A' for Active; 'I' for Inactive)
REMARK    1  A    between atoms: C2_2  and  C3_3 
REMARK    2  A    between atoms: C3_3  and  C4_4 
REMARK    3  A    between atoms: C3_3  and  N2_17 
REMARK    4  A    between atoms: C4_4  and  C5_5 
REMARK    5  A    between atoms: C4_4  and  N1_12 
REMARK    6  A    between atoms: N1_12  and  C12_14 
ROOT
ATOM      1  C4  <0> d           1.000  -1.945  -0.904  0.00  0.00     0.251 C 
ENDROOT
BRANCH   1   2
ATOM      2  C3  <0> d           1.350  -0.564  -0.346  0.00  0.00     0.218 C 
BRANCH   2   3
ATOM      3  C2  <0> d           0.376  -0.206   0.778  0.00  0.00     0.031 C 
ATOM      4  C1  <0> d           0.776   1.138   1.391  0.00  0.00     0.007 C 
ENDBRANCH   2   3
BRANCH   2   5
ATOM      5  N2  <0> d           1.250   0.436  -1.418  0.00  0.00    -0.073 N 
ATOM      6  H22 <0> d           0.308   0.449  -1.780  0.00  0.00     0.274 HD
ATOM      7  H23 <0> d           1.481   1.347  -1.050  0.00  0.00     0.274 HD
ATOM      8  H25 <0> d           1.892   0.201  -2.159  0.00  0.00     0.274 HD
ENDBRANCH   2   5
ENDBRANCH   1   2
BRANCH   1   9
ATOM      9  C5  <0> d           2.012  -2.335  -1.950  0.00  0.00    -0.024 A 
ATOM     10  C10 <0> d           1.589  -2.793  -3.184  0.00  0.00     0.028 A 
ATOM     11  C9  <0> d           2.517  -3.146  -4.146  0.00  0.00     0.011 A 
ATOM     12  C8  <0> d           3.869  -3.050  -3.870  0.00  0.00     0.019 A 
ATOM     13 Br1  <0> d           1.938  -3.765  -5.837  0.00  0.00    -0.051 Br
ATOM     14  C7  <0> d           4.292  -2.598  -2.635  0.00  0.00     0.002 A 
ATOM     15  C6  <0> d           3.364  -2.240  -1.675  0.00  0.00     0.009 A 
ENDBRANCH   1   9
BRANCH   1  16
ATOM     16  N1  <0> d           1.017  -2.931   0.185  0.00  0.00    -0.061 N 
ATOM     17  C11 <0> d           2.366  -2.998   0.764  0.00  0.00     0.271 C 
ATOM     18  H24 <0> d           0.358  -2.656   0.898  0.00  0.00     0.280 HD
BRANCH  16  19
ATOM     19  C12 <0> d           0.645  -4.250  -0.343  0.00  0.00     0.180 C 
ATOM     20  C13 <0> d           0.685  -5.282   0.786  0.00  0.00     0.039 C 
ATOM     21  C14 <0> d          -0.768  -4.186  -0.926  0.00  0.00     0.039 C 
ENDBRANCH  16  19
ENDBRANCH   1  16
TORSDOF 6
