REMARK  4 active torsions:
REMARK  status: ('A' for Active; 'I' for Inactive)
REMARK    1  A    between atoms: C3_3  and  C6_8 
REMARK       I    between atoms: C6_8  and  N2_10 
REMARK    2  A    between atoms: C8_12  and  C15_20 
REMARK       I    between atoms: C15_20  and  N4_22 
REMARK    3  A    between atoms: N4_22  and  C16_23 
REMARK    4  A    between atoms: C16_23  and  C18_25 
ROOT
ATOM      1  C6  <0> d           0.024  -0.418  -2.722  0.00  0.00     0.258 C 
ATOM      2  O2  <0> d           1.057  -0.172  -3.315  0.00  0.00    -0.267 OA
ATOM      3  N2  <0> d          -1.164  -0.215  -3.325  0.00  0.00    -0.346 N 
ATOM      4  C7  <0> d          -2.517  -0.447  -2.768  0.00  0.00     0.141 C 
ATOM      5  C8  <0> d          -3.361   0.741  -3.283  0.00  0.00     0.106 C 
ATOM      6  C9  <0> d          -2.631   1.220  -4.550  0.00  0.00    -0.007 C 
ATOM      7  C10 <0> d          -1.412   0.297  -4.694  0.00  0.00     0.136 C 
ATOM      8  C11 <0> d          -2.175   2.666  -4.382  0.00  0.00     0.039 C 
ATOM      9  C12 <0> d          -1.503   3.137  -5.675  0.00  0.00     0.233 C 
ATOM     10  N3  <0> d          -2.452   3.029  -6.789  0.00  0.00    -0.075 N 
ATOM     11  C13 <0> d          -2.815   1.623  -7.003  0.00  0.00     0.233 C 
ATOM     12  C14 <0> d          -3.542   1.087  -5.766  0.00  0.00     0.039 C 
ATOM     13  H17 <0> d          -3.283   3.560  -6.574  0.00  0.00     0.277 HD
ATOM     14  H35 <0> d          -2.028   3.397  -7.627  0.00  0.00     0.277 HD
ENDROOT
BRANCH   5  15
ATOM     15  C15 <0> d          -4.757   0.286  -3.620  0.00  0.00     0.224 C 
ATOM     16  O3  <0> d          -4.947  -0.843  -4.021  0.00  0.00    -0.273 OA
ATOM     17  N4  <0> d          -5.796   1.133  -3.474  0.00  0.00    -0.356 N 
ATOM     18  H22 <0> d          -5.644   2.035  -3.153  0.00  0.00     0.162 HD
BRANCH  17  19
ATOM     19  C16 <0> d          -7.153   0.690  -3.801  0.00  0.00     0.087 C 
ATOM     20  C17 <0> d          -7.760  -0.028  -2.594  0.00  0.00     0.033 C 
BRANCH  19  21
ATOM     21  C18 <0> d          -8.014   1.904  -4.158  0.00  0.00    -0.031 C 
ATOM     22  C19 <0> d          -7.407   2.623  -5.364  0.00  0.00     0.016 C 
ATOM     23  C20 <0> d          -9.431   1.442  -4.499  0.00  0.00     0.016 C 
ATOM     24  C21 <0> d          -8.062   2.862  -2.966  0.00  0.00     0.016 C 
ENDBRANCH  19  21
ENDBRANCH  17  19
ENDBRANCH   5  15
BRANCH   1  25
ATOM     25  C3  <0> d           0.071  -0.938  -1.344  0.00  0.00     0.089 A 
ATOM     26  C2  <0> d           0.076  -0.147  -0.112  0.00  0.00     0.076 A 
ATOM     27  C1  <0> d           0.035   1.356  -0.014  0.00  0.00     0.074 C 
ATOM     28  N1  <0> d           0.128  -0.985   0.881  0.00  0.00    -0.132 NA
ATOM     29  O1  <0> d           0.150  -2.300   0.364  0.00  0.00    -0.217 OA
ATOM     30  C4  <0> d           0.118  -2.251  -0.970  0.00  0.00     0.092 A 
ATOM     31  C5  <0> d           0.131  -3.436  -1.900  0.00  0.00     0.080 C 
ENDBRANCH   1  25
TORSDOF 4
