REMARK  3 active torsions:
REMARK  status: ('A' for Active; 'I' for Inactive)
REMARK    1  A    between atoms: C2_2  and  N1_3 
REMARK    2  A    between atoms: C4_5  and  N3_8 
REMARK    3  A    between atoms: C13_16  and  N4_17 
ROOT
ATOM      1  N3  <0> d           3.126  -2.320  -3.019  0.00  0.00    -0.323 N 
ATOM      2  C6  <0> d           4.417  -2.300  -2.573  0.00  0.00     0.098 A 
ATOM      3  C7  <0> d           5.121  -3.217  -3.273  0.00  0.00     0.029 A 
ATOM      4  C8  <0> d           4.236  -3.820  -4.178  0.00  0.00    -0.004 A 
ATOM      5  C9  <0> d           3.018  -3.256  -3.998  0.00  0.00     0.025 A 
ATOM      6  C10 <0> d           1.787  -3.641  -4.780  0.00  0.00     0.067 C 
ATOM      7  C11 <0> d           2.044  -4.994  -5.455  0.00  0.00    -0.040 C 
ATOM      8  C12 <0> d           3.382  -4.949  -6.197  0.00  0.00     0.046 C 
ATOM      9  C13 <0> d           4.531  -4.901  -5.186  0.00  0.00     0.219 C 
ATOM     10  C14 <0> d           2.087  -6.093  -4.392  0.00  0.00     0.015 C 
ATOM     11  C15 <0> d           0.919  -5.290  -6.449  0.00  0.00     0.015 C 
ENDROOT
BRANCH   1  12
ATOM     12  C4  <0> d           2.078  -1.508  -2.540  0.00  0.00     0.075 A 
ATOM     13  C3  <0> d           1.742  -1.323  -1.238  0.00  0.00     0.143 A 
ATOM     14  N1  <0> d           0.688  -0.476  -1.203  0.00  0.00    -0.279 N 
ATOM     15  N2  <0> d           0.363  -0.136  -2.522  0.00  0.00    -0.183 NA
ATOM     16  C5  <0> d           1.197  -0.748  -3.323  0.00  0.00     0.170 A 
BRANCH  14  17
ATOM     17  C2  <0> d           0.002  -0.004   0.002  0.00  0.00     0.146 C 
ATOM     18  C1  <0> d          -0.019   1.526   0.010  0.00  0.00     0.028 C 
ENDBRANCH  14  17
ENDBRANCH   1  12
BRANCH   9  19
ATOM     19  N4  <0> d           5.796  -4.606  -5.872  0.00  0.00    -0.071 N 
ATOM     20  H15 <0> d           6.544  -4.565  -5.196  0.00  0.00     0.275 HD
ATOM     21  H16 <0> d           5.991  -5.332  -6.545  0.00  0.00     0.275 HD
ATOM     22  H23 <0> d           5.723  -3.719  -6.346  0.00  0.00     0.275 HD
ENDBRANCH   9  19
TORSDOF 3
