REMARK  4 active torsions:
REMARK  status: ('A' for Active; 'I' for Inactive)
REMARK    1  A    between atoms: C2_2  and  C4_4 
REMARK    2  A    between atoms: C2_2  and  N1_8 
REMARK    3  A    between atoms: C4_4  and  O2_6 
REMARK       I    between atoms: N1_8  and  C6_9 
REMARK    4  A    between atoms: C6_9  and  C7_11 
ROOT
ATOM      1  C7  <0> d           3.555   3.249  -0.015  0.00  0.00     0.108 A 
ATOM      2  C8  <0> d           2.353   3.936  -0.000  0.00  0.00     0.037 A 
ATOM      3  C9  <0> d           1.145   3.193   0.008  0.00  0.00    -0.001 A 
ATOM      4  C10 <0> d          -0.091   3.857   0.023  0.00  0.00     0.014 A 
ATOM      5  C11 <0> d          -1.250   3.137   0.030  0.00  0.00     0.001 A 
ATOM      6  C12 <0> d          -1.216   1.749   0.017  0.00  0.00     0.003 A 
ATOM      7  C13 <0> d          -0.013   1.076   0.008  0.00  0.00     0.038 A 
ATOM      8  C14 <0> d           1.182   1.788   0.000  0.00  0.00     0.089 A 
ATOM      9  O4  <0> d           2.359   1.126  -0.014  0.00  0.00    -0.274 OA
ATOM     10  C15 <0> d           3.531   1.782  -0.022  0.00  0.00     0.304 A 
ATOM     11  O5  <0> d           4.576   1.158  -0.035  0.00  0.00    -0.259 OA
ENDROOT
BRANCH   1  12
ATOM     12  C6  <0> d           4.835   3.978  -0.025  0.00  0.00     0.258 C 
ATOM     13  N1  <0> d           4.843   5.326  -0.018  0.00  0.00    -0.339 N 
ATOM     14  H10 <0> d           3.893   5.881  -0.006  0.00  0.00     0.164 HD
ATOM     15  O3  <0> d           5.885   3.364  -0.038  0.00  0.00    -0.267 OA
BRANCH  13  16
ATOM     16  C2  <0> d           6.115   6.051  -0.028  0.00  0.00     0.114 C 
ATOM     17  C1  <0> d           6.928   5.671   1.212  0.00  0.00     0.049 C 
ATOM     18  C3  <0> d           6.903   5.683  -1.287  0.00  0.00     0.049 C 
BRANCH  16  19
ATOM     19  C4  <0> d           5.849   7.534  -0.018  0.00  0.00     0.286 C 
ATOM     20  O1  <0> d           6.591   8.278   0.578  0.00  0.00    -0.262 OA
BRANCH  19  21
ATOM     21  O2  <0> d           4.786   8.029  -0.672  0.00  0.00    -0.325 OA
ATOM     22  C5  <0> d           4.591   9.467  -0.620  0.00  0.00     0.213 C 
ENDBRANCH  19  21
ENDBRANCH  16  19
ENDBRANCH  13  16
ENDBRANCH   1  12
TORSDOF 4
