REMARK  5 active torsions:
REMARK  status: ('A' for Active; 'I' for Inactive)
REMARK    1  A    between atoms: C3_3  and  S2_20 
REMARK    2  A    between atoms: N1_5  and  C5_7 
REMARK    3  A    between atoms: C5_7  and  C6_8 
REMARK       I    between atoms: C6_8  and  N3_10 
REMARK    4  A    between atoms: N3_10  and  C7_11 
REMARK    5  A    between atoms: S2_20  and  N4_23 
ROOT
ATOM      1  C1  <0> d          -0.552  -4.135   6.101  0.00  0.00     0.074 C 
ATOM      2  C2  <0> d          -1.599  -3.483   5.235  0.00  0.00     0.076 A 
ATOM      3  C3  <0> d          -2.889  -3.123   5.637  0.00  0.00     0.129 A 
ATOM      4  C4  <0> d          -3.517  -2.568   4.575  0.00  0.00     0.052 A 
ATOM      5  N1  <0> d          -2.655  -2.576   3.537  0.00  0.00    -0.264 N 
ATOM      6  N2  <0> d          -1.459  -3.160   3.974  0.00  0.00    -0.175 NA
ATOM      7  C12 <0> d          -4.927  -2.035   4.555  0.00  0.00     0.072 C 
ENDROOT
BRANCH   5   8
ATOM      8  C5  <0> d          -2.924  -2.069   2.189  0.00  0.00     0.253 C 
BRANCH   8   9
ATOM      9  C6  <0> d          -2.538  -0.614   2.114  0.00  0.00     0.238 C 
ATOM     10  O1  <0> d          -2.084  -0.056   3.090  0.00  0.00    -0.272 OA
ATOM     11  N3  <0> d          -2.699   0.067   0.962  0.00  0.00    -0.350 N 
ATOM     12  H6  <0> d          -3.062  -0.380   0.181  0.00  0.00     0.163 HD
BRANCH  11  13
ATOM     13  C7  <0> d          -2.324   1.481   0.888  0.00  0.00     0.043 C 
ATOM     14  C10 <0> d          -2.609   2.015  -0.537  0.00  0.00     0.170 C 
ATOM     15  S1  <0> d          -1.006   1.746  -1.397  0.00  0.00     0.146 S 
ATOM     16  C9  <0> d          -0.013   1.086   0.008  0.00  0.00     0.143 C 
ATOM     17  O2  <0> d          -0.474   3.005  -1.787  0.00  0.00    -0.228 OA
ATOM     18  O3  <0> d          -1.167   0.724  -2.370  0.00  0.00    -0.228 OA
ATOM     19  C8  <0> d          -0.828   1.631   1.215  0.00  0.00     0.046 C 
ATOM     20  C11 <0> d          -3.147   2.278   1.903  0.00  0.00     0.039 C 
ENDBRANCH  11  13
ENDBRANCH   8   9
ENDBRANCH   5   8
BRANCH   3  21
ATOM     21  S2  <0> d          -3.575  -3.352   7.244  0.00  0.00     0.264 S 
ATOM     22  O4  <0> d          -2.481  -3.422   8.147  0.00  0.00    -0.200 OA
ATOM     23  O5  <0> d          -4.616  -2.394   7.381  0.00  0.00    -0.200 OA
BRANCH  21  24
ATOM     24  N4  <0> d          -4.298  -4.842   7.260  0.00  0.00    -0.315 N 
ATOM     25  C13 <0> d          -3.530  -6.025   7.657  0.00  0.00     0.162 C 
ATOM     26  C14 <0> d          -5.706  -4.977   6.877  0.00  0.00     0.162 C 
ENDBRANCH  21  24
ENDBRANCH   3  21
TORSDOF 5
