REMARK  4 active torsions:
REMARK  status: ('A' for Active; 'I' for Inactive)
REMARK    1  A    between atoms: C4_4  and  C7_7 
REMARK    2  A    between atoms: C7_7  and  N3_31 
REMARK    3  A    between atoms: C15_18  and  C16_20 
REMARK    4  A    between atoms: C21_25  and  O2_26 
ROOT
ATOM      1  C8  <0> d           4.221   4.740  -1.445  0.00  0.00     0.240 C 
ATOM      2  C9  <0> d           4.766   4.650  -2.873  0.00  0.00     0.068 C 
ATOM      3  C10 <0> d           3.742   5.277  -3.813  0.00  0.00    -0.023 A 
ATOM      4  C11 <0> d           2.467   5.461  -3.399  0.00  0.00     0.018 A 
ATOM      5  S1  <0> d           1.642   6.209  -4.777  0.00  0.00    -0.074 SA
ATOM      6  C12 <0> d           2.957   6.274  -5.873  0.00  0.00     0.088 A 
ATOM      7  C13 <0> d           4.033   5.713  -5.168  0.00  0.00     0.073 A 
ATOM      8  C14 <0> d           5.336   5.623  -5.866  0.00  0.00     0.256 C 
ATOM      9  O1  <0> d           6.341   5.254  -5.287  0.00  0.00    -0.267 OA
ATOM     10  N1  <0> d           5.364   5.968  -7.170  0.00  0.00    -0.331 N 
ATOM     11  C15 <0> d           4.163   6.184  -7.972  0.00  0.00     0.222 C 
ATOM     12  N2  <0> d           3.069   6.742  -7.156  0.00  0.00    -0.358 N 
ATOM     13  C22 <0> d           1.906   5.099  -2.060  0.00  0.00     0.282 C 
ATOM     14  H13 <0> d           6.227   6.077  -7.598  0.00  0.00     0.165 HD
ATOM     15  H14 <0> d           2.458   7.407  -7.511  0.00  0.00     0.162 HD
ATOM     16  N3  <0> d           2.859   4.171  -1.403  0.00  0.00    -0.062 N 
ATOM     17  H22 <0> d           2.854   3.276  -1.906  0.00  0.00     0.280 HD
ENDROOT
BRANCH  11  18
ATOM     18  C16 <0> d           3.719   4.869  -8.560  0.00  0.00     0.017 A 
ATOM     19  C21 <0> d           4.662   3.930  -8.952  0.00  0.00     0.075 A 
ATOM     20  C20 <0> d           4.250   2.719  -9.489  0.00  0.00     0.037 A 
ATOM     21  C19 <0> d           2.903   2.455  -9.642  0.00  0.00     0.003 A 
ATOM     22  C18 <0> d           1.965   3.395  -9.254  0.00  0.00     0.001 A 
ATOM     23  C17 <0> d           2.373   4.600  -8.714  0.00  0.00     0.014 A 
BRANCH  19  24
ATOM     24  O2  <0> d           5.987   4.195  -8.807  0.00  0.00    -0.360 OA
ATOM     25  H19 <0> d           6.353   3.916  -7.957  0.00  0.00     0.217 HD
ENDBRANCH  19  24
ENDBRANCH  11  18
BRANCH  16  26
ATOM     26  C7  <0> d           2.451   3.937  -0.001  0.00  0.00     0.273 C 
BRANCH  26  27
ATOM     27  C4  <0> d           1.156   3.165   0.008  0.00  0.00    -0.033 A 
ATOM     28  C3  <0> d           1.175   1.783   0.000  0.00  0.00     0.009 A 
ATOM     29  C2  <0> d          -0.013   1.076   0.008  0.00  0.00     0.001 A 
ATOM     30  C1  <0> d          -1.219   1.751   0.017  0.00  0.00     0.000 A 
ATOM     31  C6  <0> d          -1.238   3.133   0.030  0.00  0.00     0.001 A 
ATOM     32  C5  <0> d          -0.050   3.840   0.022  0.00  0.00     0.009 A 
ENDBRANCH  26  27
ENDBRANCH  16  26
TORSDOF 4
