REMARK  3 active torsions:
REMARK  status: ('A' for Active; 'I' for Inactive)
REMARK    1  A    between atoms: C3_3  and  S1_9 
REMARK    2  A    between atoms: S1_9  and  N3_12 
REMARK    3  A    between atoms: N4_15  and  C10_18 
ROOT
ATOM      1  N3  <0> d          -1.847   2.640   1.608  0.00  0.00    -0.304 N 
ATOM      2  C6  <0> d          -2.759   1.738   2.326  0.00  0.00     0.150 C 
ATOM      3  C7  <0> d          -2.085   1.319   3.643  0.00  0.00     0.116 C 
ATOM      4  N4  <0> d          -1.687   2.522   4.387  0.00  0.00    -0.279 NA
ATOM      5  C8  <0> d          -0.685   3.300   3.647  0.00  0.00     0.116 C 
ATOM      6  C9  <0> d          -1.297   3.796   2.332  0.00  0.00     0.150 C 
ENDROOT
BRANCH   1   7
ATOM      7  S1  <0> d          -1.455   2.366   0.022  0.00  0.00     0.264 S 
ATOM      8  O1  <0> d          -1.070   3.620  -0.524  0.00  0.00    -0.200 OA
ATOM      9  O2  <0> d          -2.508   1.587  -0.528  0.00  0.00    -0.200 OA
BRANCH   7  10
ATOM     10  C3  <0> d          -0.016   1.349   0.009  0.00  0.00     0.129 A 
ATOM     11  C2  <0> d           0.002  -0.004   0.002  0.00  0.00     0.049 A 
ATOM     12  C1  <0> d          -1.203  -0.909   0.009  0.00  0.00     0.071 C 
ATOM     13  N2  <0> d           1.293  -0.398  -0.012  0.00  0.00    -0.281 N 
ATOM     14  N1  <0> d           2.094   0.751  -0.014  0.00  0.00    -0.178 NA
ATOM     15  H1  <0> d           1.541  -1.469  -0.021  0.00  0.00     0.189 HD
ATOM     16  C4  <0> d           1.308   1.797  -0.001  0.00  0.00     0.076 A 
ATOM     17  C5  <0> d           1.754   3.237   0.003  0.00  0.00     0.074 C 
ENDBRANCH   7  10
ENDBRANCH   1   7
BRANCH   4  18
ATOM     18  C10 <0> d          -1.227   2.194   5.650  0.00  0.00     0.035 A 
ATOM     19  C13 <0> d          -0.055   1.421   5.802  0.00  0.00     0.162 A 
ATOM     20  N6  <0> d           0.381   1.112   6.991  0.00  0.00    -0.181 NA
ATOM     21  N5  <0> d          -0.297   1.534   8.139  0.00  0.00    -0.239 N 
ATOM     22  C12 <0> d          -1.419   2.273   8.040  0.00  0.00     0.264 A 
ATOM     23  C14 <0> d           0.218   1.169   9.462  0.00  0.00     0.183 C 
ATOM     24  C11 <0> d          -1.907   2.625   6.774  0.00  0.00     0.101 A 
ATOM     25  O3  <0> d          -2.005   2.639   9.047  0.00  0.00    -0.267 OA
ENDBRANCH   4  18
TORSDOF 3
