REMARK  4 active torsions:
REMARK  status: ('A' for Active; 'I' for Inactive)
REMARK    1  A    between atoms: C2_2  and  C3_3 
REMARK    2  A    between atoms: C3_3  and  N1_4 
REMARK    3  A    between atoms: C6_7  and  N2_10 
REMARK    4  A    between atoms: N2_10  and  C9_11 
ROOT
ATOM      1  C9  <0> d           0.511  -6.777  -3.465  0.00  0.00     0.137 C 
ATOM      2  N3  <0> d           0.598  -8.074  -3.533  0.00  0.00    -0.361 N 
ATOM      3  C10 <0> d           0.868  -8.749  -4.792  0.00  0.00     0.041 C 
ATOM      4  C11 <0> d          -0.013  -9.996  -4.920  0.00  0.00     0.032 C 
ATOM      5  C12 <0> d           0.306 -10.963  -3.778  0.00  0.00     0.003 C 
ATOM      6  C13 <0> d           1.779 -11.370  -3.850  0.00  0.00     0.004 C 
ATOM      7  C14 <0> d           2.659 -10.125  -3.722  0.00  0.00    -0.016 C 
ATOM      8  C15 <0> d           2.343  -9.157  -4.864  0.00  0.00     0.036 C 
ATOM      9  C16 <0> d           4.132 -10.532  -3.792  0.00  0.00     0.010 C 
ATOM     10  C17 <0> d           0.565  -7.815  -5.998  0.00  0.00     0.113 C 
ATOM     11  S1  <0> d           0.738  -6.196  -5.138  0.00  0.00    -0.092 SA
ATOM     12  H32 <0> d           0.481  -8.601  -2.728  0.00  0.00     0.162 HD
ENDROOT
BRANCH   1  13
ATOM     13  N2  <0> d           0.285  -6.016  -2.342  0.00  0.00    -0.366 N 
ATOM     14  H18 <0> d           0.175  -6.445  -1.479  0.00  0.00     0.162 HD
BRANCH  13  15
ATOM     15  C6  <0> d           0.209  -4.557  -2.449  0.00  0.00     0.086 C 
ATOM     16  C5  <0> d          -0.627  -4.001  -1.293  0.00  0.00     0.053 C 
ATOM     17  C4  <0> d          -0.636  -2.472  -1.366  0.00  0.00     0.237 C 
ATOM     18  N1  <0> d           0.738  -1.966  -1.265  0.00  0.00    -0.071 N 
ATOM     19  C8  <0> d           1.528  -2.437  -2.409  0.00  0.00     0.237 C 
ATOM     20  H33 <0> d           1.155  -2.301  -0.409  0.00  0.00     0.279 HD
ATOM     21  C7  <0> d           1.620  -3.964  -2.376  0.00  0.00     0.053 C 
BRANCH  18  22
ATOM     22  C3  <0> d           0.718  -0.497  -1.257  0.00  0.00     0.234 C 
BRANCH  22  23
ATOM     23  C2  <0> d           0.002  -0.004   0.002  0.00  0.00     0.023 C 
ATOM     24  C1  <0> d          -0.019   1.526   0.010  0.00  0.00     0.007 C 
ENDBRANCH  22  23
ENDBRANCH  18  22
ENDBRANCH  13  15
ENDBRANCH   1  13
TORSDOF 4
