REMARK  7 active torsions:
REMARK  status: ('A' for Active; 'I' for Inactive)
REMARK    1  A    between atoms: O1_2  and  C2_3 
REMARK    2  A    between atoms: C2_3  and  C3_4 
REMARK    3  A    between atoms: C3_4  and  N1_5 
REMARK    4  A    between atoms: N1_5  and  S1_6 
REMARK    5  A    between atoms: S1_6  and  C4_9 
REMARK    6  A    between atoms: C8_13  and  S2_15 
REMARK    7  A    between atoms: S2_15  and  C10_18 
ROOT
ATOM      1  C4  <0> d           2.396   0.029  -0.022  0.00  0.00     0.081 A 
ATOM      2  C5  <0> d           1.208  -0.679  -0.014  0.00  0.00     0.025 A 
ATOM      3  C6  <0> d           0.002  -0.004   0.002  0.00  0.00     0.003 A 
ATOM      4  C7  <0> d          -0.017   1.378   0.010  0.00  0.00     0.023 A 
ATOM      5  C8  <0> d           1.171   2.086   0.002  0.00  0.00     0.061 A 
ATOM      6  C9  <0> d           2.377   1.411  -0.014  0.00  0.00     0.048 A 
ENDROOT
BRANCH   5   7
ATOM      7  S2  <0> d           1.147   3.847   0.012  0.00  0.00     0.180 S 
ATOM      8  O4  <0> d           2.371   4.230  -0.601  0.00  0.00    -0.222 OA
ATOM      9  O5  <0> d          -0.098   4.196  -0.577  0.00  0.00    -0.222 OA
BRANCH   7  10
ATOM     10  C10 <0> d           1.157   4.304   1.767  0.00  0.00     0.128 C 
ATOM     11  C13 <0> d           2.430   3.734   2.439  0.00  0.00     0.160 C 
ATOM     12  S3  <0> d           2.796   4.985   3.737  0.00  0.00     0.145 S 
ATOM     13  C12 <0> d           1.462   6.202   3.373  0.00  0.00     0.142 C 
ATOM     14  O6  <0> d           4.055   5.583   3.461  0.00  0.00    -0.228 OA
ATOM     15  O7  <0> d           2.561   4.409   5.014  0.00  0.00    -0.228 OA
ATOM     16  C11 <0> d           1.138   5.836   1.897  0.00  0.00     0.036 C 
ENDBRANCH   7  10
ENDBRANCH   5   7
BRANCH   1  17
ATOM     17  S1  <0> d           3.934  -0.831  -0.042  0.00  0.00     0.258 S 
ATOM     18  O2  <0> d           4.902   0.054   0.504  0.00  0.00    -0.201 OA
ATOM     19  O3  <0> d           3.686  -2.120   0.504  0.00  0.00    -0.201 OA
BRANCH  17  20
ATOM     20  N1  <0> d           4.345  -1.061  -1.630  0.00  0.00    -0.313 N 
ATOM     21  H9  <0> d           4.235  -2.062  -2.074  0.00  0.00     0.172 HD
BRANCH  20  22
ATOM     22  C3  <0> d           4.639   0.091  -2.485  0.00  0.00     0.158 C 
BRANCH  22  23
ATOM     23  C2  <0> d           5.340  -0.384  -3.759  0.00  0.00     0.187 C 
BRANCH  23  24
ATOM     24  O1  <0> d           4.445  -1.199  -4.518  0.00  0.00    -0.394 OA
ATOM     25  C1  <0> d           5.004  -1.698  -5.735  0.00  0.00     0.201 C 
ENDBRANCH  23  24
ENDBRANCH  22  23
ENDBRANCH  20  22
ENDBRANCH  17  20
ENDBRANCH   1  17
TORSDOF 7
