REMARK  5 active torsions:
REMARK  status: ('A' for Active; 'I' for Inactive)
REMARK    1  A    between atoms: O1_2  and  C2_3 
REMARK    2  A    between atoms: C4_5  and  C10_13 
REMARK    3  A    between atoms: C6_7  and  O3_11 
REMARK    4  A    between atoms: C7_8  and  O2_9 
REMARK    5  A    between atoms: C20_23  and  O4_26 
ROOT
ATOM      1  C10 <0> d          -0.019   1.526   0.010  0.00  0.00     0.099 C 
ATOM      2  C11 <0> d           0.002  -0.004   0.002  0.00  0.00     0.023 C 
ATOM      3  C12 <0> d          -1.455  -0.500   0.225  0.00  0.00     0.034 C 
ATOM      4  C13 <0> d          -1.629  -0.422   1.729  0.00  0.00    -0.029 C 
ATOM      5  C14 <0> d          -0.464  -0.427   2.328  0.00  0.00    -0.021 C 
ATOM      6  C15 <0> d           0.652  -0.502   1.311  0.00  0.00     0.049 C 
ATOM      7  C16 <0> d           1.812   0.362   1.713  0.00  0.00    -0.026 A 
ATOM      8  C17 <0> d           2.599  -0.059   2.779  0.00  0.00     0.010 A 
ATOM      9  C18 <0> d           3.678   0.691   3.198  0.00  0.00     0.003 A 
ATOM     10  C19 <0> d           3.988   1.877   2.557  0.00  0.00     0.038 A 
ATOM     11  C20 <0> d           3.213   2.305   1.495  0.00  0.00     0.087 A 
ATOM     12  C21 <0> d           2.120   1.544   1.068  0.00  0.00     0.049 A 
ATOM     13  N1  <0> d           1.354   2.032   0.000  0.00  0.00    -0.281 NA
ATOM     14  H22 <0> d           1.812   1.819  -0.874  0.00  0.00     0.128 HD
ENDROOT
BRANCH   1  15
ATOM     15  C4  <0> d          -0.747   2.026  -1.211  0.00  0.00    -0.034 A 
ATOM     16  C3  <0> d          -2.064   2.433  -1.109  0.00  0.00     0.048 A 
ATOM     17  C2  <0> d          -2.738   2.893  -2.230  0.00  0.00     0.104 A 
ATOM     18  C7  <0> d          -2.088   2.945  -3.457  0.00  0.00     0.135 A 
ATOM     19  C6  <0> d          -0.763   2.535  -3.555  0.00  0.00     0.104 A 
ATOM     20  C5  <0> d          -0.095   2.080  -2.428  0.00  0.00     0.048 A 
BRANCH  17  21
ATOM     21  O1  <0> d          -4.034   3.293  -2.129  0.00  0.00    -0.353 OA
ATOM     22  C1  <0> d          -4.639   3.213  -0.837  0.00  0.00     0.210 C 
ENDBRANCH  17  21
BRANCH  18  23
ATOM     23  O2  <0> d          -2.745   3.396  -4.559  0.00  0.00    -0.351 OA
ATOM     24  C8  <0> d          -2.672   4.798  -4.830  0.00  0.00     0.210 C 
ENDBRANCH  18  23
BRANCH  19  25
ATOM     25  O3  <0> d          -0.123   2.583  -4.753  0.00  0.00    -0.353 OA
ATOM     26  C9  <0> d           1.238   2.146  -4.780  0.00  0.00     0.210 C 
ENDBRANCH  19  25
ENDBRANCH   1  15
BRANCH  11  27
ATOM     27  O4  <0> d           3.515   3.471   0.863  0.00  0.00    -0.359 OA
ATOM     28  H23 <0> d           4.127   3.369   0.121  0.00  0.00     0.217 HD
ENDBRANCH  11  27
TORSDOF 5
