REMARK  5 active torsions:
REMARK  status: ('A' for Active; 'I' for Inactive)
REMARK    1  A    between atoms: C5_5  and  O3_20 
REMARK    2  A    between atoms: C6_6  and  C8_8 
REMARK    3  A    between atoms: C8_8  and  N1_10 
REMARK    4  A    between atoms: N1_10  and  C10_11 
REMARK    5  A    between atoms: C10_11  and  C12_13 
REMARK       I    between atoms: C12_13  and  N2_15 
REMARK       I    between atoms: N2_15  and  C13_16 
REMARK       I    between atoms: C13_16  and  N3_18 
ROOT
ATOM      1  N1  <0> d          -0.003   1.024  -0.004  0.00  0.00    -0.055 N 
ATOM      2  H12 <0> d          -0.264   0.459  -0.911  0.00  0.00     0.279 HD
ATOM      3  H24 <0> d          -0.086   0.366   0.874  0.00  0.00     0.279 HD
ENDROOT
BRANCH   1   4
ATOM      4  C8  <0> d           1.375   1.520  -0.115  0.00  0.00     0.218 C 
ATOM      5  C9  <0> d           2.214   0.521  -0.913  0.00  0.00     0.045 C 
BRANCH   4   6
ATOM      6  C6  <0> d           1.963   1.683   1.262  0.00  0.00     0.006 A 
ATOM      7  C5  <0> d           2.996   2.585   1.474  0.00  0.00     0.076 A 
ATOM      8  C4  <0> d           3.535   2.733   2.744  0.00  0.00     0.038 A 
ATOM      9  C3  <0> d           3.043   1.983   3.794  0.00  0.00     0.009 A 
ATOM     10  C2  <0> d           2.013   1.085   3.580  0.00  0.00    -0.061 A 
ATOM     11  C1  <0> d           1.478   0.268   4.728  0.00  0.00     0.048 C 
ATOM     12  C7  <0> d           1.470   0.939   2.317  0.00  0.00     0.018 A 
BRANCH   7  13
ATOM     13  O3  <0> d           3.478   3.322   0.439  0.00  0.00    -0.355 OA
ATOM     14  C15 <0> d           4.543   4.230   0.731  0.00  0.00     0.210 C 
ENDBRANCH   7  13
ENDBRANCH   4   6
ENDBRANCH   1   4
BRANCH   1  15
ATOM     15  C10 <0> d          -0.952   2.134   0.149  0.00  0.00     0.274 C 
ATOM     16  C11 <0> d          -1.333   2.672  -1.232  0.00  0.00     0.050 C 
BRANCH  15  17
ATOM     17  C12 <0> d          -2.190   1.644   0.856  0.00  0.00     0.256 C 
ATOM     18  O1  <0> d          -2.273   0.484   1.199  0.00  0.00    -0.271 OA
ATOM     19  N2  <0> d          -3.204   2.495   1.107  0.00  0.00    -0.278 N 
ATOM     20  C13 <0> d          -4.311   2.057   1.739  0.00  0.00     0.322 C 
ATOM     21  H16 <0> d          -3.129   3.547   0.795  0.00  0.00     0.173 HD
ATOM     22  O2  <0> d          -4.394   0.894   2.083  0.00  0.00    -0.247 OA
ATOM     23  N3  <0> d          -5.325   2.908   1.990  0.00  0.00    -0.347 N 
ATOM     24  C14 <0> d          -6.528   2.431   2.677  0.00  0.00     0.151 C 
ATOM     25  H17 <0> d          -5.250   3.960   1.678  0.00  0.00     0.163 HD
ENDBRANCH  15  17
ENDBRANCH   1  15
TORSDOF 5
