REMARK  3 active torsions:
REMARK  status: ('A' for Active; 'I' for Inactive)
REMARK    1  A    between atoms: C2_2  and  C4_4 
REMARK    2  A    between atoms: C4_4  and  C5_5 
REMARK    3  A    between atoms: C6_7  and  C7_10 
ROOT
ATOM      1  C7  <0> d          -1.323  -5.380   1.210  0.00  0.00     0.149 C 
ATOM      2  N3  <0> d          -1.318  -6.578   0.700  0.00  0.00    -0.366 N 
ATOM      3  C8  <0> d          -1.304  -7.552   1.791  0.00  0.00     0.115 C 
ATOM      4  C9  <0> d          -2.174  -8.756   1.597  0.00  0.00     0.038 C 
ATOM      5  C10 <0> d          -1.983  -9.777   2.722  0.00  0.00    -0.030 C 
ATOM      6  C11 <0> d          -2.449  -9.188   4.054  0.00  0.00     0.131 C 
ATOM      7  N4  <0> d          -1.360  -8.437   4.689  0.00  0.00    -0.359 N 
ATOM      8  C12 <0> d          -0.999  -7.227   4.229  0.00  0.00     0.242 C 
ATOM      9  O2  <0> d          -0.138  -6.575   4.782  0.00  0.00    -0.271 OA
ATOM     10  C13 <0> d          -1.718  -6.717   3.006  0.00  0.00     0.198 C 
ATOM     11  N5  <0> d          -1.275  -5.376   2.594  0.00  0.00    -0.358 N 
ATOM     12  C14 <0> d          -2.800 -11.033   2.411  0.00  0.00     0.016 C 
ATOM     13  C15 <0> d          -0.503 -10.151   2.823  0.00  0.00     0.016 C 
ATOM     14  H16 <0> d          -0.895  -8.818   5.450  0.00  0.00     0.162 HD
ATOM     15  H17 <0> d          -1.008  -4.642   3.169  0.00  0.00     0.162 HD
ATOM     16  H24 <0> d          -1.323  -6.790  -0.246  0.00  0.00     0.161 HD
ENDROOT
BRANCH   1  17
ATOM     17  C6  <0> d          -1.369  -4.143   0.390  0.00  0.00     0.222 A 
ATOM     18  N1  <0> d          -1.371  -2.885   0.866  0.00  0.00    -0.201 NA
ATOM     19  C5  <0> d          -1.416  -2.035  -0.119  0.00  0.00     0.173 A 
ATOM     20  O1  <0> d          -1.450  -2.720  -1.270  0.00  0.00    -0.196 OA
ATOM     21  N2  <0> d          -1.414  -4.095  -0.918  0.00  0.00    -0.102 NA
BRANCH  19  22
ATOM     22  C4  <0> d          -1.433  -0.534   0.013  0.00  0.00     0.092 C 
BRANCH  22  23
ATOM     23  C2  <0> d           0.002  -0.004   0.002  0.00  0.00    -0.015 C 
ATOM     24  C1  <0> d          -0.019   1.526   0.010  0.00  0.00     0.010 C 
ATOM     25  C3  <0> d           0.742  -0.511   1.242  0.00  0.00     0.010 C 
ENDBRANCH  22  23
ENDBRANCH  19  22
ENDBRANCH   1  17
TORSDOF 3
