REMARK  3 active torsions:
REMARK  status: ('A' for Active; 'I' for Inactive)
REMARK    1  A    between atoms: C7_7  and  N1_8 
REMARK    2  A    between atoms: C10_11  and  C13_14 
REMARK    3  A    between atoms: C13_14  and  N2_15 
ROOT
ATOM      1  N1  <0> d           2.261  -0.107   1.353  0.00  0.00    -0.066 N 
ATOM      2  C8  <0> d           2.343   1.347   1.533  0.00  0.00     0.235 C 
ATOM      3  C9  <0> d           3.808   1.787   1.502  0.00  0.00     0.034 C 
ATOM      4  C10 <0> d           4.570   1.087   2.631  0.00  0.00     0.014 C 
ATOM      5  C11 <0> d           4.415  -0.428   2.476  0.00  0.00     0.034 C 
ATOM      6  C12 <0> d           2.928  -0.786   2.470  0.00  0.00     0.235 C 
ATOM      7  H29 <0> d           2.713  -0.363   0.487  0.00  0.00     0.280 HD
ENDROOT
BRANCH   1   8
ATOM      8  C7  <0> d           0.851  -0.515   1.305  0.00  0.00     0.192 C 
ATOM      9  C2  <0> d           0.761  -2.004   0.966  0.00  0.00     0.012 C 
ATOM     10  C1  <0> d           1.411  -2.258  -0.395  0.00  0.00     0.012 C 
ATOM     11  C3  <0> d          -0.708  -2.429   0.917  0.00  0.00     0.006 C 
ATOM     12  C4  <0> d          -1.358  -2.175   2.278  0.00  0.00     0.000 C 
ATOM     13  C5  <0> d          -1.269  -0.686   2.617  0.00  0.00     0.002 C 
ATOM     14  C6  <0> d           0.201  -0.262   2.667  0.00  0.00     0.033 C 
ENDBRANCH   1   8
BRANCH   4  15
ATOM     15  C13 <0> d           6.051   1.461   2.558  0.00  0.00     0.236 C 
BRANCH  15  16
ATOM     16  N2  <0> d           6.759   0.887   3.710  0.00  0.00    -0.079 N 
ATOM     17  C14 <0> d           8.182   1.246   3.639  0.00  0.00     0.267 C 
ATOM     18  H25 <0> d           6.362   1.251   4.564  0.00  0.00     0.276 HD
ATOM     19  H30 <0> d           6.665  -0.117   3.696  0.00  0.00     0.276 HD
ENDBRANCH  15  16
ENDBRANCH   4  15
TORSDOF 3
