REMARK  3 active torsions:
REMARK  status: ('A' for Active; 'I' for Inactive)
REMARK    1  A    between atoms: N5_16  and  C9_17 
REMARK    2  A    between atoms: C9_17  and  C10_18 
REMARK    3  A    between atoms: C10_18  and  N6_19 
ROOT
ATOM      1  C1  <0> d          -0.085   7.569   2.212  0.00  0.00     0.071 C 
ATOM      2  C2  <0> d          -1.502   7.839   1.779  0.00  0.00     0.048 A 
ATOM      3  C3  <0> d          -2.067   9.037   1.660  0.00  0.00     0.054 A 
ATOM      4  N1  <0> d          -3.376   8.862   1.246  0.00  0.00    -0.138 N 
ATOM      5  C4  <0> d          -4.556   9.510   0.913  0.00  0.00     0.172 A 
ATOM      6  C5  <0> d          -4.958  10.855   0.857  0.00  0.00     0.281 A 
ATOM      7  O1  <0> d          -4.176  11.744   1.145  0.00  0.00    -0.265 OA
ATOM      8  N2  <0> d          -6.219  11.152   0.483  0.00  0.00    -0.273 N 
ATOM      9  H1  <0> d          -6.546  12.201   0.436  0.00  0.00     0.173 HD
ATOM     10  C6  <0> d          -7.094  10.183   0.163  0.00  0.00     0.330 A 
ATOM     11  O2  <0> d          -8.223  10.490  -0.171  0.00  0.00    -0.246 OA
ATOM     12  N3  <0> d          -6.753   8.882   0.202  0.00  0.00    -0.286 N 
ATOM     13  C7  <0> d          -5.470   8.512   0.580  0.00  0.00     0.186 A 
ATOM     14  N4  <0> d          -4.851   7.343   0.712  0.00  0.00    -0.043 NA
ATOM     15  C8  <0> d          -3.601   7.535   1.108  0.00  0.00     0.716 A 
ATOM     16  N5  <0> d          -2.441   6.884   1.434  0.00  0.00    -0.181 N 
ATOM     17  C18 <0> d          -7.735   7.855  -0.155  0.00  0.00     0.163 C 
ATOM     18  C19 <0> d          -1.397  10.359   1.934  0.00  0.00     0.071 C 
ENDROOT
BRANCH  16  19
ATOM     19  C9  <0> d          -2.232   5.434   1.424  0.00  0.00     0.175 C 
BRANCH  19  20
ATOM     20  C10 <0> d          -1.734   5.000   0.044  0.00  0.00     0.256 C 
BRANCH  20  21
ATOM     21  N6  <0> d          -1.525   3.546   0.035  0.00  0.00    -0.062 N 
ATOM     22  C15 <0> d          -0.804   3.109   1.238  0.00  0.00     0.184 C 
ATOM     23  C14 <0> d          -0.732   1.581   1.266  0.00  0.00     0.033 C 
ATOM     24  C16 <0> d           0.613   3.686   1.220  0.00  0.00     0.040 C 
ATOM     25  C13 <0> d          -0.013   1.086   0.008  0.00  0.00     0.004 C 
ATOM     26  C12 <0> d          -0.756   1.594  -1.230  0.00  0.00     0.033 C 
ATOM     27  C11 <0> d          -0.826   3.122  -1.185  0.00  0.00     0.184 C 
ATOM     28  C17 <0> d          -1.586   3.634  -2.411  0.00  0.00     0.040 C 
ATOM     29  H29 <0> d          -2.512   3.061   0.041  0.00  0.00     0.280 HD
ENDBRANCH  20  21
ENDBRANCH  19  20
ENDBRANCH  16  19
TORSDOF 3
