REMARK  4 active torsions:
REMARK  status: ('A' for Active; 'I' for Inactive)
REMARK       I    between atoms: C2_2  and  N1_4 
REMARK    1  A    between atoms: N1_4  and  C4_6 
REMARK    2  A    between atoms: C4_6  and  C5_7 
REMARK    3  A    between atoms: C9_11  and  N2_13 
REMARK       I    between atoms: N2_13  and  C11_14 
REMARK    4  A    between atoms: C11_14  and  C12_16 
ROOT
ATOM      1  N2  <0> d           4.079  -3.472  -1.360  0.00  0.00    -0.323 N 
ATOM      2  C11 <0> d           5.311  -3.724  -1.845  0.00  0.00     0.256 C 
ATOM      3  O2  <0> d           5.867  -2.904  -2.548  0.00  0.00    -0.267 OA
ATOM      4  H13 <0> d           3.611  -4.174  -0.655  0.00  0.00     0.169 HD
ENDROOT
BRANCH   2   5
ATOM      5  C12 <0> d           5.986  -5.001  -1.521  0.00  0.00     0.034 A 
ATOM      6  C17 <0> d           7.253  -5.259  -2.028  0.00  0.00     0.050 A 
ATOM      7  C16 <0> d           7.887  -6.464  -1.715  0.00  0.00     0.076 A 
ATOM      8  C15 <0> d           7.221  -7.404  -0.895  0.00  0.00     0.061 A 
ATOM      9  N3  <0> d           9.123  -6.756  -2.182  0.00  0.00    -0.223 NA
ATOM     10  C14 <0> d           5.947  -7.127  -0.402  0.00  0.00     0.020 A 
ATOM     11  C19 <0> d           7.911  -8.666  -0.587  0.00  0.00     0.261 A 
ATOM     12  C13 <0> d           5.340  -5.944  -0.711  0.00  0.00     0.018 A 
ATOM     13  N4  <0> d           9.146  -8.849  -1.110  0.00  0.00    -0.296 N 
ATOM     14  O3  <0> d           7.391  -9.515   0.113  0.00  0.00    -0.267 OA
ATOM     15  C18 <0> d           9.717  -7.888  -1.893  0.00  0.00     0.182 A 
ATOM     16  C20 <0> d           9.876 -10.089  -0.833  0.00  0.00     0.162 C 
ATOM     17  S1  <0> d          11.326  -8.183  -2.546  0.00  0.00    -0.011 SA
ENDBRANCH   2   5
BRANCH   1  18
ATOM     18  C9  <0> d           3.396  -2.317  -1.754  0.00  0.00     0.035 A 
ATOM     19  C8  <0> d           3.565  -1.811  -3.036  0.00  0.00     0.029 A 
ATOM     20  C7  <0> d           2.889  -0.671  -3.422  0.00  0.00     0.003 A 
ATOM     21  C6  <0> d           2.039  -0.036  -2.536  0.00  0.00     0.009 A 
ATOM     22  C5  <0> d           1.872  -0.534  -1.256  0.00  0.00    -0.038 A 
ATOM     23  C10 <0> d           2.545  -1.674  -0.864  0.00  0.00     0.038 A 
BRANCH  22  24
ATOM     24  C4  <0> d           0.948   0.164  -0.291  0.00  0.00     0.164 C 
BRANCH  24  25
ATOM     25  N1  <0> d           1.702   1.166   0.467  0.00  0.00    -0.353 N 
ATOM     26  C2  <0> d           2.293   0.827   1.630  0.00  0.00     0.215 C 
ATOM     27  C1  <0> d           3.068   1.857   2.410  0.00  0.00     0.117 C 
ATOM     28  O1  <0> d           2.202  -0.308   2.048  0.00  0.00    -0.274 OA
ATOM     29  C3  <0> d           1.812   2.537  -0.038  0.00  0.00     0.152 C 
ENDBRANCH  24  25
ENDBRANCH  22  24
ENDBRANCH   1  18
TORSDOF 4
