REMARK  6 active torsions:
REMARK  status: ('A' for Active; 'I' for Inactive)
REMARK    1  A    between atoms: C2_2  and  C3_3 
REMARK    2  A    between atoms: C3_3  and  N1_4 
REMARK    3  A    between atoms: C6_7  and  C8_9 
REMARK    4  A    between atoms: C8_9  and  N2_10 
REMARK       I    between atoms: N2_10  and  C9_11 
REMARK       I    between atoms: C9_11  and  N3_13 
REMARK    5  A    between atoms: N3_13  and  N4_14 
REMARK       I    between atoms: N4_14  and  C10_15 
REMARK    6  A    between atoms: C10_15  and  C11_17 
ROOT
ATOM      1  N2  <0> d          -3.275  -6.224   0.688  0.00  0.00    -0.341 N 
ATOM      2  C9  <0> d          -3.552  -7.414   0.120  0.00  0.00     0.334 C 
ATOM      3  O1  <0> d          -3.715  -7.491  -1.083  0.00  0.00    -0.246 OA
ATOM      4  N3  <0> d          -3.649  -8.520   0.885  0.00  0.00    -0.249 N 
ATOM      5  H17 <0> d          -3.145  -6.162   1.647  0.00  0.00     0.164 HD
ATOM      6  H18 <0> d          -3.848  -9.376   0.477  0.00  0.00     0.192 HD
ENDROOT
BRANCH   1   7
ATOM      7  C8  <0> d          -3.170  -5.022  -0.144  0.00  0.00     0.130 C 
BRANCH   7   8
ATOM      8  C6  <0> d          -2.851  -3.816   0.741  0.00  0.00     0.031 C 
ATOM      9  C5  <0> d          -1.440  -3.960   1.356  0.00  0.00     0.035 C 
ATOM     10  C4  <0> d          -0.886  -2.515   1.295  0.00  0.00     0.235 C 
ATOM     11  N1  <0> d          -1.413  -2.002   0.005  0.00  0.00    -0.071 N 
ATOM     12  C7  <0> d          -2.791  -2.531  -0.106  0.00  0.00     0.241 C 
ATOM     13  H25 <0> d          -0.849  -2.339  -0.761  0.00  0.00     0.279 HD
BRANCH  11  14
ATOM     14  C3  <0> d          -1.433  -0.534   0.013  0.00  0.00     0.234 C 
BRANCH  14  15
ATOM     15  C2  <0> d           0.002  -0.004   0.002  0.00  0.00     0.023 C 
ATOM     16  C1  <0> d          -0.019   1.526   0.010  0.00  0.00     0.007 C 
ENDBRANCH  14  15
ENDBRANCH  11  14
ENDBRANCH   7   8
ENDBRANCH   1   7
BRANCH   4  17
ATOM     17  N4  <0> d          -3.461  -8.431   2.271  0.00  0.00    -0.261 N 
ATOM     18  C10 <0> d          -3.557  -9.536   3.036  0.00  0.00     0.277 C 
ATOM     19  O2  <0> d          -3.808 -10.611   2.523  0.00  0.00    -0.265 OA
ATOM     20  H19 <0> d          -3.261  -7.574   2.679  0.00  0.00     0.190 HD
BRANCH  18  21
ATOM     21  C11 <0> d          -3.361  -9.443   4.486  0.00  0.00     0.080 A 
ATOM     22  S1  <0> d          -2.988  -8.011   5.480  0.00  0.00    -0.096 SA
ATOM     23  C14 <0> d          -2.929  -8.743   6.991  0.00  0.00     0.051 A 
ATOM     24  C13 <0> d          -3.181 -10.051   6.736  0.00  0.00     0.015 A 
ATOM     25  C12 <0> d          -3.410 -10.447   5.440  0.00  0.00    -0.039 A 
ATOM     26  C15 <0> d          -3.698 -11.882   5.080  0.00  0.00     0.050 C 
ENDBRANCH  18  21
ENDBRANCH   4  17
TORSDOF 6
