REMARK  6 active torsions:
REMARK  status: ('A' for Active; 'I' for Inactive)
REMARK    1  A    between atoms: C5_5  and  C6_7 
REMARK    2  A    between atoms: C6_7  and  C7_8 
REMARK    3  A    between atoms: C6_7  and  S2_11 
REMARK    4  A    between atoms: C7_8  and  N1_10 
REMARK    5  A    between atoms: S2_11  and  C9_12 
REMARK    6  A    between atoms: N4_18  and  C11_19 
ROOT
ATOM      1  C6  <0> d           0.964  -4.074  -0.059  0.00  0.00     0.125 C 
ENDROOT
BRANCH   1   2
ATOM      2  C5  <0> d           0.342  -2.711   0.103  0.00  0.00    -0.001 A 
ATOM      3  C4  <0> d          -0.964  -2.380   0.248  0.00  0.00     0.017 A 
ATOM      4  C3  <0> d          -1.307  -1.048   0.383  0.00  0.00     0.015 A 
ATOM      5  C2  <0> d          -0.327  -0.112   0.367  0.00  0.00    -0.021 A 
ATOM      6  C1  <0> d          -0.443   1.386   0.493  0.00  0.00     0.056 C 
ATOM      7  S1  <0> d           1.135  -1.112   0.149  0.00  0.00    -0.098 SA
ENDBRANCH   1   2
BRANCH   1   8
ATOM      8  C7  <0> d           1.715  -4.137  -1.391  0.00  0.00     0.198 C 
ATOM      9  C8  <0> d           2.260  -5.550  -1.603  0.00  0.00     0.041 C 
BRANCH   8  10
ATOM     10  N1  <0> d           0.799  -3.795  -2.487  0.00  0.00    -0.074 N 
ATOM     11  H12 <0> d           0.439  -2.863  -2.347  0.00  0.00     0.274 HD
ATOM     12  H13 <0> d           1.294  -3.837  -3.365  0.00  0.00     0.274 HD
ATOM     13  H21 <0> d           0.033  -4.452  -2.502  0.00  0.00     0.274 HD
ENDBRANCH   8  10
ENDBRANCH   1   8
BRANCH   1  14
ATOM     14  S2  <0> d           2.121  -4.378   1.304  0.00  0.00    -0.078 SA
BRANCH  14  15
ATOM     15  C9  <0> d           1.084  -4.516   2.721  0.00  0.00     0.193 A 
ATOM     16  N4  <0> d           1.504  -4.822   3.996  0.00  0.00    -0.272 N 
ATOM     17  C10 <0> d           0.426  -4.833   4.806  0.00  0.00     0.345 A 
ATOM     18  N3  <0> d          -0.654  -4.547   4.050  0.00  0.00    -0.226 N 
ATOM     19  O1  <0> d           0.427  -5.063   6.002  0.00  0.00    -0.245 OA
ATOM     20  N2  <0> d          -0.207  -4.352   2.736  0.00  0.00    -0.145 NA
ATOM     21  H3  <0> d          -1.572  -4.489   4.359  0.00  0.00     0.194 HD
BRANCH  16  22
ATOM     22  C11 <0> d           2.886  -5.087   4.404  0.00  0.00     0.088 C 
ATOM     23  C12 <0> d           3.309  -4.067   5.463  0.00  0.00     0.032 C 
ATOM     24  C13 <0> d           2.984  -6.498   4.987  0.00  0.00     0.032 C 
ENDBRANCH  16  22
ENDBRANCH  14  15
ENDBRANCH   1  14
TORSDOF 6
