REMARK  4 active torsions:
REMARK  status: ('A' for Active; 'I' for Inactive)
REMARK    1  A    between atoms: C2_2  and  C3_3 
REMARK    2  A    between atoms: C2_2  and  N2_9 
REMARK    3  A    between atoms: N2_9  and  C8_10 
REMARK    4  A    between atoms: C8_10  and  C9_11 
ROOT
ATOM      1  N2  <0> d           0.690  -0.478  -1.207  0.00  0.00    -0.065 N 
ATOM      2  H10 <0> d           1.608  -0.063  -1.256  0.00  0.00     0.278 HD
ATOM      3  H19 <0> d           0.776  -1.482  -1.172  0.00  0.00     0.278 HD
ENDROOT
BRANCH   1   4
ATOM      4  C2  <0> d           0.002  -0.004   0.002  0.00  0.00     0.215 C 
ATOM      5  C1  <0> d          -0.019   1.526   0.010  0.00  0.00     0.045 C 
BRANCH   4   6
ATOM      6  C3  <0> d           0.731  -0.503   1.223  0.00  0.00    -0.025 A 
ATOM      7  C7  <0> d           0.032  -0.951   2.333  0.00  0.00     0.028 A 
ATOM      8  C6  <0> d           0.734  -1.407   3.433  0.00  0.00     0.116 A 
ATOM      9  N1  <0> d           2.053  -1.409   3.437  0.00  0.00    -0.273 NA
ATOM     10  C5  <0> d           2.751  -0.986   2.401  0.00  0.00     0.116 A 
ATOM     11  C4  <0> d           2.117  -0.521   1.264  0.00  0.00     0.028 A 
ENDBRANCH   4   6
ENDBRANCH   1   4
BRANCH   1  12
ATOM     12  C8  <0> d          -0.086  -0.093  -2.394  0.00  0.00     0.267 C 
BRANCH  12  13
ATOM     13  C9  <0> d           0.630  -0.587  -3.652  0.00  0.00     0.170 C 
ATOM     14  O2  <0> d           0.648  -2.017  -3.663  0.00  0.00    -0.380 OA
ATOM     15  C12 <0> d           1.256  -2.574  -4.832  0.00  0.00     0.194 C 
ATOM     16  C11 <0> d           0.514  -2.070  -6.074  0.00  0.00     0.193 C 
ATOM     17  O1  <0> d           0.498  -0.639  -6.063  0.00  0.00    -0.386 OA
ATOM     18  C10 <0> d          -0.111  -0.083  -4.894  0.00  0.00     0.201 C 
ENDBRANCH  12  13
ENDBRANCH   1  12
TORSDOF 4
