REMARK  6 active torsions:
REMARK  status: ('A' for Active; 'I' for Inactive)
REMARK    1  A    between atoms: C2_2  and  C3_3 
REMARK    2  A    between atoms: C3_3  and  C19_30 
REMARK    3  A    between atoms: N1_6  and  N3_10 
REMARK       I    between atoms: N3_10  and  C6_11 
REMARK    4  A    between atoms: C6_11  and  C7_13 
REMARK    5  A    between atoms: C7_13  and  C8_14 
REMARK    6  A    between atoms: C8_14  and  C9_15 
ROOT
ATOM      1  N3  <0> d         -10.609   0.432   3.934  0.00  0.00    -0.257 N 
ATOM      2  C6  <0> d         -10.136   0.279   2.682  0.00  0.00     0.237 C 
ATOM      3  O3  <0> d         -10.892  -0.015   1.780  0.00  0.00    -0.272 OA
ATOM      4  H8  <0> d         -10.004   0.667   4.656  0.00  0.00     0.190 HD
ENDROOT
BRANCH   2   5
ATOM      5  C7  <0> d          -8.668   0.473   2.401  0.00  0.00     0.112 C 
BRANCH   5   6
ATOM      6  C8  <0> d          -8.399   0.242   0.913  0.00  0.00     0.088 C 
BRANCH   6   7
ATOM      7  C9  <0> d          -6.931   0.436   0.632  0.00  0.00     0.108 A 
ATOM      8  N5  <0> d          -6.138   0.754   1.631  0.00  0.00    -0.227 NA
ATOM      9  C14 <0> d          -4.847   0.919   1.359  0.00  0.00     0.116 A 
ATOM     10  C11 <0> d          -4.290   0.773   0.069  0.00  0.00     0.075 A 
ATOM     11  S1  <0> d          -3.456   1.337   2.361  0.00  0.00    -0.073 SA
ATOM     12  C10 <0> d          -5.191   0.425  -0.994  0.00  0.00     0.260 A 
ATOM     13  C12 <0> d          -2.859   0.991  -0.040  0.00  0.00    -0.026 A 
ATOM     14  N4  <0> d          -6.489   0.274  -0.638  0.00  0.00    -0.311 N 
ATOM     15  O4  <0> d          -4.811   0.275  -2.143  0.00  0.00    -0.267 OA
ATOM     16  H1  <0> d          -7.132   0.040  -1.325  0.00  0.00     0.170 HD
ATOM     17  C18 <0> d          -2.100   0.873  -1.359  0.00  0.00     0.041 C 
ATOM     18  C13 <0> d          -2.205   1.312   1.102  0.00  0.00    -0.008 A 
ATOM     19  C17 <0> d          -0.760   1.597  -1.227  0.00  0.00     0.005 C 
ATOM     20  C16 <0> d          -0.013   1.086   0.008  0.00  0.00     0.005 C 
ATOM     21  C15 <0> d          -0.738   1.584   1.266  0.00  0.00     0.047 C 
ENDBRANCH   6   7
ENDBRANCH   5   6
ENDBRANCH   2   5
BRANCH   1  22
ATOM     22  N1  <0> d         -11.973   0.252   4.195  0.00  0.00    -0.167 N 
ATOM     23  C4  <0> d         -12.490  -0.831   4.809  0.00  0.00     0.280 A 
ATOM     24  C3  <0> d         -13.986  -0.591   4.873  0.00  0.00     0.145 A 
ATOM     25  O1  <0> d         -11.885  -1.797   5.222  0.00  0.00    -0.268 OA
ATOM     26  N2  <0> d         -14.153   0.723   4.229  0.00  0.00    -0.319 N 
ATOM     27  C5  <0> d         -12.924   1.136   3.872  0.00  0.00     0.345 A 
ATOM     28  H7  <0> d         -14.987   1.200   4.092  0.00  0.00     0.166 HD
ATOM     29  O2  <0> d         -12.701   2.193   3.314  0.00  0.00    -0.245 OA
BRANCH  24  30
ATOM     30  C2  <0> d         -14.739  -1.672   4.096  0.00  0.00     0.042 C 
ATOM     31  C1  <0> d         -14.283  -1.661   2.635  0.00  0.00     0.008 C 
ENDBRANCH  24  30
BRANCH  24  32
ATOM     32  C19 <0> d         -14.454  -0.546   6.305  0.00  0.00    -0.021 A 
ATOM     33  C24 <0> d         -14.464   0.654   6.992  0.00  0.00     0.010 A 
ATOM     34  C23 <0> d         -14.893   0.695   8.305  0.00  0.00     0.001 A 
ATOM     35  C22 <0> d         -15.313  -0.464   8.932  0.00  0.00     0.000 A 
ATOM     36  C21 <0> d         -15.304  -1.663   8.245  0.00  0.00     0.001 A 
ATOM     37  C20 <0> d         -14.879  -1.704   6.930  0.00  0.00     0.010 A 
ENDBRANCH  24  32
ENDBRANCH   1  22
TORSDOF 6
