REMARK  4 active torsions:
REMARK  status: ('A' for Active; 'I' for Inactive)
REMARK    1  A    between atoms: C3_3  and  O2_22 
REMARK    2  A    between atoms: C6_6  and  C7_7 
REMARK    3  A    between atoms: C10_12  and  N2_14 
REMARK    4  A    between atoms: N2_14  and  C11_15 
ROOT
ATOM      1  C7  <0> d          -1.247  -0.749  -0.100  0.00  0.00     0.036 C 
ATOM      2  C8  <0> d          -1.232  -2.104  -0.174  0.00  0.00     0.079 A 
ATOM      3  C9  <0> d          -2.359  -3.064  -0.229  0.00  0.00     0.286 A 
ATOM      4  O1  <0> d          -3.522  -2.694  -0.213  0.00  0.00    -0.265 OA
ATOM      5  N1  <0> d          -2.038  -4.337  -0.298  0.00  0.00    -0.182 NA
ATOM      6  C10 <0> d          -0.781  -4.753  -0.317  0.00  0.00     0.197 A 
ATOM      7  S1  <0> d           0.154  -3.233  -0.239  0.00  0.00    -0.045 SA
ENDROOT
BRANCH   1   8
ATOM      8  C6  <0> d           0.001  -0.013   0.135  0.00  0.00    -0.035 A 
ATOM      9  C1  <0> d           1.182  -0.707   0.424  0.00  0.00     0.014 A 
ATOM     10  C2  <0> d           2.350  -0.011   0.644  0.00  0.00     0.037 A 
ATOM     11  C3  <0> d           2.357   1.378   0.579  0.00  0.00     0.065 A 
ATOM     12  C4  <0> d           1.187   2.072   0.292  0.00  0.00     0.037 A 
ATOM     13  C5  <0> d           0.014   1.386   0.071  0.00  0.00     0.014 A 
BRANCH  11  14
ATOM     14  O2  <0> d           3.511   2.059   0.796  0.00  0.00    -0.361 OA
ATOM     15  H10 <0> d           4.033   2.214  -0.003  0.00  0.00     0.217 HD
ENDBRANCH  11  14
ENDBRANCH   1   8
BRANCH   6  16
ATOM     16  N2  <0> d          -0.310  -6.038  -0.385  0.00  0.00    -0.223 NA
BRANCH  16  17
ATOM     17  C11 <0> d          -1.197  -7.096  -0.611  0.00  0.00     0.059 A 
ATOM     18  C16 <0> d          -0.866  -8.381  -0.200  0.00  0.00     0.033 A 
ATOM     19  C15 <0> d          -1.746  -9.422  -0.419  0.00  0.00     0.021 A 
ATOM     20  C14 <0> d          -2.951  -9.189  -1.059  0.00  0.00     0.011 A 
ATOM     21  C13 <0> d          -3.280  -7.911  -1.475  0.00  0.00     0.021 A 
ATOM     22 Br1  <0> d          -4.149 -10.619  -1.365  0.00  0.00    -0.051 Br
ATOM     23  C12 <0> d          -2.407  -6.865  -1.253  0.00  0.00     0.033 A 
ENDBRANCH  16  17
ENDBRANCH   6  16
TORSDOF 4
