REMARK  6 active torsions:
REMARK  status: ('A' for Active; 'I' for Inactive)
REMARK    1  A    between atoms: N1_2  and  C3_4 
REMARK    2  A    between atoms: C3_4  and  C4_5 
REMARK    3  A    between atoms: C3_4  and  C12_17 
REMARK    4  A    between atoms: C4_5  and  N2_6 
REMARK    5  A    between atoms: N2_6  and  C5_7 
REMARK    6  A    between atoms: C5_7  and  C6_8 
ROOT
ATOM      1  N2  <0> d          -1.842   1.114   2.087  0.00  0.00    -0.072 N 
ATOM      2  H11 <0> d          -0.854   1.300   2.004  0.00  0.00     0.277 HD
ATOM      3  H26 <0> d          -2.355   1.764   1.511  0.00  0.00     0.277 HD
ENDROOT
BRANCH   1   4
ATOM      4  C4  <0> d          -2.121  -0.258   1.644  0.00  0.00     0.273 C 
BRANCH   4   5
ATOM      5  C3  <0> d          -1.843  -0.377   0.144  0.00  0.00     0.280 C 
BRANCH   5   6
ATOM      6  N1  <0> d          -0.457   0.027  -0.130  0.00  0.00     0.090 N 
ATOM      7  C1  <0> d           0.067  -0.661  -1.317  0.00  0.00     0.310 C 
ATOM      8  C2  <0> d          -0.354   1.485  -0.278  0.00  0.00     0.310 C 
ENDBRANCH   5   6
BRANCH   5   9
ATOM      9  C12 <0> d          -2.045  -1.805  -0.292  0.00  0.00    -0.024 A 
ATOM     10  C17 <0> d          -3.056  -2.119  -1.181  0.00  0.00     0.009 A 
ATOM     11  C16 <0> d          -3.239  -3.429  -1.585  0.00  0.00     0.001 A 
ATOM     12  C15 <0> d          -2.417  -4.425  -1.093  0.00  0.00     0.000 A 
ATOM     13  C14 <0> d          -1.409  -4.112  -0.200  0.00  0.00     0.001 A 
ATOM     14  C13 <0> d          -1.224  -2.802   0.200  0.00  0.00     0.009 A 
ENDBRANCH   5   9
ENDBRANCH   4   5
ENDBRANCH   1   4
BRANCH   1  15
ATOM     15  C5  <0> d          -2.254   1.270   3.488  0.00  0.00     0.240 C 
BRANCH  15  16
ATOM     16  C6  <0> d          -1.963   2.700   3.949  0.00  0.00     0.049 C 
ATOM     17  C11 <0> d          -2.510   2.899   5.367  0.00  0.00     0.161 C 
ATOM     18  N5  <0> d          -2.023   4.179   5.888  0.00  0.00    -0.254 N 
ATOM     19  C8  <0> d          -0.946   4.837   5.387  0.00  0.00     0.121 A 
ATOM     20  N4  <0> d          -2.533   4.937   6.941  0.00  0.00    -0.183 NA
ATOM     21  N3  <0> d          -0.195   4.344   4.317  0.00  0.00    -0.375 N 
ATOM     22  C9  <0> d          -0.784   5.974   6.099  0.00  0.00     0.070 A 
ATOM     23  C7  <0> d          -0.449   2.941   3.938  0.00  0.00     0.129 C 
ATOM     24  H16 <0> d           0.456   4.892   3.851  0.00  0.00     0.161 HD
ATOM     25  C10 <0> d          -1.794   6.013   7.069  0.00  0.00     0.142 A 
ENDBRANCH  15  16
ENDBRANCH   1  15
TORSDOF 6
