REMARK  6 active torsions:
REMARK  status: ('A' for Active; 'I' for Inactive)
REMARK    1  A    between atoms: C2_2  and  C3_3 
REMARK       I    between atoms: C3_3  and  N1_5 
REMARK    2  A    between atoms: N1_5  and  C4_6 
REMARK    3  A    between atoms: C7_9  and  C10_12 
REMARK    4  A    between atoms: C10_12  and  N2_14 
REMARK       I    between atoms: N2_14  and  C12_15 
REMARK    5  A    between atoms: C12_15  and  C13_17 
REMARK    6  A    between atoms: C13_17  and  C14_18 
ROOT
ATOM      1  C10 <0> d          -5.935  -1.221   0.391  0.00  0.00     0.113 C 
ATOM      2  C11 <0> d          -6.276  -1.801  -0.983  0.00  0.00     0.037 C 
ENDROOT
BRANCH   1   3
ATOM      3  C7  <0> d          -4.675  -0.401   0.291  0.00  0.00    -0.036 A 
ATOM      4  C6  <0> d          -3.442  -1.028   0.288  0.00  0.00     0.011 A 
ATOM      5  C5  <0> d          -2.286  -0.279   0.192  0.00  0.00     0.030 A 
ATOM      6  C4  <0> d          -2.361   1.105   0.110  0.00  0.00     0.034 A 
ATOM      7  C9  <0> d          -3.600   1.732   0.113  0.00  0.00     0.030 A 
ATOM      8  C8  <0> d          -4.753   0.977   0.204  0.00  0.00     0.011 A 
BRANCH   6   9
ATOM      9  N1  <0> d          -1.191   1.867   0.018  0.00  0.00    -0.327 N 
ATOM     10  C3  <0> d          -1.125   3.076   0.609  0.00  0.00     0.221 C 
ATOM     11  O1  <0> d          -2.107   3.541   1.149  0.00  0.00    -0.273 OA
ATOM     12  H7  <0> d          -0.324   1.478  -0.537  0.00  0.00     0.169 HD
BRANCH  10  13
ATOM     13  C2  <0> d           0.169   3.848   0.605  0.00  0.00     0.098 C 
ATOM     14  C1  <0> d          -0.026   5.174   1.343  0.00  0.00     0.014 C 
ENDBRANCH  10  13
ENDBRANCH   6   9
ENDBRANCH   1   3
BRANCH   1  15
ATOM     15  N2  <0> d          -5.733  -2.313   1.346  0.00  0.00    -0.352 N 
ATOM     16  C12 <0> d          -6.790  -2.858   1.981  0.00  0.00     0.224 C 
ATOM     17  O2  <0> d          -7.908  -2.443   1.762  0.00  0.00    -0.273 OA
ATOM     18  H15 <0> d          -4.718  -2.689   1.544  0.00  0.00     0.163 HD
BRANCH  16  19
ATOM     19  C13 <0> d          -6.582  -3.982   2.963  0.00  0.00     0.165 C 
BRANCH  19  20
ATOM     20  C14 <0> d          -7.912  -4.407   3.529  0.00  0.00     0.084 A 
ATOM     21  N3  <0> d          -8.481  -3.932   4.594  0.00  0.00    -0.131 NA
ATOM     22  O3  <0> d          -9.721  -4.578   4.801  0.00  0.00    -0.212 OA
ATOM     23  C20 <0> d          -9.916  -5.493   3.830  0.00  0.00     0.113 A 
ATOM     24  C15 <0> d          -8.798  -5.438   2.981  0.00  0.00     0.027 A 
ATOM     25  C19 <0> d         -10.938  -6.393   3.556  0.00  0.00     0.040 A 
ATOM     26  C16 <0> d          -8.725  -6.285   1.873  0.00  0.00     0.016 A 
ATOM     27  C17 <0> d          -9.741  -7.163   1.621  0.00  0.00     0.001 A 
ATOM     28  C18 <0> d         -10.846  -7.221   2.458  0.00  0.00     0.003 A 
ENDBRANCH  19  20
ENDBRANCH  16  19
ENDBRANCH   1  15
TORSDOF 6
