REMARK  3 active torsions:
REMARK  status: ('A' for Active; 'I' for Inactive)
REMARK    1  A    between atoms: N1_10  and  C11_14 
REMARK    2  A    between atoms: C15_18  and  C16_19 
REMARK    3  A    between atoms: C16_19  and  N2_20 
ROOT
ATOM      1  C1  <0> d           0.078   1.182  -0.587  0.00  0.00     0.000 C 
ATOM      2  C2  <0> d           1.514   1.708  -0.622  0.00  0.00     0.001 C 
ATOM      3  C3  <0> d           2.169   1.496   0.744  0.00  0.00     0.010 C 
ATOM      4  C4  <0> d           2.178   0.004   1.080  0.00  0.00    -0.024 C 
ATOM      5  C5  <0> d           0.744  -0.525   1.112  0.00  0.00     0.010 C 
ATOM      6  C6  <0> d           0.090  -0.312  -0.255  0.00  0.00     0.001 C 
ATOM      7  C7  <0> d           2.982  -0.755   0.020  0.00  0.00     0.113 C 
ATOM      8  C8  <0> d           4.420  -0.308   0.076  0.00  0.00     0.227 C 
ATOM      9  O1  <0> d           5.093  -0.343  -0.931  0.00  0.00    -0.273 OA
ATOM     10  N1  <0> d           4.969   0.129   1.220  0.00  0.00    -0.283 N 
ATOM     11  C9  <0> d           4.282   0.206   2.369  0.00  0.00     0.227 C 
ATOM     12  O2  <0> d           4.834   0.621   3.365  0.00  0.00    -0.273 OA
ATOM     13  C10 <0> d           2.837  -0.211   2.445  0.00  0.00     0.113 C 
ENDROOT
BRANCH  10  14
ATOM     14  C11 <0> d           6.376   0.537   1.213  0.00  0.00     0.101 C 
ATOM     15  C15 <0> d           7.219  -0.458   2.036  0.00  0.00     0.034 C 
ATOM     16  C14 <0> d           7.317   0.197   3.437  0.00  0.00     0.008 C 
ATOM     17  C13 <0> d           7.460   1.702   3.102  0.00  0.00     0.002 C 
ATOM     18  C12 <0> d           6.529   1.910   1.890  0.00  0.00     0.026 C 
BRANCH  15  19
ATOM     19  C16 <0> d           6.513  -1.813   2.125  0.00  0.00     0.236 C 
BRANCH  19  20
ATOM     20  N2  <0> d           7.387  -2.776   2.809  0.00  0.00    -0.079 N 
ATOM     21  H25 <0> d           7.593  -2.442   3.738  0.00  0.00     0.274 HD
ATOM     22  H26 <0> d           6.921  -3.669   2.867  0.00  0.00     0.274 HD
ATOM     23  H27 <0> d           8.246  -2.878   2.290  0.00  0.00     0.274 HD
ENDBRANCH  19  20
ENDBRANCH  15  19
ENDBRANCH  10  14
TORSDOF 3
