REMARK  3 active torsions:
REMARK  status: ('A' for Active; 'I' for Inactive)
REMARK    1  A    between atoms: N1_4  and  C8_10 
REMARK    2  A    between atoms: C10_13  and  C11_15 
REMARK    3  A    between atoms: C11_15  and  N3_17 
ROOT
ATOM      1  C8  <0> d           0.512  -2.798  -2.185  0.00  0.00     0.169 A 
ATOM      2  N2  <0> d           0.593  -4.110  -2.244  0.00  0.00    -0.236 NA
ATOM      3  C9  <0> d           0.181  -4.771  -3.311  0.00  0.00     0.136 A 
ATOM      4  C10 <0> d          -0.323  -4.039  -4.333  0.00  0.00     0.034 A 
ATOM      5  S1  <0> d          -0.173  -2.389  -3.667  0.00  0.00    -0.053 SA
ENDROOT
BRANCH   1   6
ATOM      6  N1  <0> d           0.894  -1.957  -1.151  0.00  0.00    -0.355 N 
ATOM      7  C3  <0> d           0.722  -0.499  -1.258  0.00  0.00     0.156 C 
ATOM      8  C2  <0> d           0.002  -0.004   0.002  0.00  0.00     0.136 C 
ATOM      9  C1  <0> d          -0.019   1.526   0.010  0.00  0.00     0.041 C 
ATOM     10  O1  <0> d           0.695  -0.479   1.159  0.00  0.00    -0.373 OA
ATOM     11  C5  <0> d           0.726  -1.903   1.280  0.00  0.00     0.070 C 
ATOM     12  C4  <0> d           1.483  -2.495   0.085  0.00  0.00     0.162 C 
ATOM     13  C6  <0> d          -0.705  -2.444   1.298  0.00  0.00     0.047 C 
ATOM     14  C7  <0> d           1.437  -2.290   2.578  0.00  0.00     0.047 C 
ENDBRANCH   1   6
BRANCH   4  15
ATOM     15  C11 <0> d          -0.865  -4.492  -5.664  0.00  0.00     0.220 C 
ATOM     16  C12 <0> d           0.297  -4.779  -6.617  0.00  0.00     0.045 C 
BRANCH  15  17
ATOM     17  N3  <0> d          -1.659  -5.714  -5.479  0.00  0.00    -0.071 N 
ATOM     18  H20 <0> d          -1.075  -6.439  -5.089  0.00  0.00     0.275 HD
ATOM     19  H21 <0> d          -2.425  -5.525  -4.851  0.00  0.00     0.275 HD
ATOM     20  H22 <0> d          -2.022  -6.017  -6.370  0.00  0.00     0.275 HD
ENDBRANCH  15  17
ENDBRANCH   4  15
TORSDOF 3
