REMARK  10 active torsions:
REMARK  status: ('A' for Active; 'I' for Inactive)
REMARK    1  A    between atoms: N1_2  and  C3_4 
REMARK    2  A    between atoms: C3_4  and  C9_10 
REMARK    3  A    between atoms: C9_10  and  N2_11 
REMARK    4  A    between atoms: N2_11  and  C10_12 
REMARK    5  A    between atoms: C10_12  and  C11_13 
REMARK    6  A    between atoms: C11_13  and  C12_14 
REMARK    7  A    between atoms: C11_13  and  O2_25 
REMARK    8  A    between atoms: C12_14  and  O1_15 
REMARK    9  A    between atoms: O1_15  and  C13_16 
REMARK   10  A    between atoms: C16_19  and  C19_22 
ROOT
ATOM      1  C19 <0> d          -0.136 -12.532   3.178  0.00  0.00     0.162 C 
ATOM      2  C20 <0> d           0.970 -13.072   2.371  0.00  0.00     0.063 C 
ATOM      3  N3  <0> d           1.824 -13.488   1.748  0.00  0.00    -0.197 NA
ENDROOT
BRANCH   1   4
ATOM      4  C16 <0> d          -0.101 -11.026   3.134  0.00  0.00    -0.045 A 
ATOM      5  C15 <0> d          -0.796 -10.348   2.150  0.00  0.00     0.011 A 
ATOM      6  C14 <0> d          -0.766  -8.967   2.107  0.00  0.00     0.037 A 
ATOM      7  C13 <0> d          -0.038  -8.261   3.054  0.00  0.00     0.068 A 
ATOM      8  C18 <0> d           0.662  -8.944   4.038  0.00  0.00     0.037 A 
ATOM      9  C17 <0> d           0.625 -10.324   4.079  0.00  0.00     0.011 A 
BRANCH   7  10
ATOM     10  O1  <0> d          -0.007  -6.903   3.014  0.00  0.00    -0.349 OA
BRANCH  10  11
ATOM     11  C12 <0> d          -0.752  -6.267   1.974  0.00  0.00     0.209 C 
BRANCH  11  12
ATOM     12  C11 <0> d          -0.597  -4.750   2.091  0.00  0.00     0.168 C 
BRANCH  12  13
ATOM     13  C10 <0> d          -1.291  -4.074   0.906  0.00  0.00     0.266 C 
BRANCH  13  14
ATOM     14  N2  <0> d          -1.041  -2.627   0.953  0.00  0.00    -0.070 N 
ATOM     15  H20 <0> d          -0.048  -2.455   0.904  0.00  0.00     0.277 HD
ATOM     16  H32 <0> d          -1.406  -2.251   1.815  0.00  0.00     0.277 HD
BRANCH  14  17
ATOM     17  C9  <0> d          -1.707  -1.978  -0.185  0.00  0.00     0.271 C 
BRANCH  17  18
ATOM     18  C3  <0> d          -1.380  -0.483  -0.182  0.00  0.00     0.150 C 
ATOM     19  C8  <0> d          -2.177   0.215  -1.286  0.00  0.00     0.041 C 
ATOM     20  C7  <0> d          -1.804  -0.387  -2.643  0.00  0.00     0.002 C 
ATOM     21  C6  <0> d          -0.307  -0.192  -2.893  0.00  0.00     0.000 C 
ATOM     22  C5  <0> d           0.489  -0.890  -1.789  0.00  0.00     0.002 C 
ATOM     23  C4  <0> d           0.117  -0.289  -0.433  0.00  0.00     0.041 C 
BRANCH  18  24
ATOM     24  N1  <0> d          -1.738   0.094   1.120  0.00  0.00    -0.068 N 
ATOM     25  C1  <0> d          -1.453   1.535   1.112  0.00  0.00     0.270 C 
ATOM     26  C2  <0> d          -3.169  -0.120   1.374  0.00  0.00     0.270 C 
ATOM     27  H33 <0> d          -1.197  -0.352   1.846  0.00  0.00     0.280 HD
ENDBRANCH  18  24
ENDBRANCH  17  18
ENDBRANCH  14  17
ENDBRANCH  13  14
ENDBRANCH  12  13
BRANCH  12  28
ATOM     28  O2  <0> d          -1.194  -4.302   3.310  0.00  0.00    -0.392 OA
ATOM     29  H31 <0> d          -2.138  -4.500   3.381  0.00  0.00     0.210 HD
ENDBRANCH  12  28
ENDBRANCH  11  12
ENDBRANCH  10  11
ENDBRANCH   7  10
ENDBRANCH   1   4
TORSDOF 10
