REMARK  2 active torsions:
REMARK  status: ('A' for Active; 'I' for Inactive)
REMARK    1  A    between atoms: C3_4  and  C5_7 
REMARK       I    between atoms: C5_7  and  N3_9 
REMARK    2  A    between atoms: N3_9  and  C6_10 
ROOT
ATOM      1  C6  <0> d           2.505  -4.212   0.045  0.00  0.00     0.055 A 
ATOM      2  C7  <0> d           1.346  -4.975   0.051  0.00  0.00     0.070 A 
ATOM      3  C8  <0> d           1.426  -6.357   0.127  0.00  0.00     0.104 A 
ATOM      4  C9  <0> d           2.668  -6.976   0.206  0.00  0.00     0.103 A 
ATOM      5  C10 <0> d           3.824  -6.211   0.205  0.00  0.00     0.061 A 
ATOM      6  C11 <0> d           3.745  -4.833   0.125  0.00  0.00     0.040 A 
ATOM      7 Br1  <0> d           5.325  -3.794   0.126  0.00  0.00    -0.049 Br
ATOM      8  O2  <0> d           2.766  -8.332   0.281  0.00  0.00    -0.346 OA
ATOM      9  C12 <0> d           1.581  -9.044   0.654  0.00  0.00     0.202 C 
ATOM     10  C13 <0> d           0.409  -8.487  -0.165  0.00  0.00     0.202 C 
ATOM     11  O3  <0> d           0.280  -7.092   0.131  0.00  0.00    -0.346 OA
ENDROOT
BRANCH   1  12
ATOM     12  N3  <0> d           2.425  -2.816  -0.037  0.00  0.00    -0.320 N 
ATOM     13  C5  <0> d           1.408  -2.164   0.560  0.00  0.00     0.276 C 
ATOM     14  O1  <0> d           0.517  -2.791   1.099  0.00  0.00    -0.266 OA
ATOM     15  H4  <0> d           3.101  -2.319  -0.523  0.00  0.00     0.169 HD
BRANCH  13  16
ATOM     16  C3  <0> d           1.376  -0.683   0.560  0.00  0.00     0.141 A 
ATOM     17  N1  <0> d           2.350   0.005  -0.030  0.00  0.00    -0.253 NA
ATOM     18  C2  <0> d           2.318   1.322  -0.029  0.00  0.00     0.136 A 
ATOM     19  C1  <0> d           1.270   1.993   0.586  0.00  0.00     0.135 A 
ATOM     20  N2  <0> d           0.300   1.315   1.173  0.00  0.00    -0.269 NA
ATOM     21  C4  <0> d           0.325  -0.006   1.177  0.00  0.00     0.153 A 
ENDBRANCH  13  16
ENDBRANCH   1  12
TORSDOF 2
