REMARK  4 active torsions:
REMARK  status: ('A' for Active; 'I' for Inactive)
REMARK    1  A    between atoms: C6_6  and  C7_7 
REMARK    2  A    between atoms: C9_9  and  N3_12 
REMARK    3  A    between atoms: C10_13  and  C11_14 
REMARK    4  A    between atoms: C16_19  and  O1_20 
ROOT
ATOM      1  C7  <0> d          -1.309  -0.776   0.017  0.00  0.00     0.161 A 
ATOM      2  C8  <0> d          -1.633  -1.302  -1.370  0.00  0.00     0.056 A 
ATOM      3  C9  <0> d          -1.635  -2.644  -1.215  0.00  0.00     0.145 A 
ATOM      4  N1  <0> d          -1.357  -2.970   0.077  0.00  0.00    -0.161 NA
ATOM      5  N2  <0> d          -1.167  -2.001   0.821  0.00  0.00    -0.299 N 
ATOM      6  H11 <0> d          -0.959  -2.039   1.767  0.00  0.00     0.183 HD
ENDROOT
BRANCH   3   7
ATOM      7  N3  <0> d          -1.883  -3.546  -2.213  0.00  0.00    -0.349 N 
ATOM      8  C10 <0> d          -1.862  -4.824  -1.956  0.00  0.00     0.104 C 
ATOM      9  H12 <0> d          -2.075  -3.235  -3.111  0.00  0.00     0.167 HD
BRANCH   8  10
ATOM     10  C11 <0> d          -2.236  -5.790  -3.000  0.00  0.00     0.016 A 
ATOM     11  C16 <0> d          -2.509  -5.349  -4.304  0.00  0.00     0.099 A 
ATOM     12  C15 <0> d          -2.856  -6.269  -5.282  0.00  0.00     0.069 A 
ATOM     13  C14 <0> d          -2.942  -7.613  -4.970  0.00  0.00     0.050 A 
ATOM     14 Cl1  <0> d          -3.189  -5.732  -6.898  0.00  0.00    -0.081 Cl
ATOM     15  C13 <0> d          -2.678  -8.053  -3.681  0.00  0.00     0.036 A 
ATOM     16  C12 <0> d          -2.327  -7.153  -2.698  0.00  0.00     0.039 A 
ATOM     17 Cl2  <0> d          -2.791  -9.744  -3.305  0.00  0.00    -0.084 Cl
BRANCH  11  18
ATOM     18  O1  <0> d          -2.430  -4.029  -4.608  0.00  0.00    -0.358 OA
ATOM     19  H10 <0> d          -1.555  -3.746  -4.908  0.00  0.00     0.217 HD
ENDBRANCH  11  18
ENDBRANCH   8  10
ENDBRANCH   3   7
BRANCH   1  20
ATOM     20  C6  <0> d          -0.020   0.004   0.003  0.00  0.00    -0.030 A 
ATOM     21  C1  <0> d          -0.048   1.386   0.014  0.00  0.00     0.011 A 
ATOM     22  C2  <0> d           1.134   2.102   0.001  0.00  0.00     0.019 A 
ATOM     23  C3  <0> d           2.346   1.435  -0.023  0.00  0.00     0.011 A 
ATOM     24  C4  <0> d           2.374   0.052  -0.034  0.00  0.00     0.019 A 
ATOM     25 Br1  <0> d           3.964   2.414  -0.041  0.00  0.00    -0.051 Br
ATOM     26  C5  <0> d           1.191  -0.663  -0.021  0.00  0.00     0.011 A 
ENDBRANCH   1  20
TORSDOF 4
