REMARK  4 active torsions:
REMARK  status: ('A' for Active; 'I' for Inactive)
REMARK    1  A    between atoms: C3_3  and  C17_22 
REMARK    2  A    between atoms: C8_9  and  O3_21 
REMARK    3  A    between atoms: C9_10  and  C11_13 
REMARK    4  A    between atoms: C11_13  and  N1_14 
ROOT
ATOM      1  C1  <0> d          -4.828   1.247   0.056  0.00  0.00     0.077 C 
ATOM      2  C2  <0> d          -3.589   2.104   0.049  0.00  0.00     0.065 A 
ATOM      3  C3  <0> d          -3.730   3.455   0.057  0.00  0.00     0.054 A 
ATOM      4  C4  <0> d          -2.519   4.293   0.050  0.00  0.00     0.198 A 
ATOM      5  O1  <0> d          -2.584   5.510   0.058  0.00  0.00    -0.286 OA
ATOM      6  C5  <0> d          -1.224   3.588   0.033  0.00  0.00     0.050 A 
ATOM      7  C6  <0> d          -0.018   4.290   0.025  0.00  0.00     0.021 A 
ATOM      8  C7  <0> d           1.164   3.607   0.010  0.00  0.00     0.038 A 
ATOM      9  C8  <0> d           1.170   2.213   0.003  0.00  0.00     0.076 A 
ATOM     10  C9  <0> d          -0.018   1.503   0.010  0.00  0.00     0.038 A 
ATOM     11  C10 <0> d          -1.229   2.183   0.020  0.00  0.00     0.100 A 
ATOM     12  O2  <0> d          -2.395   1.507   0.034  0.00  0.00    -0.313 OA
ENDROOT
BRANCH  10  13
ATOM     13  C11 <0> d           0.002  -0.004   0.002  0.00  0.00     0.317 C 
BRANCH  13  14
ATOM     14  N1  <0> d           0.022  -0.501   1.384  0.00  0.00     0.096 N 
ATOM     15  C15 <0> d          -0.196  -1.954   1.425  0.00  0.00     0.300 C 
ATOM     16  C14 <0> d          -0.248  -2.419   2.882  0.00  0.00     0.264 C 
ATOM     17  N2  <0> d           1.009  -2.059   3.553  0.00  0.00    -0.072 N 
ATOM     18  C13 <0> d           1.227  -0.606   3.513  0.00  0.00     0.264 C 
ATOM     19  C16 <0> d           1.029  -2.556   4.935  0.00  0.00     0.269 C 
ATOM     20  H24 <0> d           1.835  -2.542   3.009  0.00  0.00     0.279 HD
ATOM     21  C12 <0> d           1.279  -0.141   2.055  0.00  0.00     0.300 C 
ENDBRANCH  13  14
ENDBRANCH  10  13
BRANCH   9  22
ATOM     22  O3  <0> d           2.352   1.546  -0.012  0.00  0.00    -0.360 OA
ATOM     23  H19 <0> d           2.363   0.446  -0.018  0.00  0.00     0.217 HD
ENDBRANCH   9  22
BRANCH   3  24
ATOM     24  C17 <0> d          -5.078   4.074   0.074  0.00  0.00    -0.019 A 
ATOM     25  C22 <0> d          -5.511   4.835  -1.011  0.00  0.00     0.014 A 
ATOM     26  C21 <0> d          -6.766   5.408  -0.991  0.00  0.00     0.024 A 
ATOM     27  C20 <0> d          -7.594   5.229   0.103  0.00  0.00     0.034 A 
ATOM     28  C19 <0> d          -7.168   4.475   1.184  0.00  0.00     0.024 A 
ATOM     29 Cl1  <0> d          -9.172   5.954   0.122  0.00  0.00    -0.084 Cl
ATOM     30  C18 <0> d          -5.918   3.893   1.171  0.00  0.00     0.014 A 
ENDBRANCH   3  24
TORSDOF 4
