REMARK  3 active torsions:
REMARK  status: ('A' for Active; 'I' for Inactive)
REMARK    1  A    between atoms: C3_3  and  C7_8 
REMARK       I    between atoms: C7_8  and  N1_10 
REMARK    2  A    between atoms: N1_10  and  C8_11 
REMARK    3  A    between atoms: C8_11  and  C9_12 
ROOT
ATOM      1  C7  <0> d           3.657   2.161  -0.022  0.00  0.00     0.252 C 
ATOM      2  O1  <0> d           3.643   3.377  -0.015  0.00  0.00    -0.268 OA
ATOM      3  N1  <0> d           4.832   1.501  -0.036  0.00  0.00    -0.350 N 
ATOM      4  H6  <0> d           4.843   0.531  -0.042  0.00  0.00     0.163 HD
ENDROOT
BRANCH   1   5
ATOM      5  C3  <0> d           2.385   1.407  -0.013  0.00  0.00     0.033 A 
ATOM      6  C2  <0> d           1.167   2.088   0.002  0.00  0.00     0.017 A 
ATOM      7  C1  <0> d          -0.017   1.379   0.010  0.00  0.00     0.002 A 
ATOM      8  C6  <0> d           0.002  -0.004   0.002  0.00  0.00     0.018 A 
ATOM      9  C5  <0> d           1.207  -0.686  -0.013  0.00  0.00     0.007 A 
ATOM     10  C4  <0> d           2.397   0.012  -0.021  0.00  0.00     0.035 A 
ATOM     11  I1  <0> d           1.222  -2.781  -0.025  0.00  0.00    -0.045 I 
ENDBRANCH   1   5
BRANCH   3  12
ATOM     12  C8  <0> d           6.092   2.248  -0.045  0.00  0.00     0.205 C 
BRANCH  12  13
ATOM     13  C9  <0> d           7.248   1.282  -0.061  0.00  0.00     0.165 A 
ATOM     14  N2  <0> d           7.832   0.791  -1.154  0.00  0.00    -0.224 NA
ATOM     15  C10 <0> d           8.802  -0.018  -0.813  0.00  0.00     0.227 A 
ATOM     16  N3  <0> d           8.858  -0.061   0.529  0.00  0.00    -0.270 N 
ATOM     17  H1  <0> d           9.477  -0.577   1.069  0.00  0.00     0.190 HD
ATOM     18  N4  <0> d           7.845   0.794   0.994  0.00  0.00    -0.157 NA
ENDBRANCH  12  13
ENDBRANCH   3  12
TORSDOF 3
