REMARK  3 active torsions:
REMARK  status: ('A' for Active; 'I' for Inactive)
REMARK    1  A    between atoms: C5_5  and  N2_15 
REMARK       I    between atoms: N2_15  and  C13_16 
REMARK    2  A    between atoms: C13_16  and  C14_18 
REMARK       I    between atoms: C14_18  and  N3_20 
REMARK    3  A    between atoms: N3_20  and  C15_21 
ROOT
ATOM      1  C1  <0> d          -0.284   1.792   0.388  0.00  0.00     0.025 C 
ATOM      2  C2  <0> d          -0.121   0.284   0.194  0.00  0.00     0.109 A 
ATOM      3  C3  <0> d          -1.470  -0.393   0.159  0.00  0.00    -0.016 A 
ATOM      4  C4  <0> d          -2.587  -0.318  -0.642  0.00  0.00     0.039 A 
ATOM      5  C5  <0> d          -3.689  -1.123  -0.364  0.00  0.00     0.036 A 
ATOM      6  C6  <0> d          -3.677  -2.006   0.715  0.00  0.00     0.039 A 
ATOM      7  C7  <0> d          -2.564  -2.080   1.511  0.00  0.00    -0.028 A 
ATOM      8  C8  <0> d          -1.467  -1.266   1.223  0.00  0.00     0.050 A 
ATOM      9  N1  <0> d          -0.260  -1.216   1.940  0.00  0.00    -0.316 N 
ATOM     10  C9  <0> d           0.583  -0.333   1.392  0.00  0.00     0.232 A 
ATOM     11  O1  <0> d           1.702  -0.071   1.778  0.00  0.00    -0.272 OA
ATOM     12  C10 <0> d          -0.086  -2.079   3.122  0.00  0.00     0.132 C 
ATOM     13  C11 <0> d          -1.469  -2.359   3.722  0.00  0.00     0.025 C 
ATOM     14  C12 <0> d          -2.420  -2.990   2.702  0.00  0.00     0.042 C 
ENDROOT
BRANCH   5  15
ATOM     15  N2  <0> d          -4.823  -1.045  -1.179  0.00  0.00    -0.319 N 
ATOM     16  C13 <0> d          -4.691  -0.794  -2.496  0.00  0.00     0.313 C 
ATOM     17  O2  <0> d          -3.586  -0.732  -2.994  0.00  0.00    -0.262 OA
ATOM     18  H13 <0> d          -5.705  -1.171  -0.795  0.00  0.00     0.169 HD
BRANCH  16  19
ATOM     19  C14 <0> d          -5.904  -0.594  -3.344  0.00  0.00     0.310 C 
ATOM     20  O3  <0> d          -7.009  -0.656  -2.846  0.00  0.00    -0.262 OA
ATOM     21  N3  <0> d          -5.771  -0.343  -4.661  0.00  0.00    -0.349 N 
ATOM     22  H14 <0> d          -4.888  -0.293  -5.059  0.00  0.00     0.163 HD
BRANCH  21  23
ATOM     23  C15 <0> d          -6.962  -0.146  -5.493  0.00  0.00     0.076 C 
ATOM     24  C16 <0> d          -6.596   0.700  -6.714  0.00  0.00     0.032 C 
ATOM     25  C17 <0> d          -7.492  -1.505  -5.954  0.00  0.00     0.032 C 
ENDBRANCH  21  23
ENDBRANCH  16  19
ENDBRANCH   5  15
TORSDOF 3
