REMARK  4 active torsions:
REMARK  status: ('A' for Active; 'I' for Inactive)
REMARK    1  A    between atoms: C5_5  and  C16_21 
REMARK    2  A    between atoms: C6_6  and  N2_13 
REMARK       I    between atoms: N2_13  and  C11_14 
REMARK    3  A    between atoms: C11_14  and  C12_16 
REMARK    4  A    between atoms: C16_21  and  O4_23 
ROOT
ATOM      1  C1  <0> d          -0.019   1.537   0.011  0.00  0.00     0.046 C 
ATOM      2  C2  <0> d           0.002  -0.004   0.002  0.00  0.00     0.124 C 
ATOM      3  C3  <0> d           0.692  -0.456  -1.291  0.00  0.00     0.079 C 
ATOM      4  C4  <0> d           0.783  -1.972  -1.243  0.00  0.00    -0.021 A 
ATOM      5  C5  <0> d           0.770  -2.879  -2.370  0.00  0.00     0.080 A 
ATOM      6  C6  <0> d           0.861  -4.237  -2.086  0.00  0.00     0.094 A 
ATOM      7  S1  <0> d           0.958  -4.301  -0.410  0.00  0.00    -0.073 SA
ATOM      8  C7  <0> d           0.899  -2.574  -0.037  0.00  0.00     0.027 A 
ATOM      9  C8  <0> d           0.970  -1.894   1.289  0.00  0.00     0.153 C 
ATOM     10  N1  <0> d           0.711  -0.459   1.190  0.00  0.00    -0.054 N 
ATOM     11  C9  <0> d          -0.026  -2.549   2.255  0.00  0.00     0.052 C 
ATOM     12  C10 <0> d           2.387  -2.100   1.861  0.00  0.00     0.052 C 
ATOM     13  C18 <0> d          -1.448  -0.492   0.002  0.00  0.00     0.046 C 
ATOM     14  H6  <0> d           1.602   0.037   1.245  0.00  0.00     0.279 HD
ATOM     15  H23 <0> d           0.182  -0.166   2.015  0.00  0.00     0.279 HD
ENDROOT
BRANCH   6  16
ATOM     16  N2  <0> d           0.870  -5.294  -2.980  0.00  0.00    -0.315 N 
ATOM     17  C11 <0> d           0.965  -6.559  -2.527  0.00  0.00     0.280 C 
ATOM     18  O1  <0> d           1.043  -6.774  -1.332  0.00  0.00    -0.265 OA
ATOM     19  H13 <0> d           0.809  -5.123  -3.933  0.00  0.00     0.170 HD
BRANCH  17  20
ATOM     20  C12 <0> d           0.975  -7.678  -3.474  0.00  0.00     0.142 A 
ATOM     21  O2  <0> d           0.896  -7.580  -4.818  0.00  0.00    -0.317 OA
ATOM     22  C15 <0> d           0.938  -8.806  -5.356  0.00  0.00     0.143 A 
ATOM     23  C14 <0> d           1.036  -9.715  -4.360  0.00  0.00     0.027 A 
ATOM     24  C13 <0> d           1.061  -9.002  -3.151  0.00  0.00     0.045 A 
ENDBRANCH  17  20
ENDBRANCH   6  16
BRANCH   5  25
ATOM     25  C16 <0> d           0.670  -2.401  -3.750  0.00  0.00     0.296 C 
ATOM     26  O3  <0> d           1.679  -2.147  -4.380  0.00  0.00    -0.259 OA
BRANCH  25  27
ATOM     27  O4  <0> d          -0.541  -2.243  -4.323  0.00  0.00    -0.322 OA
ATOM     28  C17 <0> d          -0.564  -1.773  -5.672  0.00  0.00     0.213 C 
ENDBRANCH  25  27
ENDBRANCH   5  25
TORSDOF 4
