REMARK  2 active torsions:
REMARK  status: ('A' for Active; 'I' for Inactive)
REMARK       I    between atoms: N1_4  and  C17_21 
REMARK    1  A    between atoms: C6_8  and  C7_9 
REMARK    2  A    between atoms: C10_12  and  C11_14 
REMARK       I    between atoms: C17_21  and  N2_23 
ROOT
ATOM      1  C1  <0> d          -0.018   1.503   0.010  0.00  0.00     0.050 C 
ATOM      2  C2  <0> d           0.002  -0.004   0.002  0.00  0.00    -0.030 A 
ATOM      3  C3  <0> d           0.009  -0.795  -1.076  0.00  0.00     0.113 A 
ATOM      4  N1  <0> d           0.028  -2.125  -0.710  0.00  0.00    -0.240 N 
ATOM      5  C4  <0> d           0.035  -2.251   0.631  0.00  0.00     0.266 A 
ATOM      6  O1  <0> d           0.052  -3.291   1.264  0.00  0.00    -0.267 OA
ATOM      7  C5  <0> d           0.025  -0.889   1.181  0.00  0.00     0.043 A 
ATOM      8  C6  <0> d           0.033  -0.517   2.519  0.00  0.00     0.055 C 
ATOM      9  C17 <0> d           0.038  -3.158  -1.576  0.00  0.00     0.327 C 
ATOM     10  O3  <0> d           0.029  -2.947  -2.773  0.00  0.00    -0.247 OA
ATOM     11  N2  <0> d           0.057  -4.424  -1.115  0.00  0.00    -0.351 N 
ATOM     12  H12 <0> d           0.064  -4.592  -0.159  0.00  0.00     0.160 HD
ATOM     13  H13 <0> d           0.064  -5.167  -1.738  0.00  0.00     0.160 HD
ENDROOT
BRANCH   8  14
ATOM     14  C7  <0> d           0.056  -1.500   3.522  0.00  0.00     0.077 A 
ATOM     15  O2  <0> d           0.072  -2.835   3.321  0.00  0.00    -0.310 OA
ATOM     16  C10 <0> d           0.095  -3.465   4.509  0.00  0.00     0.086 A 
ATOM     17  C9  <0> d           0.085  -2.516   5.510  0.00  0.00     0.041 A 
ATOM     18  C8  <0> d           0.060  -1.268   4.889  0.00  0.00     0.040 A 
BRANCH  16  19
ATOM     19  C11 <0> d           0.122  -4.926   4.709  0.00  0.00    -0.002 A 
ATOM     20  C16 <0> d           0.130  -5.785   3.606  0.00  0.00     0.015 A 
ATOM     21  C15 <0> d           0.160  -7.150   3.800  0.00  0.00     0.020 A 
ATOM     22  C14 <0> d           0.171  -7.670   5.083  0.00  0.00     0.011 A 
ATOM     23  C13 <0> d           0.157  -6.825   6.180  0.00  0.00     0.020 A 
ATOM     24 Br1  <0> d           0.204  -9.544   5.338  0.00  0.00    -0.051 Br
ATOM     25  C12 <0> d           0.133  -5.458   6.001  0.00  0.00     0.015 A 
ENDBRANCH  16  19
ENDBRANCH   8  14
TORSDOF 2
