REMARK  3 active torsions:
REMARK  status: ('A' for Active; 'I' for Inactive)
REMARK    1  A    between atoms: C5_5  and  C11_13 
REMARK       I    between atoms: C11_13  and  N1_15 
REMARK    2  A    between atoms: N1_15  and  N2_16 
REMARK       I    between atoms: N2_16  and  C12_17 
REMARK    3  A    between atoms: C12_17  and  C13_19 
ROOT
ATOM      1  C11 <0> d           0.970  -3.269   1.612  0.00  0.00     0.253 C 
ATOM      2  O3  <0> d           1.552  -2.998   2.641  0.00  0.00    -0.270 OA
ATOM      3  N1  <0> d           0.789  -4.557   1.259  0.00  0.00    -0.266 N 
ATOM      4  H14 <0> d           0.324  -4.774   0.435  0.00  0.00     0.190 HD
ENDROOT
BRANCH   1   5
ATOM      5  C5  <0> d           0.450  -2.165   0.727  0.00  0.00     0.118 C 
ATOM      6  C4  <0> d           1.039  -2.110  -0.716  0.00  0.00     0.030 C 
ATOM      7  C3  <0> d           0.741  -0.671  -1.199  0.00  0.00     0.020 C 
ATOM      8  C2  <0> d           0.002  -0.004   0.002  0.00  0.00     0.033 C 
ATOM      9  C1  <0> d          -0.019   1.526   0.010  0.00  0.00     0.025 C 
ATOM     10  C6  <0> d           0.727  -0.697   1.210  0.00  0.00    -0.009 C 
ATOM     11  C10 <0> d          -1.367  -0.697   0.065  0.00  0.00     0.205 C 
ATOM     12  C7  <0> d           0.056  -0.375   2.547  0.00  0.00     0.018 C 
ATOM     13  C8  <0> d           2.225  -0.390   1.237  0.00  0.00     0.018 C 
ATOM     14  C9  <0> d          -1.071  -2.107   0.521  0.00  0.00     0.214 C 
ATOM     15  O2  <0> d          -2.441  -0.218  -0.210  0.00  0.00    -0.288 OA
ATOM     16  O1  <0> d          -1.867  -2.998   0.699  0.00  0.00    -0.288 OA
ENDBRANCH   1   5
BRANCH   3  17
ATOM     17  N2  <0> d           1.273  -5.583   2.081  0.00  0.00    -0.263 N 
ATOM     18  C12 <0> d           1.092  -6.871   1.728  0.00  0.00     0.271 C 
ATOM     19  O4  <0> d           0.510  -7.143   0.696  0.00  0.00    -0.266 OA
ATOM     20  H15 <0> d           1.738  -5.366   2.904  0.00  0.00     0.190 HD
BRANCH  18  21
ATOM     21  C13 <0> d           1.602  -7.953   2.595  0.00  0.00     0.055 A 
ATOM     22  C18 <0> d           1.417  -9.290   2.232  0.00  0.00     0.051 A 
ATOM     23  C17 <0> d           1.901 -10.296   3.044  0.00  0.00     0.048 A 
ATOM     24 Cl1  <0> d           0.585  -9.684   0.760  0.00  0.00    -0.083 Cl
ATOM     25  C16 <0> d           2.559  -9.982   4.221  0.00  0.00     0.035 A 
ATOM     26  C15 <0> d           2.740  -8.658   4.589  0.00  0.00     0.025 A 
ATOM     27 Cl2  <0> d           3.159 -11.252   5.241  0.00  0.00    -0.084 Cl
ATOM     28  C14 <0> d           2.267  -7.644   3.784  0.00  0.00     0.020 A 
ENDBRANCH  18  21
ENDBRANCH   3  17
TORSDOF 3
