REMARK  7 active torsions:
REMARK  status: ('A' for Active; 'I' for Inactive)
REMARK    1  A    between atoms: C4_4  and  C7_7 
REMARK    2  A    between atoms: N1_10  and  C10_12 
REMARK    3  A    between atoms: C16_20  and  O3_34 
REMARK    4  A    between atoms: C18_22  and  C19_23 
REMARK    5  A    between atoms: C22_26  and  O1_29 
REMARK    6  A    between atoms: O1_29  and  C25_30 
REMARK    7  A    between atoms: C25_30  and  C26_31 
REMARK       I    between atoms: C26_31  and  N4_33 
ROOT
ATOM      1  C7  <0> d           3.699  -0.689  -0.037  0.00  0.00     0.098 A 
ATOM      2  C8  <0> d           3.998  -1.848   0.674  0.00  0.00     0.030 A 
ATOM      3  C9  <0> d           5.296  -2.202   0.384  0.00  0.00     0.163 A 
ATOM      4  N1  <0> d           5.787  -1.279  -0.478  0.00  0.00    -0.214 N 
ATOM      5  N2  <0> d           4.768  -0.347  -0.735  0.00  0.00    -0.164 NA
ATOM      6  N3  <0> d           5.872  -3.315   0.925  0.00  0.00    -0.209 NA
ATOM      7  C16 <0> d           5.117  -4.206   1.494  0.00  0.00     0.141 C 
ATOM      8  C17 <0> d           3.620  -4.114   1.542  0.00  0.00     0.100 C 
ATOM      9  C18 <0> d           3.149  -2.657   1.622  0.00  0.00     0.065 C 
ENDROOT
BRANCH   9  10
ATOM     10  C19 <0> d           3.321  -2.142   3.028  0.00  0.00    -0.049 A 
ATOM     11  C24 <0> d           2.227  -1.663   3.725  0.00  0.00     0.010 A 
ATOM     12  C23 <0> d           2.381  -1.195   5.016  0.00  0.00     0.037 A 
ATOM     13  C22 <0> d           3.635  -1.196   5.608  0.00  0.00     0.069 A 
ATOM     14  C21 <0> d           4.732  -1.671   4.904  0.00  0.00     0.037 A 
ATOM     15  C20 <0> d           4.572  -2.143   3.615  0.00  0.00     0.010 A 
BRANCH  13  16
ATOM     16  O1  <0> d           3.790  -0.732   6.876  0.00  0.00    -0.342 OA
BRANCH  16  17
ATOM     17  C25 <0> d           2.617  -0.257   7.541  0.00  0.00     0.278 C 
BRANCH  17  18
ATOM     18  C26 <0> d           2.980   0.214   8.925  0.00  0.00     0.239 C 
ATOM     19  O2  <0> d           4.130   0.149   9.306  0.00  0.00    -0.271 OA
ATOM     20  N4  <0> d           2.027   0.706   9.741  0.00  0.00    -0.368 N 
ATOM     21  H19 <0> d           1.108   0.757   9.437  0.00  0.00     0.159 HD
ATOM     22  H20 <0> d           2.261   1.009  10.633  0.00  0.00     0.159 HD
ENDBRANCH  17  18
ENDBRANCH  16  17
ENDBRANCH  13  16
ENDBRANCH   9  10
BRANCH   1  23
ATOM     23  C4  <0> d           2.402   0.033  -0.021  0.00  0.00    -0.005 A 
ATOM     24  C3  <0> d           2.377   1.425   0.040  0.00  0.00     0.014 A 
ATOM     25  C2  <0> d           1.169   2.091   0.054  0.00  0.00     0.001 A 
ATOM     26  C1  <0> d          -0.017   1.379   0.010  0.00  0.00     0.000 A 
ATOM     27  C6  <0> d           0.002  -0.003  -0.050  0.00  0.00     0.001 A 
ATOM     28  C5  <0> d           1.205  -0.679  -0.066  0.00  0.00     0.014 A 
ENDBRANCH   1  23
BRANCH   7  29
ATOM     29  O3  <0> d           5.711  -5.271   2.071  0.00  0.00    -0.348 OA
ATOM     30  H21 <0> d           6.675  -5.268   2.004  0.00  0.00     0.219 HD
ENDBRANCH   7  29
BRANCH   4  31
ATOM     31  C10 <0> d           7.077  -1.261  -1.020  0.00  0.00     0.063 A 
ATOM     32  C15 <0> d           7.280  -0.812  -2.318  0.00  0.00     0.073 A 
ATOM     33  C14 <0> d           8.557  -0.791  -2.849  0.00  0.00     0.118 A 
ATOM     34  C13 <0> d           9.630  -1.228  -2.091  0.00  0.00     0.042 A 
ATOM     35  F1  <0> d           8.757  -0.349  -4.110  0.00  0.00    -0.206 F 
ATOM     36  C12 <0> d           9.429  -1.681  -0.800  0.00  0.00     0.005 A 
ATOM     37  C11 <0> d           8.157  -1.698  -0.263  0.00  0.00     0.032 A 
ENDBRANCH   4  31
TORSDOF 7
