REMARK  7 active torsions:
REMARK  status: ('A' for Active; 'I' for Inactive)
REMARK    1  A    between atoms: N1_2  and  S1_4 
REMARK    2  A    between atoms: S1_4  and  C3_7 
REMARK    3  A    between atoms: C6_10  and  C7_12 
REMARK    4  A    between atoms: C7_12  and  N2_13 
REMARK       I    between atoms: N2_13  and  C8_14 
REMARK    5  A    between atoms: C8_14  and  C9_16 
REMARK    6  A    between atoms: C12_19  and  N4_25 
REMARK    7  A    between atoms: C13_20  and  N3_22 
ROOT
ATOM      1  N2  <0> d           5.588  -1.463  -4.780  0.00  0.00    -0.352 N 
ATOM      2  C8  <0> d           6.589  -1.129  -5.617  0.00  0.00     0.252 C 
ATOM      3  O3  <0> d           7.431  -0.325  -5.268  0.00  0.00    -0.268 OA
ATOM      4  H11 <0> d           4.916  -2.105  -5.059  0.00  0.00     0.163 HD
ENDROOT
BRANCH   1   5
ATOM      5  C7  <0> d           5.513  -0.858  -3.448  0.00  0.00     0.169 C 
BRANCH   5   6
ATOM      6  C6  <0> d           4.310  -1.396  -2.717  0.00  0.00     0.002 A 
ATOM      7  C5  <0> d           4.215  -2.484  -1.915  0.00  0.00     0.018 A 
ATOM      8  C4  <0> d           2.995  -2.792  -1.344  0.00  0.00     0.034 A 
ATOM      9  C3  <0> d           1.929  -1.996  -1.604  0.00  0.00     0.120 A 
ATOM     10  S2  <0> d           2.639  -0.770  -2.690  0.00  0.00    -0.080 SA
BRANCH   9  11
ATOM     11  S1  <0> d           0.271  -2.139  -1.025  0.00  0.00     0.266 S 
ATOM     12  O1  <0> d           0.076  -3.504  -0.683  0.00  0.00    -0.200 OA
ATOM     13  O2  <0> d          -0.549  -1.466  -1.971  0.00  0.00    -0.200 OA
BRANCH  11  14
ATOM     14  N1  <0> d           0.169  -1.279   0.387  0.00  0.00    -0.315 N 
ATOM     15  C1  <0> d          -0.195   0.140   0.355  0.00  0.00     0.162 C 
ATOM     16  C2  <0> d           0.442  -1.937   1.667  0.00  0.00     0.162 C 
ENDBRANCH  11  14
ENDBRANCH   9  11
ENDBRANCH   5   6
ENDBRANCH   1   5
BRANCH   2  17
ATOM     17  C9  <0> d           6.664  -1.739  -6.959  0.00  0.00     0.034 A 
ATOM     18  C14 <0> d           7.702  -1.393  -7.828  0.00  0.00     0.055 A 
ATOM     19  C13 <0> d           7.772  -1.968  -9.077  0.00  0.00     0.130 A 
ATOM     20  C12 <0> d           6.804  -2.884  -9.478  0.00  0.00     0.059 A 
ATOM     21  C11 <0> d           5.765  -3.226  -8.616  0.00  0.00     0.032 A 
ATOM     22  C10 <0> d           5.693  -2.659  -7.364  0.00  0.00     0.019 A 
BRANCH  19  23
ATOM     23  N3  <0> d           8.875  -1.608  -9.996  0.00  0.00    -0.113 N 
ATOM     24  O4  <0> d           9.986  -1.416  -9.560  0.00  0.00    -0.532 OA
ATOM     25  O5  <0> d           8.664  -1.505 -11.182  0.00  0.00    -0.532 OA
ENDBRANCH  19  23
BRANCH  20  26
ATOM     26  N4  <0> d           6.874  -3.459 -10.742  0.00  0.00    -0.397 N 
ATOM     27  H15 <0> d           6.143  -4.008 -11.067  0.00  0.00     0.156 HD
ATOM     28  H16 <0> d           7.654  -3.311 -11.300  0.00  0.00     0.156 HD
ENDBRANCH  20  26
ENDBRANCH   2  17
TORSDOF 7
