REMARK  5 active torsions:
REMARK  status: ('A' for Active; 'I' for Inactive)
REMARK    1  A    between atoms: C2_2  and  C3_3 
REMARK    2  A    between atoms: C3_3  and  C4_4 
REMARK    3  A    between atoms: C4_4  and  C9_10 
REMARK       I    between atoms: C9_10  and  N2_12 
REMARK    4  A    between atoms: N2_12  and  C10_13 
REMARK    5  A    between atoms: C10_13  and  C12_15 
ROOT
ATOM      1  C9  <0> d           1.391  -2.626  -0.176  0.00  0.00     0.228 C 
ATOM      2  O1  <0> d           2.438  -3.227  -0.287  0.00  0.00    -0.273 OA
ATOM      3  N2  <0> d           0.812  -2.498   1.035  0.00  0.00    -0.352 N 
ATOM      4  H18 <0> d           0.014  -1.957   1.137  0.00  0.00     0.163 HD
ENDROOT
BRANCH   1   5
ATOM      5  C4  <0> d           0.735  -2.023  -1.391  0.00  0.00     0.065 C 
ATOM      6  C8  <0> d           1.497  -2.450  -2.647  0.00  0.00     0.251 C 
ATOM      7  N1  <0> d           1.479  -3.913  -2.761  0.00  0.00    -0.074 N 
ATOM      8  C7  <0> d           0.099  -4.383  -2.926  0.00  0.00     0.232 C 
ATOM      9  H15 <0> d           1.874  -4.319  -1.926  0.00  0.00     0.277 HD
ATOM     10  H29 <0> d           2.027  -4.194  -3.560  0.00  0.00     0.277 HD
ATOM     11  C6  <0> d          -0.717  -4.030  -1.680  0.00  0.00     0.029 C 
ATOM     12  C5  <0> d          -0.713  -2.511  -1.488  0.00  0.00     0.022 C 
BRANCH   5  13
ATOM     13  C3  <0> d           0.753  -0.497  -1.277  0.00  0.00     0.020 C 
BRANCH  13  14
ATOM     14  C2  <0> d           2.199  -0.011  -1.158  0.00  0.00    -0.003 C 
ATOM     15  C1  <0> d           2.212   1.499  -0.916  0.00  0.00     0.005 C 
ENDBRANCH  13  14
ENDBRANCH   5  13
ENDBRANCH   1   5
BRANCH   3  16
ATOM     16  C10 <0> d           1.389  -3.178   2.198  0.00  0.00     0.117 C 
ATOM     17  C11 <0> d           2.497  -2.309   2.798  0.00  0.00     0.037 C 
BRANCH  16  18
ATOM     18  C12 <0> d           0.316  -3.406   3.230  0.00  0.00     0.007 A 
ATOM     19  C14 <0> d           0.359  -4.309   4.237  0.00  0.00     0.036 A 
ATOM     20  N4  <0> d          -0.789  -4.199   4.938  0.00  0.00    -0.278 N 
ATOM     21  C15 <0> d           1.488  -5.264   4.527  0.00  0.00     0.070 C 
ATOM     22  N3  <0> d          -1.567  -3.202   4.336  0.00  0.00    -0.184 NA
ATOM     23  C16 <0> d          -1.159  -4.988   6.116  0.00  0.00     0.179 C 
ATOM     24  C13 <0> d          -0.904  -2.727   3.313  0.00  0.00     0.150 A 
ENDBRANCH  16  18
ENDBRANCH   3  16
TORSDOF 5
