REMARK  7 active torsions:
REMARK  status: ('A' for Active; 'I' for Inactive)
REMARK    1  A    between atoms: C5_5  and  N1_7 
REMARK       I    between atoms: N1_7  and  C7_8 
REMARK    2  A    between atoms: C7_8  and  C8_10 
REMARK    3  A    between atoms: C8_10  and  O2_11 
REMARK    4  A    between atoms: O2_11  and  C9_12 
REMARK    5  A    between atoms: C9_12  and  C10_14 
REMARK    6  A    between atoms: C12_16  and  S2_19 
REMARK    7  A    between atoms: S2_19  and  N2_22 
ROOT
ATOM      1  C8  <0> d           2.372   1.127  -0.002  0.00  0.00     0.282 C 
ENDROOT
BRANCH   1   2
ATOM      2  C7  <0> d           3.555   2.061  -0.019  0.00  0.00     0.246 C 
ATOM      3  N1  <0> d           4.807   1.563  -0.035  0.00  0.00    -0.323 N 
ATOM      4  H4  <0> d           4.949   0.606   0.030  0.00  0.00     0.169 HD
ATOM      5  O1  <0> d           3.380   3.262  -0.017  0.00  0.00    -0.271 OA
BRANCH   3   6
ATOM      6  C5  <0> d           5.900   2.425  -0.147  0.00  0.00     0.067 A 
ATOM      7  C4  <0> d           7.059   2.019  -0.869  0.00  0.00     0.123 A 
ATOM      8  C3  <0> d           8.178   2.950  -0.967  0.00  0.00     0.098 A 
ATOM      9  N3  <0> d           7.301   0.876  -1.506  0.00  0.00    -0.189 NA
ATOM     10  C2  <0> d           8.065   4.213  -0.329  0.00  0.00     0.035 A 
ATOM     11  N4  <0> d           9.188   2.445  -1.672  0.00  0.00    -0.191 NA
ATOM     12  C1  <0> d           6.936   4.536   0.348  0.00  0.00     0.005 A 
ATOM     13  C6  <0> d           5.862   3.653   0.440  0.00  0.00     0.032 A 
ATOM     14  S3  <0> d           8.741   1.009  -2.111  0.00  0.00     0.117 SA
ENDBRANCH   3   6
ENDBRANCH   1   2
BRANCH   1  15
ATOM     15  O2  <0> d           1.144   1.902   0.014  0.00  0.00    -0.308 OA
BRANCH  15  16
ATOM     16  C9  <0> d          -0.014   1.212   0.030  0.00  0.00     0.294 C 
ATOM     17  O3  <0> d           0.002  -0.004   0.031  0.00  0.00    -0.259 OA
BRANCH  16  18
ATOM     18  C10 <0> d          -1.297   1.930   0.042  0.00  0.00     0.048 A 
ATOM     19  C13 <0> d          -1.352   3.309   0.041  0.00  0.00     0.068 A 
ATOM     20  S1  <0> d          -3.052   3.639   0.056  0.00  0.00    -0.087 SA
ATOM     21  C12 <0> d          -3.676   1.971   0.063  0.00  0.00     0.120 A 
ATOM     22  C11 <0> d          -2.555   1.225   0.048  0.00  0.00     0.051 A 
BRANCH  21  23
ATOM     23  S2  <0> d          -5.353   1.429   0.078  0.00  0.00     0.263 S 
ATOM     24  O4  <0> d          -6.127   2.489  -0.466  0.00  0.00    -0.200 OA
ATOM     25  O5  <0> d          -5.361   0.119  -0.472  0.00  0.00    -0.200 OA
BRANCH  23  26
ATOM     26  N2  <0> d          -5.804   1.279   1.665  0.00  0.00    -0.324 N 
ATOM     27  H9  <0> d          -5.171   1.482   2.370  0.00  0.00     0.169 HD
ATOM     28  H10 <0> d          -6.703   0.989   1.887  0.00  0.00     0.169 HD
ENDBRANCH  23  26
ENDBRANCH  21  23
ENDBRANCH  16  18
ENDBRANCH  15  16
ENDBRANCH   1  15
TORSDOF 7
