REMARK  6 active torsions:
REMARK  status: ('A' for Active; 'I' for Inactive)
REMARK    1  A    between atoms: C2_2  and  C5_5 
REMARK       I    between atoms: C5_5  and  N1_7 
REMARK    2  A    between atoms: C8_10  and  C17_21 
REMARK    3  A    between atoms: C9_11  and  C11_13 
REMARK    4  A    between atoms: C11_13  and  C12_14 
REMARK    5  A    between atoms: C12_14  and  N2_15 
REMARK    6  A    between atoms: C17_21  and  C18_22 
ROOT
ATOM      1  C5  <0> d          -0.999   1.521   0.097  0.00  0.00     0.227 C 
ATOM      2  O1  <0> d          -0.507   2.616   0.267  0.00  0.00    -0.273 OA
ATOM      3  N1  <0> d          -0.214   0.425   0.076  0.00  0.00    -0.351 N 
ATOM      4  C6  <0> d          -0.804  -0.917  -0.018  0.00  0.00     0.126 C 
ATOM      5  C7  <0> d          -0.167  -1.653  -1.201  0.00  0.00     0.025 C 
ATOM      6  C8  <0> d           1.355  -1.645  -1.042  0.00  0.00     0.003 C 
ATOM      7  C9  <0> d           1.862  -0.201  -1.042  0.00  0.00     0.010 C 
ATOM      8  C10 <0> d           1.248   0.551   0.142  0.00  0.00     0.130 C 
ENDROOT
BRANCH   7   9
ATOM      9  C11 <0> d           1.455   0.483  -2.349  0.00  0.00     0.037 C 
BRANCH   9  10
ATOM     10  C12 <0> d           2.067   1.884  -2.403  0.00  0.00     0.273 C 
BRANCH  10  11
ATOM     11  N2  <0> d           1.677   2.541  -3.658  0.00  0.00     0.091 N 
ATOM     12  C16 <0> d           2.044   3.964  -3.643  0.00  0.00     0.300 C 
ATOM     13  C15 <0> d           1.693   4.592  -4.994  0.00  0.00     0.262 C 
ATOM     14  N3  <0> d           0.256   4.424  -5.251  0.00  0.00    -0.072 N 
ATOM     15  C14 <0> d          -0.111   3.001  -5.265  0.00  0.00     0.262 C 
ATOM     16  H26 <0> d           0.016   4.875  -6.226  0.00  0.00     0.277 HD
ATOM     17  H33 <0> d          -0.308   4.940  -4.460  0.00  0.00     0.277 HD
ATOM     18  C13 <0> d           0.240   2.373  -3.914  0.00  0.00     0.300 C 
ENDBRANCH  10  11
ENDBRANCH   9  10
ENDBRANCH   7   9
BRANCH   6  19
ATOM     19  C17 <0> d           1.993  -2.409  -2.204  0.00  0.00     0.118 C 
BRANCH  19  20
ATOM     20  C18 <0> d           1.592  -3.860  -2.132  0.00  0.00     0.172 C 
ATOM     21  O2  <0> d           0.870  -4.244  -1.243  0.00  0.00    -0.648 OA
ATOM     22  O3  <0> d           2.037  -4.726  -3.056  0.00  0.00    -0.648 OA
ENDBRANCH  19  20
ENDBRANCH   6  19
BRANCH   1  23
ATOM     23  C2  <0> d          -2.488   1.384  -0.092  0.00  0.00     0.030 C 
ATOM     24  C1  <0> d          -3.134   2.771  -0.076  0.00  0.00     0.025 C 
ATOM     25  C3  <0> d          -2.772   0.705  -1.434  0.00  0.00     0.025 C 
ATOM     26  C4  <0> d          -3.070   0.537   1.041  0.00  0.00     0.025 C 
ENDBRANCH   1  23
TORSDOF 6
