REMARK  8 active torsions:
REMARK  status: ('A' for Active; 'I' for Inactive)
REMARK    1  A    between atoms: O1_2  and  C2_3 
REMARK    2  A    between atoms: C2_3  and  C3_4 
REMARK    3  A    between atoms: C3_4  and  N1_5 
REMARK       I    between atoms: N1_5  and  C4_6 
REMARK    4  A    between atoms: C4_6  and  C5_8 
REMARK    5  A    between atoms: C5_8  and  N2_9 
REMARK       I    between atoms: N2_9  and  C6_10 
REMARK    6  A    between atoms: C6_10  and  C7_12 
REMARK    7  A    between atoms: C10_15  and  C13_18 
REMARK    8  A    between atoms: C13_18  and  N3_19 
ROOT
ATOM      1  C7  <0> d           2.860  -7.830  -2.896  0.00  0.00     0.032 A 
ATOM      2  C8  <0> d           2.154  -8.584  -1.957  0.00  0.00     0.017 A 
ATOM      3  C9  <0> d           2.121  -9.959  -2.064  0.00  0.00     0.010 A 
ATOM      4  C10 <0> d           2.786 -10.591  -3.099  0.00  0.00    -0.040 A 
ATOM      5  C11 <0> d           3.489  -9.850  -4.033  0.00  0.00     0.010 A 
ATOM      6  C12 <0> d           3.525  -8.474  -3.941  0.00  0.00     0.017 A 
ENDROOT
BRANCH   1   7
ATOM      7  C6  <0> d           2.900  -6.357  -2.787  0.00  0.00     0.252 C 
ATOM      8  N2  <0> d           2.257  -5.738  -1.776  0.00  0.00    -0.348 N 
ATOM      9  H11 <0> d           1.769  -6.260  -1.121  0.00  0.00     0.163 HD
ATOM     10  O3  <0> d           3.512  -5.703  -3.609  0.00  0.00    -0.268 OA
BRANCH   8  11
ATOM     11  C5  <0> d           2.296  -4.277  -1.669  0.00  0.00     0.225 C 
BRANCH  11  12
ATOM     12  C4  <0> d           1.505  -3.841  -0.462  0.00  0.00     0.235 C 
ATOM     13  N1  <0> d           1.401  -2.532  -0.162  0.00  0.00    -0.358 N 
ATOM     14  H8  <0> d           1.835  -1.870  -0.723  0.00  0.00     0.162 HD
ATOM     15  O2  <0> d           0.963  -4.669   0.239  0.00  0.00    -0.272 OA
BRANCH  13  16
ATOM     16  C3  <0> d           0.633  -2.108   1.011  0.00  0.00     0.148 C 
BRANCH  16  17
ATOM     17  C2  <0> d           0.673  -0.582   1.123  0.00  0.00     0.186 C 
BRANCH  17  18
ATOM     18  O1  <0> d           0.002  -0.004   0.002  0.00  0.00    -0.394 OA
ATOM     19  C1  <0> d          -0.017   1.425   0.010  0.00  0.00     0.201 C 
ENDBRANCH  17  18
ENDBRANCH  16  17
ENDBRANCH  13  16
ENDBRANCH  11  12
ENDBRANCH   8  11
ENDBRANCH   1   7
BRANCH   4  20
ATOM     20  C13 <0> d           2.746 -12.094  -3.210  0.00  0.00     0.171 C 
BRANCH  20  21
ATOM     21  N3  <0> d           1.599 -12.492  -4.029  0.00  0.00    -0.304 N 
ATOM     22  C21 <0> d           1.744 -12.622  -5.369  0.00  0.00     0.261 A 
ATOM     23  C20 <0> d           0.560 -13.030  -6.141  0.00  0.00     0.061 A 
ATOM     24  O4  <0> d           2.812 -12.413  -5.912  0.00  0.00    -0.267 OA
ATOM     25  C15 <0> d          -0.646 -13.248  -5.440  0.00  0.00     0.073 A 
ATOM     26  C19 <0> d           0.604 -13.196  -7.524  0.00  0.00     0.019 A 
ATOM     27  N4  <0> d          -0.664 -13.080  -4.094  0.00  0.00    -0.243 NA
ATOM     28  C16 <0> d          -1.788 -13.631  -6.146  0.00  0.00     0.032 A 
ATOM     29  C14 <0> d           0.398 -12.724  -3.438  0.00  0.00     0.213 A 
ATOM     30  C17 <0> d          -1.724 -13.790  -7.512  0.00  0.00     0.002 A 
ATOM     31  C18 <0> d          -0.536 -13.574  -8.198  0.00  0.00     0.001 A 
ENDBRANCH  20  21
ENDBRANCH   4  20
TORSDOF 8
