REMARK  6 active torsions:
REMARK  status: ('A' for Active; 'I' for Inactive)
REMARK    1  A    between atoms: C6_6  and  C10_11 
REMARK       I    between atoms: C10_11  and  N2_13 
REMARK    2  A    between atoms: N2_13  and  C11_14 
REMARK    3  A    between atoms: C11_14  and  C12_15 
REMARK    4  A    between atoms: C12_15  and  C13_16 
REMARK    5  A    between atoms: C13_16  and  N3_17 
REMARK    6  A    between atoms: N3_17  and  C15_19 
ROOT
ATOM      1  C10 <0> d          -3.524  -3.447   3.505  0.00  0.00     0.251 C 
ATOM      2  O1  <0> d          -4.592  -3.484   2.925  0.00  0.00    -0.268 OA
ATOM      3  N2  <0> d          -3.368  -4.105   4.671  0.00  0.00    -0.357 N 
ATOM      4  H8  <0> d          -2.516  -4.076   5.134  0.00  0.00     0.162 HD
ENDROOT
BRANCH   1   5
ATOM      5  C6  <0> d          -2.400  -2.684   2.933  0.00  0.00     0.033 A 
ATOM      6  C5  <0> d          -2.574  -2.017   1.742  0.00  0.00     0.031 A 
ATOM      7  C4  <0> d          -1.502  -1.278   1.177  0.00  0.00    -0.005 A 
ATOM      8  C3  <0> d          -1.409  -0.544   0.038  0.00  0.00    -0.049 A 
ATOM      9  C9  <0> d          -0.204  -1.235   1.884  0.00  0.00     0.039 A 
ATOM     10  C2  <0> d           0.002  -0.004   0.002  0.00  0.00     0.107 A 
ATOM     11  C21 <0> d          -2.493  -0.316  -0.984  0.00  0.00     0.046 C 
ATOM     12  C1  <0> d          -0.019   1.526   0.010  0.00  0.00     0.037 C 
ATOM     13  N1  <0> d           0.658  -0.507   1.213  0.00  0.00    -0.381 N 
ATOM     14  H32 <0> d           1.576  -0.331   1.474  0.00  0.00     0.160 HD
ATOM     15  C8  <0> d          -0.072  -1.962   3.152  0.00  0.00     0.031 A 
ATOM     16  C7  <0> d          -1.125  -2.649   3.641  0.00  0.00     0.019 A 
ENDBRANCH   1   5
BRANCH   3  17
ATOM     17  C11 <0> d          -4.485  -4.864   5.240  0.00  0.00     0.124 C 
BRANCH  17  18
ATOM     18  C12 <0> d          -4.045  -5.510   6.555  0.00  0.00     0.047 C 
BRANCH  18  19
ATOM     19  C13 <0> d          -5.212  -6.302   7.149  0.00  0.00     0.236 C 
BRANCH  19  20
ATOM     20  N3  <0> d          -4.790  -6.922   8.412  0.00  0.00    -0.071 N 
ATOM     21  C14 <0> d          -3.742  -7.915   8.144  0.00  0.00     0.270 C 
ATOM     22  H33 <0> d          -4.430  -6.211   9.032  0.00  0.00     0.279 HD
BRANCH  20  23
ATOM     23  C15 <0> d          -5.941  -7.582   9.042  0.00  0.00     0.187 C 
ATOM     24  C20 <0> d          -5.502  -8.228  10.358  0.00  0.00     0.033 C 
ATOM     25  C19 <0> d          -6.701  -8.916  11.013  0.00  0.00     0.002 C 
ATOM     26  C18 <0> d          -7.793  -7.881  11.293  0.00  0.00     0.000 C 
ATOM     27  C17 <0> d          -8.232  -7.236   9.977  0.00  0.00     0.002 C 
ATOM     28  C16 <0> d          -7.033  -6.548   9.321  0.00  0.00     0.033 C 
ENDBRANCH  20  23
ENDBRANCH  19  20
ENDBRANCH  18  19
ENDBRANCH  17  18
ENDBRANCH   3  17
TORSDOF 6
