REMARK  7 active torsions:
REMARK  status: ('A' for Active; 'I' for Inactive)
REMARK    1  A    between atoms: C4_4  and  N1_7 
REMARK    2  A    between atoms: N1_7  and  C7_8 
REMARK    3  A    between atoms: N1_7  and  C10_12 
REMARK    4  A    between atoms: C7_8  and  C8_9 
REMARK    5  A    between atoms: C10_12  and  C11_13 
REMARK    6  A    between atoms: C10_12  and  C12_15 
REMARK    7  A    between atoms: C11_13  and  N3_14 
ROOT
ATOM      1  C8  <0> d           2.505   0.727  -0.992  0.00  0.00     0.143 C 
ATOM      2  C9  <0> d           1.367   1.643  -0.817  0.00  0.00     0.060 C 
ATOM      3  N2  <0> d           0.488   2.350  -0.681  0.00  0.00    -0.197 NA
ENDROOT
BRANCH   1   4
ATOM      4  C7  <0> d           2.927   0.172   0.370  0.00  0.00     0.138 C 
BRANCH   4   5
ATOM      5  N1  <0> d           4.060  -0.740   0.196  0.00  0.00    -0.369 N 
BRANCH   5   6
ATOM      6  C4  <0> d           5.367  -0.265   0.334  0.00  0.00     0.030 A 
ATOM      7  C3  <0> d           5.593   1.029   0.784  0.00  0.00     0.029 A 
ATOM      8  C2  <0> d           6.886   1.496   0.919  0.00  0.00     0.002 A 
ATOM      9  C1  <0> d           7.955   0.675   0.607  0.00  0.00     0.000 A 
ATOM     10  C6  <0> d           7.733  -0.614   0.159  0.00  0.00     0.002 A 
ATOM     11  C5  <0> d           6.442  -1.086   0.021  0.00  0.00     0.029 A 
ENDBRANCH   5   6
BRANCH   5  12
ATOM     12  C10 <0> d           3.824  -2.150  -0.122  0.00  0.00     0.144 C 
BRANCH  12  13
ATOM     13  C11 <0> d           4.475  -3.031   0.946  0.00  0.00     0.259 C 
BRANCH  13  14
ATOM     14  N3  <0> d           3.956  -2.661   2.269  0.00  0.00    -0.077 N 
ATOM     15  H13 <0> d           4.169  -1.692   2.456  0.00  0.00     0.274 HD
ATOM     16  H14 <0> d           2.956  -2.795   2.288  0.00  0.00     0.274 HD
ATOM     17  H19 <0> d           4.386  -3.242   2.974  0.00  0.00     0.274 HD
ENDBRANCH  13  14
ENDBRANCH  12  13
BRANCH  12  18
ATOM     18  C12 <0> d           4.421  -2.468  -1.469  0.00  0.00    -0.016 A 
ATOM     19  C17 <0> d           4.069  -3.635  -2.123  0.00  0.00     0.019 A 
ATOM     20  C16 <0> d           4.614  -3.925  -3.361  0.00  0.00     0.019 A 
ATOM     21 Br1  <0> d           2.839  -4.831  -1.328  0.00  0.00    -0.050 Br
ATOM     22  C15 <0> d           5.517  -3.053  -3.939  0.00  0.00     0.001 A 
ATOM     23  C14 <0> d           5.872  -1.889  -3.282  0.00  0.00     0.001 A 
ATOM     24  C13 <0> d           5.324  -1.597  -2.047  0.00  0.00     0.011 A 
ENDBRANCH  12  18
ENDBRANCH   5  12
ENDBRANCH   4   5
ENDBRANCH   1   4
TORSDOF 7
