REMARK  4 active torsions:
REMARK  status: ('A' for Active; 'I' for Inactive)
REMARK       I    between atoms: N2_5  and  C6_8 
REMARK    1  A    between atoms: C6_8  and  C7_10 
REMARK    2  A    between atoms: C13_17  and  C19_23 
REMARK    3  A    between atoms: C21_25  and  N4_30 
REMARK    4  A    between atoms: C24_28  and  O2_29 
ROOT
ATOM      1  C7  <0> d          -0.764   7.161   1.822  0.00  0.00     0.059 A 
ATOM      2  C8  <0> d          -2.117   7.303   2.123  0.00  0.00     0.019 A 
ATOM      3  C9  <0> d          -3.006   6.305   1.790  0.00  0.00     0.002 A 
ATOM      4  C10 <0> d          -2.554   5.163   1.150  0.00  0.00     0.010 A 
ATOM      5  C11 <0> d          -1.220   5.009   0.840  0.00  0.00    -0.022 A 
ATOM      6  C12 <0> d          -0.293   5.998   1.178  0.00  0.00     0.051 A 
ATOM      7  N3  <0> d           1.068   5.903   0.942  0.00  0.00    -0.379 N 
ATOM      8  C13 <0> d           1.538   4.712   0.184  0.00  0.00     0.123 C 
ATOM      9  C14 <0> d           0.720   3.540   0.687  0.00  0.00     0.028 C 
ATOM     10  C15 <0> d          -0.719   3.804   0.143  0.00  0.00     0.050 C 
ATOM     11  C16 <0> d          -1.378   2.482   0.276  0.00  0.00    -0.021 C 
ATOM     12  C17 <0> d          -0.448   1.536   0.194  0.00  0.00    -0.029 C 
ATOM     13  C18 <0> d           0.932   2.175   0.023  0.00  0.00     0.035 C 
ATOM     14  H18 <0> d           1.792   6.657   1.285  0.00  0.00     0.160 HD
ENDROOT
BRANCH   8  15
ATOM     15  C19 <0> d           1.316   4.896  -1.295  0.00  0.00     0.000 A 
ATOM     16  C24 <0> d           2.100   4.204  -2.206  0.00  0.00     0.074 A 
ATOM     17  C23 <0> d           1.893   4.377  -3.567  0.00  0.00     0.039 A 
ATOM     18  C22 <0> d           0.907   5.236  -4.011  0.00  0.00     0.039 A 
ATOM     19  C21 <0> d           0.126   5.924  -3.101  0.00  0.00     0.103 A 
ATOM     20  C20 <0> d           0.327   5.750  -1.744  0.00  0.00     0.048 A 
BRANCH  16  21
ATOM     21  O2  <0> d           3.070   3.360  -1.767  0.00  0.00    -0.360 OA
ATOM     22  H26 <0> d           3.692   2.812  -2.490  0.00  0.00     0.217 HD
ENDBRANCH  16  21
BRANCH  19  23
ATOM     23  N4  <0> d          -0.930   6.844  -3.579  0.00  0.00    -0.116 N 
ATOM     24  O3  <0> d          -1.111   6.994  -4.774  0.00  0.00    -0.532 OA
ATOM     25  O4  <0> d          -1.618   7.451  -2.778  0.00  0.00    -0.532 OA
ENDBRANCH  19  23
ENDBRANCH   8  15
BRANCH   1  26
ATOM     26  C6  <0> d           0.183   8.233   2.182  0.00  0.00     0.256 C 
ATOM     27  N2  <0> d           0.242   8.682   3.451  0.00  0.00    -0.345 N 
ATOM     28  C3  <0> d           1.086   9.833   3.806  0.00  0.00     0.154 C 
ATOM     29  C4  <0> d          -0.539   8.037   4.517  0.00  0.00     0.154 C 
ATOM     30  C2  <0> d           1.967   9.442   4.998  0.00  0.00     0.254 C 
ATOM     31  N1  <0> d           1.118   8.935   6.085  0.00  0.00    -0.072 N 
ATOM     32  C1  <0> d           1.904   8.711   7.305  0.00  0.00     0.269 C 
ATOM     33  C5  <0> d           0.410   7.713   5.682  0.00  0.00     0.254 C 
ATOM     34  H27 <0> d           0.361   9.703   6.304  0.00  0.00     0.279 HD
ATOM     35  O1  <0> d           0.909   8.713   1.333  0.00  0.00    -0.267 OA
ENDBRANCH   1  26
TORSDOF 4
