REMARK  4 active torsions:
REMARK  status: ('A' for Active; 'I' for Inactive)
REMARK    1  A    between atoms: C4_4  and  C5_7 
REMARK    2  A    between atoms: C5_7  and  S1_8 
REMARK    3  A    between atoms: S1_8  and  N2_11 
REMARK    4  A    between atoms: C10_16  and  N3_20 
ROOT
ATOM      1  N2  <0> d          -2.813  -5.202  -1.591  0.00  0.00    -0.310 N 
ATOM      2  C6  <0> d          -2.333  -6.591  -1.527  0.00  0.00     0.140 C 
ATOM      3  C7  <0> d          -3.586  -7.498  -1.385  0.00  0.00     0.010 C 
ATOM      4  C8  <0> d          -3.809  -7.697   0.116  0.00  0.00     0.009 C 
ATOM      5  C9  <0> d          -5.221  -8.202   0.398  0.00  0.00     0.033 C 
ATOM      6  C10 <0> d          -6.219  -7.139  -0.074  0.00  0.00     0.184 C 
ATOM      7  C11 <0> d          -6.084  -7.001  -1.590  0.00  0.00     0.039 C 
ATOM      8  C12 <0> d          -4.683  -6.613  -2.007  0.00  0.00     0.012 C 
ATOM      9  C13 <0> d          -4.290  -5.207  -1.515  0.00  0.00     0.140 C 
ENDROOT
BRANCH   1  10
ATOM     10  S1  <0> d          -1.858  -3.855  -1.721  0.00  0.00     0.234 S 
ATOM     11  O2  <0> d          -2.687  -2.881  -2.341  0.00  0.00    -0.205 OA
ATOM     12  O3  <0> d          -0.674  -4.311  -2.359  0.00  0.00    -0.205 OA
BRANCH  10  13
ATOM     13  C5  <0> d          -1.500  -3.372  -0.010  0.00  0.00     0.224 C 
BRANCH  13  14
ATOM     14  C4  <0> d          -0.627  -2.143  -0.007  0.00  0.00     0.080 A 
ATOM     15  C3  <0> d          -1.077  -0.810   0.003  0.00  0.00     0.065 A 
ATOM     16  C2  <0> d           0.002  -0.004   0.002  0.00  0.00     0.077 A 
ATOM     17  C1  <0> d          -0.018   1.503   0.010  0.00  0.00     0.079 C 
ATOM     18  O1  <0> d           1.098  -0.778  -0.013  0.00  0.00    -0.218 OA
ATOM     19  N1  <0> d           0.676  -2.130  -0.013  0.00  0.00    -0.132 NA
ENDBRANCH  13  14
ENDBRANCH  10  13
ENDBRANCH   1  10
BRANCH   6  20
ATOM     20  N3  <0> d          -7.586  -7.556   0.266  0.00  0.00    -0.075 N 
ATOM     21  H20 <0> d          -7.664  -7.667   1.266  0.00  0.00     0.274 HD
ATOM     22  H21 <0> d          -8.240  -6.854  -0.046  0.00  0.00     0.274 HD
ATOM     23  H22 <0> d          -7.793  -8.433  -0.187  0.00  0.00     0.274 HD
ENDBRANCH   6  20
TORSDOF 4
