REMARK  2 active torsions:
REMARK  status: ('A' for Active; 'I' for Inactive)
REMARK    1  A    between atoms: C4_4  and  C18_21 
REMARK       I    between atoms: N1_11  and  C11_12 
REMARK    2  A    between atoms: C11_12  and  C12_14 
REMARK       I    between atoms: C18_21  and  N2_23 
ROOT
ATOM      1  C1  <0> d          -0.181   2.309   1.634  0.00  0.00     0.033 C 
ATOM      2  C2  <0> d          -0.184   1.003   0.836  0.00  0.00     0.090 C 
ATOM      3  C3  <0> d           0.455   1.234  -0.539  0.00  0.00     0.044 C 
ATOM      4  C4  <0> d           1.862   1.799  -0.343  0.00  0.00     0.114 C 
ATOM      5  C5  <0> d           2.645   0.941   0.616  0.00  0.00    -0.018 A 
ATOM      6  C6  <0> d           4.028   1.012   0.602  0.00  0.00     0.010 A 
ATOM      7  C7  <0> d           4.774   0.239   1.471  0.00  0.00     0.001 A 
ATOM      8  C8  <0> d           4.144  -0.610   2.362  0.00  0.00     0.002 A 
ATOM      9  C9  <0> d           2.766  -0.686   2.382  0.00  0.00     0.030 A 
ATOM     10  C10 <0> d           2.013   0.089   1.507  0.00  0.00     0.045 A 
ATOM     11  N1  <0> d           0.614  -0.011   1.539  0.00  0.00    -0.309 N 
ATOM     12  C11 <0> d           0.012  -1.018   2.201  0.00  0.00     0.260 C 
ATOM     13  O1  <0> d           0.675  -1.791   2.865  0.00  0.00    -0.267 OA
ENDROOT
BRANCH  12  14
ATOM     14  C12 <0> d          -1.454  -1.184   2.119  0.00  0.00     0.049 A 
ATOM     15  C17 <0> d          -2.172  -1.632   3.231  0.00  0.00     0.026 A 
ATOM     16  C16 <0> d          -3.543  -1.780   3.148  0.00  0.00     0.020 A 
ATOM     17 Br1  <0> d          -1.271  -2.028   4.845  0.00  0.00    -0.050 Br
ATOM     18  C15 <0> d          -4.202  -1.496   1.966  0.00  0.00     0.001 A 
ATOM     19  C14 <0> d          -3.495  -1.056   0.860  0.00  0.00     0.001 A 
ATOM     20  C13 <0> d          -2.127  -0.899   0.930  0.00  0.00     0.018 A 
ENDBRANCH  12  14
BRANCH   4  21
ATOM     21  C18 <0> d           2.573   1.836  -1.671  0.00  0.00     0.224 C 
ATOM     22  O2  <0> d           2.387   0.955  -2.483  0.00  0.00    -0.273 OA
ATOM     23  N2  <0> d           3.416   2.848  -1.955  0.00  0.00    -0.370 N 
ATOM     24  H16 <0> d           3.511   3.589  -1.336  0.00  0.00     0.159 HD
ATOM     25  H17 <0> d           3.928   2.836  -2.779  0.00  0.00     0.159 HD
ENDBRANCH   4  21
TORSDOF 2
