REMARK  3 active torsions:
REMARK  status: ('A' for Active; 'I' for Inactive)
REMARK    1  A    between atoms: C5_5  and  S1_8 
REMARK    2  A    between atoms: C6_6  and  N1_7 
REMARK    3  A    between atoms: S1_8  and  C7_9 
ROOT
ATOM      1  C1  <0> d           0.012   1.386   0.197  0.00  0.00     0.040 A 
ATOM      2  C2  <0> d           1.156   2.086  -0.124  0.00  0.00    -0.020 A 
ATOM      3  C3  <0> d           2.341   1.424  -0.418  0.00  0.00     0.043 A 
ATOM      4  C4  <0> d           2.365   0.031  -0.386  0.00  0.00     0.051 A 
ATOM      5  C5  <0> d           1.219  -0.678  -0.065  0.00  0.00     0.036 A 
ATOM      6  C6  <0> d           0.035  -0.000   0.230  0.00  0.00     0.043 A 
ATOM      7  N4  <0> d           3.350   2.346  -0.710  0.00  0.00    -0.326 N 
ATOM      8  C9  <0> d           2.916   3.615  -0.631  0.00  0.00     0.226 A 
ATOM      9  O1  <0> d           3.572   4.615  -0.832  0.00  0.00    -0.273 OA
ATOM     10  C10 <0> d           1.453   3.563  -0.244  0.00  0.00     0.144 A 
ATOM     11  H6  <0> d           4.258   2.099  -0.942  0.00  0.00     0.169 HD
ENDROOT
BRANCH   5  12
ATOM     12  S1  <0> d           1.257  -2.439  -0.026  0.00  0.00    -0.059 SA
BRANCH  12  13
ATOM     13  C7  <0> d           2.967  -2.832  -0.193  0.00  0.00     0.163 A 
ATOM     14  S2  <0> d           3.769  -4.420  -0.397  0.00  0.00    -0.052 SA
ATOM     15  C8  <0> d           5.440  -3.779  -0.471  0.00  0.00     0.193 A 
ATOM     16  N3  <0> d           5.199  -2.492  -0.330  0.00  0.00    -0.154 NA
ATOM     17  N2  <0> d           4.029  -2.037  -0.197  0.00  0.00    -0.135 NA
ENDBRANCH  12  13
ENDBRANCH   5  12
BRANCH   6  18
ATOM     18  N1  <0> d          -1.124  -0.717   0.556  0.00  0.00    -0.398 N 
ATOM     19  H3  <0> d          -1.946  -0.243   0.760  0.00  0.00     0.156 HD
ATOM     20  H4  <0> d          -1.105  -1.687   0.579  0.00  0.00     0.156 HD
ENDBRANCH   6  18
TORSDOF 3
