REMARK  6 active torsions:
REMARK  status: ('A' for Active; 'I' for Inactive)
REMARK    1  A    between atoms: C4_4  and  N1_11 
REMARK    2  A    between atoms: C5_5  and  O1_9 
REMARK       I    between atoms: N1_11  and  C9_12 
REMARK    3  A    between atoms: C9_12  and  C10_14 
REMARK    4  A    between atoms: C10_14  and  S1_16 
REMARK    5  A    between atoms: S1_16  and  C12_18 
REMARK    6  A    between atoms: C12_18  and  C13_19 
ROOT
ATOM      1  N1  <0> d           0.028  -2.768  -2.427  0.00  0.00    -0.324 N 
ATOM      2  C9  <0> d          -0.089  -2.093  -3.588  0.00  0.00     0.238 C 
ATOM      3  O2  <0> d          -0.106  -0.880  -3.585  0.00  0.00    -0.272 OA
ATOM      4  H10 <0> d           0.123  -3.733  -2.434  0.00  0.00     0.169 HD
ENDROOT
BRANCH   2   5
ATOM      5  C10 <0> d          -0.199  -2.845  -4.889  0.00  0.00     0.167 C 
ATOM      6  C11 <0> d          -1.659  -3.229  -5.134  0.00  0.00     0.034 C 
BRANCH   5   7
ATOM      7  S1  <0> d           0.386  -1.794  -6.246  0.00  0.00     0.032 S 
ATOM      8  O3  <0> d           1.787  -1.592  -6.119  0.00  0.00    -0.257 OA
BRANCH   7   9
ATOM      9  C12 <0> d           0.050  -2.773  -7.736  0.00  0.00     0.152 C 
BRANCH   9  10
ATOM     10  C13 <0> d           0.495  -2.005  -8.953  0.00  0.00     0.011 A 
ATOM     11  C15 <0> d           1.717  -2.055  -9.517  0.00  0.00     0.084 A 
ATOM     12  O4  <0> d           1.718  -1.234 -10.579  0.00  0.00    -0.217 OA
ATOM     13  C16 <0> d           2.878  -2.890  -9.041  0.00  0.00     0.079 C 
ATOM     14  N2  <0> d           0.436  -0.640 -10.670  0.00  0.00    -0.133 NA
ATOM     15  C14 <0> d          -0.292  -1.105  -9.695  0.00  0.00     0.068 A 
ATOM     16  C17 <0> d          -1.727  -0.743  -9.411  0.00  0.00     0.073 C 
ENDBRANCH   9  10
ENDBRANCH   7   9
ENDBRANCH   5   7
ENDBRANCH   2   5
BRANCH   1  17
ATOM     17  C4  <0> d           0.014  -2.075  -1.209  0.00  0.00     0.069 A 
ATOM     18  C3  <0> d          -0.610  -0.839  -1.119  0.00  0.00     0.041 A 
ATOM     19  C2  <0> d          -0.624  -0.157   0.083  0.00  0.00    -0.038 A 
ATOM     20  C1  <0> d          -1.302   1.185   0.178  0.00  0.00     0.050 C 
ATOM     21  C7  <0> d          -0.012  -0.702   1.198  0.00  0.00     0.042 A 
ATOM     22  C6  <0> d           0.608  -1.937   1.117  0.00  0.00     0.063 A 
ATOM     23 Cl1  <0> d          -0.026   0.163   2.703  0.00  0.00    -0.084 Cl
ATOM     24  C5  <0> d           0.626  -2.626  -0.085  0.00  0.00     0.096 A 
BRANCH  24  25
ATOM     25  O1  <0> d           1.238  -3.837  -0.167  0.00  0.00    -0.354 OA
ATOM     26  C8  <0> d           1.844  -4.339   1.026  0.00  0.00     0.210 C 
ENDBRANCH  24  25
ENDBRANCH   1  17
TORSDOF 6
