REMARK  6 active torsions:
REMARK  status: ('A' for Active; 'I' for Inactive)
REMARK    1  A    between atoms: N1_7  and  C6_10 
REMARK    2  A    between atoms: C6_10  and  C8_12 
REMARK       I    between atoms: C8_12  and  N4_14 
REMARK    3  A    between atoms: N4_14  and  C9_15 
REMARK    4  A    between atoms: C9_15  and  C10_16 
REMARK    5  A    between atoms: C10_16  and  C11_17 
REMARK    6  A    between atoms: C11_17  and  N5_18 
ROOT
ATOM      1  C6  <0> d           5.514  -0.884  -0.056  0.00  0.00     0.203 C 
ATOM      2  C7  <0> d           5.934  -1.674   1.185  0.00  0.00     0.045 C 
ENDROOT
BRANCH   1   3
ATOM      3  N1  <0> d           4.062  -0.686  -0.040  0.00  0.00    -0.201 N 
ATOM      4  C5  <0> d           3.550   0.566  -0.029  0.00  0.00     0.296 A 
ATOM      5  C4  <0> d           2.142   0.712  -0.015  0.00  0.00     0.154 A 
ATOM      6  O1  <0> d           4.281   1.541  -0.031  0.00  0.00    -0.264 OA
ATOM      7  C3  <0> d           1.342  -0.437  -0.013  0.00  0.00     0.140 A 
ATOM      8  N6  <0> d           1.299   1.785  -0.001  0.00  0.00    -0.266 N 
ATOM      9  C2  <0> d           0.002  -0.004   0.002  0.00  0.00     0.084 A 
ATOM     10  N3  <0> d           1.926  -1.659  -0.026  0.00  0.00    -0.127 NA
ATOM     11  C1  <0> d          -1.210  -0.899   0.009  0.00  0.00     0.075 C 
ATOM     12  N7  <0> d          -0.016   1.301   0.009  0.00  0.00    -0.175 NA
ATOM     13  N2  <0> d           3.205  -1.791  -0.038  0.00  0.00    -0.061 NA
ATOM     14  C14 <0> d           1.699   3.194   0.002  0.00  0.00     0.180 C 
ENDBRANCH   1   3
BRANCH   1  15
ATOM     15  C8  <0> d           5.903  -1.649  -1.294  0.00  0.00     0.242 C 
ATOM     16  O2  <0> d           5.052  -1.995  -2.086  0.00  0.00    -0.271 OA
ATOM     17  N4  <0> d           7.197  -1.949  -1.522  0.00  0.00    -0.359 N 
ATOM     18  H8  <0> d           7.969  -1.635  -0.804  0.00  0.00     0.162 HD
BRANCH  17  19
ATOM     19  C9  <0> d           7.576  -2.693  -2.726  0.00  0.00     0.124 C 
BRANCH  19  20
ATOM     20  C10 <0> d           9.092  -2.900  -2.742  0.00  0.00     0.047 C 
BRANCH  20  21
ATOM     21  C11 <0> d           9.487  -3.677  -3.999  0.00  0.00     0.235 C 
BRANCH  21  22
ATOM     22  N5  <0> d          10.943  -3.875  -4.015  0.00  0.00    -0.079 N 
ATOM     23  C12 <0> d          11.335  -4.814  -5.074  0.00  0.00     0.269 C 
ATOM     24  C13 <0> d          11.647  -2.595  -4.159  0.00  0.00     0.269 C 
ATOM     25  H24 <0> d          11.234  -4.314  -3.049  0.00  0.00     0.278 HD
ENDBRANCH  21  22
ENDBRANCH  20  21
ENDBRANCH  19  20
ENDBRANCH  17  19
ENDBRANCH   1  15
TORSDOF 6
