REMARK  4 active torsions:
REMARK  status: ('A' for Active; 'I' for Inactive)
REMARK    1  A    between atoms: C4_4  and  C5_7 
REMARK    2  A    between atoms: C6_8  and  C9_13 
REMARK       I    between atoms: C9_13  and  N3_15 
REMARK    3  A    between atoms: C11_17  and  C18_25 
REMARK       I    between atoms: C18_25  and  N5_27 
REMARK    4  A    between atoms: N5_27  and  C19_28 
ROOT
ATOM      1  C19 <0> d           1.976  -0.874  -4.416  0.00  0.00     0.247 C 
ATOM      2  C20 <0> d           2.676  -0.351  -5.601  0.00  0.00     0.078 C 
ATOM      3  N6  <0> d           3.216   0.052  -6.515  0.00  0.00    -0.196 NA
ENDROOT
BRANCH   1   4
ATOM      4  N5  <0> d           2.089  -2.334  -4.386  0.00  0.00    -0.348 N 
ATOM      5  C18 <0> d           1.521  -3.034  -3.384  0.00  0.00     0.225 C 
ATOM      6  O4  <0> d           0.915  -2.455  -2.507  0.00  0.00    -0.273 OA
ATOM      7  H22 <0> d           2.574  -2.797  -5.087  0.00  0.00     0.163 HD
BRANCH   5   8
ATOM      8  C11 <0> d           1.637  -4.536  -3.353  0.00  0.00     0.106 C 
ATOM      9  C10 <0> d           0.487  -5.148  -2.522  0.00  0.00     0.141 C 
ATOM     10  N3  <0> d           1.060  -5.328  -1.167  0.00  0.00    -0.346 N 
ATOM     11  C9  <0> d           0.454  -5.120   0.019  0.00  0.00     0.258 C 
ATOM     12  C13 <0> d           2.450  -5.782  -1.411  0.00  0.00     0.136 C 
ATOM     13  O3  <0> d           1.065  -5.308   1.054  0.00  0.00    -0.267 OA
ATOM     14  C12 <0> d           2.921  -4.961  -2.620  0.00  0.00    -0.007 C 
ATOM     15  C17 <0> d           3.691  -3.732  -2.148  0.00  0.00     0.039 C 
ATOM     16  C14 <0> d           3.793  -5.817  -3.534  0.00  0.00     0.039 C 
ATOM     17  C16 <0> d           4.992  -4.178  -1.474  0.00  0.00     0.233 C 
ATOM     18  N4  <0> d           5.799  -4.951  -2.425  0.00  0.00    -0.075 N 
ATOM     19  C15 <0> d           5.089  -6.179  -2.803  0.00  0.00     0.233 C 
ATOM     20  H17 <0> d           6.681  -5.192  -1.999  0.00  0.00     0.277 HD
ATOM     21  H25 <0> d           5.968  -4.395  -3.250  0.00  0.00     0.277 HD
BRANCH  11  22
ATOM     22  C6  <0> d          -0.945  -4.664   0.062  0.00  0.00     0.097 A 
ATOM     23  C5  <0> d          -1.382  -3.347   0.075  0.00  0.00     0.150 A 
ATOM     24  O2  <0> d          -2.724  -3.371   0.121  0.00  0.00    -0.210 OA
ATOM     25  N2  <0> d          -3.145  -4.722   0.128  0.00  0.00    -0.132 NA
ATOM     26  C7  <0> d          -2.097  -5.489   0.096  0.00  0.00     0.077 A 
ATOM     27  C8  <0> d          -2.105  -6.996   0.095  0.00  0.00     0.074 C 
BRANCH  23  28
ATOM     28  C4  <0> d          -0.528  -2.141   0.050  0.00  0.00     0.123 A 
ATOM     29  C3  <0> d          -0.978  -0.797   0.070  0.00  0.00     0.071 A 
ATOM     30  C2  <0> d           0.101   0.004   0.037  0.00  0.00     0.077 A 
ATOM     31  C1  <0> d           0.081   1.511   0.043  0.00  0.00     0.079 C 
ATOM     32  O1  <0> d           1.198  -0.767  -0.007  0.00  0.00    -0.218 OA
ATOM     33  N1  <0> d           0.784  -2.122   0.007  0.00  0.00    -0.126 NA
ENDBRANCH  23  28
ENDBRANCH  11  22
ENDBRANCH   5   8
ENDBRANCH   1   4
TORSDOF 4
