REMARK  3 active torsions:
REMARK  status: ('A' for Active; 'I' for Inactive)
REMARK    1  A    between atoms: C5_5  and  C13_18 
REMARK    2  A    between atoms: C6_6  and  C8_8 
REMARK    3  A    between atoms: C6_6  and  N1_11 
ROOT
ATOM      1  C1  <0> d          -2.095   1.458   0.407  0.00  0.00     0.010 C 
ATOM      2  C2  <0> d          -2.082  -0.071   0.365  0.00  0.00    -0.016 C 
ATOM      3  C3  <0> d          -3.092  -0.617   1.376  0.00  0.00     0.005 C 
ATOM      4  C4  <0> d          -2.716  -0.143   2.781  0.00  0.00     0.008 C 
ATOM      5  C5  <0> d          -1.317  -0.651   3.133  0.00  0.00     0.036 C 
ATOM      6  C6  <0> d          -0.306  -0.105   2.123  0.00  0.00     0.218 C 
ATOM      7  C7  <0> d          -0.683  -0.579   0.718  0.00  0.00     0.055 C 
ENDROOT
BRANCH   6   8
ATOM      8  C8  <0> d          -0.319   1.402   2.164  0.00  0.00     0.211 C 
ATOM      9  O1  <0> d          -1.292   1.992   2.603  0.00  0.00    -0.646 OA
ATOM     10  O2  <0> d           0.644   2.031   1.759  0.00  0.00    -0.646 OA
ENDBRANCH   6   8
BRANCH   6  11
ATOM     11  N1  <0> d           1.037  -0.593   2.461  0.00  0.00    -0.050 N 
ATOM     12  C12 <0> d           0.989  -2.045   2.643  0.00  0.00     0.249 C 
ATOM     13  C11 <0> d           2.262  -2.524   3.349  0.00  0.00     0.136 C 
ATOM     14  S1  <0> d           3.686  -2.134   2.284  0.00  0.00     0.018 S 
ATOM     15  C10 <0> d           3.411  -0.382   1.877  0.00  0.00     0.136 C 
ATOM     16  O3  <0> d           4.887  -2.264   3.033  0.00  0.00    -0.258 OA
ATOM     17  C9  <0> d           1.966  -0.223   1.391  0.00  0.00     0.249 C 
ATOM     18  H27 <0> d           1.338  -0.162   3.322  0.00  0.00     0.281 HD
ENDBRANCH   6  11
BRANCH   5  19
ATOM     19  C13 <0> d          -0.940  -0.176   4.538  0.00  0.00    -0.016 C 
ATOM     20  C14 <0> d          -1.195   1.328   4.654  0.00  0.00     0.010 C 
ATOM     21  C15 <0> d          -1.790  -0.918   5.572  0.00  0.00     0.010 C 
ENDBRANCH   5  19
TORSDOF 3
