REMARK  7 active torsions:
REMARK  status: ('A' for Active; 'I' for Inactive)
REMARK    1  A    between atoms: O1_2  and  C2_3 
REMARK    2  A    between atoms: C2_3  and  C3_4 
REMARK    3  A    between atoms: C3_4  and  C4_5 
REMARK    4  A    between atoms: C4_5  and  N1_6 
REMARK    5  A    between atoms: C5_7  and  N2_8 
REMARK    6  A    between atoms: C6_9  and  C16_22 
REMARK       I    between atoms: C16_22  and  N5_24 
REMARK    7  A    between atoms: N5_24  and  C17_25 
ROOT
ATOM      1  N1  <0> d          -2.207  -4.142   0.047  0.00  0.00    -0.316 N 
ATOM      2  C5  <0> d          -2.664  -4.698  -1.059  0.00  0.00     0.118 A 
ATOM      3  C6  <0> d          -2.890  -6.090  -1.142  0.00  0.00     0.077 A 
ATOM      4  C7  <0> d          -2.623  -6.892  -0.030  0.00  0.00     0.042 A 
ATOM      5  C8  <0> d          -2.142  -6.273   1.121  0.00  0.00     0.080 A 
ATOM      6  C9  <0> d          -1.933  -4.867   1.133  0.00  0.00     0.149 A 
ATOM      7  N3  <0> d          -1.466  -4.293   2.247  0.00  0.00    -0.212 NA
ATOM      8  C10 <0> d          -1.187  -4.994   3.340  0.00  0.00     0.139 A 
ATOM      9  C11 <0> d          -0.697  -4.307   4.472  0.00  0.00     0.051 A 
ATOM     10  C12 <0> d          -0.403  -5.001   5.605  0.00  0.00     0.005 A 
ATOM     11  C13 <0> d          -0.590  -6.392   5.635  0.00  0.00     0.018 A 
ATOM     12  C14 <0> d          -1.058  -7.036   4.544  0.00  0.00     0.102 A 
ATOM     13  N4  <0> d          -1.357  -6.351   3.403  0.00  0.00    -0.273 N 
ATOM     14  C15 <0> d          -1.835  -7.032   2.335  0.00  0.00     0.267 A 
ATOM     15  O2  <0> d          -1.992  -8.239   2.378  0.00  0.00    -0.267 OA
ENDROOT
BRANCH   3  16
ATOM     16  C16 <0> d          -3.400  -6.689  -2.386  0.00  0.00     0.260 C 
ATOM     17  O3  <0> d          -3.540  -6.001  -3.379  0.00  0.00    -0.267 OA
ATOM     18  N5  <0> d          -3.712  -8.000  -2.424  0.00  0.00    -0.323 N 
ATOM     19  H16 <0> d          -3.673  -8.531  -1.614  0.00  0.00     0.169 HD
BRANCH  18  20
ATOM     20  C17 <0> d          -4.092  -8.592  -3.633  0.00  0.00     0.036 A 
ATOM     21  C22 <0> d          -5.020  -9.625  -3.639  0.00  0.00     0.048 A 
ATOM     22  C21 <0> d          -5.398 -10.205  -4.835  0.00  0.00     0.013 A 
ATOM     23  C20 <0> d          -4.844  -9.765  -6.024  0.00  0.00     0.019 A 
ATOM     24 Br1  <0> d          -6.668 -11.607  -4.846  0.00  0.00    -0.051 Br
ATOM     25  C19 <0> d          -3.915  -8.740  -6.020  0.00  0.00     0.004 A 
ATOM     26  C18 <0> d          -3.538  -8.153  -4.828  0.00  0.00     0.029 A 
ENDBRANCH  18  20
ENDBRANCH   3  16
BRANCH   2  27
ATOM     27  N2  <0> d          -2.927  -3.905  -2.156  0.00  0.00    -0.384 N 
ATOM     28  H10 <0> d          -3.209  -2.985  -2.033  0.00  0.00     0.157 HD
ATOM     29  H21 <0> d          -2.830  -4.266  -3.051  0.00  0.00     0.157 HD
ENDBRANCH   2  27
BRANCH   1  30
ATOM     30  C4  <0> d          -1.990  -2.694   0.081  0.00  0.00     0.134 C 
BRANCH  30  31
ATOM     31  C3  <0> d          -0.563  -2.381  -0.376  0.00  0.00     0.046 C 
BRANCH  31  32
ATOM     32  C2  <0> d          -0.336  -0.869  -0.340  0.00  0.00     0.168 C 
BRANCH  32  33
ATOM     33  O1  <0> d           0.996  -0.577  -0.767  0.00  0.00    -0.396 OA
ATOM     34  C1  <0> d           1.313   0.816  -0.770  0.00  0.00     0.201 C 
ENDBRANCH  32  33
ENDBRANCH  31  32
ENDBRANCH  30  31
ENDBRANCH   1  30
TORSDOF 7
