REMARK  6 active torsions:
REMARK  status: ('A' for Active; 'I' for Inactive)
REMARK    1  A    between atoms: N1_4  and  C12_15 
REMARK       I    between atoms: N2_7  and  C6_8 
REMARK    2  A    between atoms: C6_8  and  C7_10 
REMARK    3  A    between atoms: C15_19  and  S1_21 
REMARK    4  A    between atoms: S1_21  and  C16_22 
REMARK    5  A    between atoms: C16_22  and  C17_23 
REMARK       I    between atoms: C17_23  and  N5_25 
REMARK    6  A    between atoms: C20_28  and  C23_31 
REMARK       I    between atoms: C23_31  and  N6_33 
ROOT
ATOM      1  C12 <0> d           0.188  -0.541  -5.781  0.00  0.00     0.111 A 
ATOM      2  C13 <0> d           1.200  -1.501  -5.727  0.00  0.00     0.088 A 
ATOM      3  C14 <0> d           1.399  -2.184  -4.541  0.00  0.00     0.132 A 
ATOM      4  N3  <0> d           0.629  -1.909  -3.497  0.00  0.00    -0.211 NA
ATOM      5  C15 <0> d          -0.324  -0.992  -3.578  0.00  0.00     0.191 A 
ATOM      6  N4  <0> d          -0.550  -0.320  -4.697  0.00  0.00    -0.211 NA
ATOM      7 Cl1  <0> d           2.644  -3.388  -4.419  0.00  0.00    -0.062 Cl
ENDROOT
BRANCH   5   8
ATOM      8  S1  <0> d          -1.321  -0.662  -2.163  0.00  0.00    -0.081 SA
BRANCH   8   9
ATOM      9  C16 <0> d          -0.594  -1.831  -0.987  0.00  0.00     0.185 C 
BRANCH   9  10
ATOM     10  C17 <0> d          -1.309  -1.724   0.335  0.00  0.00     0.229 C 
ATOM     11  O2  <0> d          -2.221  -0.935   0.469  0.00  0.00    -0.273 OA
ATOM     12  N5  <0> d          -0.935  -2.504   1.369  0.00  0.00    -0.351 N 
ATOM     13  C22 <0> d          -1.623  -2.411   2.664  0.00  0.00     0.126 C 
ATOM     14  C18 <0> d           0.163  -3.468   1.220  0.00  0.00     0.126 C 
ATOM     15  C21 <0> d          -2.097  -3.809   3.072  0.00  0.00     0.034 C 
ATOM     16  C20 <0> d          -0.906  -4.771   3.060  0.00  0.00     0.081 C 
ATOM     17  C19 <0> d          -0.327  -4.851   1.646  0.00  0.00     0.034 C 
BRANCH  16  18
ATOM     18  C23 <0> d          -1.362  -6.140   3.494  0.00  0.00     0.219 C 
ATOM     19  O3  <0> d          -2.525  -6.329   3.784  0.00  0.00    -0.273 OA
ATOM     20  N6  <0> d          -0.478  -7.155   3.559  0.00  0.00    -0.370 N 
ATOM     21  H32 <0> d          -0.811  -8.155   3.876  0.00  0.00     0.159 HD
ATOM     22  H33 <0> d           0.576  -6.984   3.296  0.00  0.00     0.159 HD
ENDBRANCH  16  18
ENDBRANCH   9  10
ENDBRANCH   8   9
ENDBRANCH   5   8
BRANCH   1  23
ATOM     23  N1  <0> d          -0.047   0.167  -6.948  0.00  0.00    -0.264 NA
ATOM     24  C3  <0> d          -1.153   1.118  -6.773  0.00  0.00     0.122 C 
ATOM     25  C2  <0> d          -1.500   1.747  -8.126  0.00  0.00     0.096 C 
ATOM     26  C1  <0> d          -2.542   2.850  -7.928  0.00  0.00     0.033 C 
ATOM     27  N2  <0> d          -0.275   2.318  -8.704  0.00  0.00    -0.345 N 
ATOM     28  C5  <0> d           0.920   1.464  -8.786  0.00  0.00     0.141 C 
ATOM     29  C6  <0> d          -0.246   3.591  -9.146  0.00  0.00     0.224 C 
ATOM     30  C4  <0> d           1.172   0.846  -7.407  0.00  0.00     0.117 C 
ATOM     31  O1  <0> d          -1.208   4.312  -8.982  0.00  0.00    -0.273 OA
BRANCH  29  32
ATOM     32  C7  <0> d           0.980   4.119  -9.845  0.00  0.00     0.078 C 
ATOM     33  C11 <0> d           0.676   5.486 -10.482  0.00  0.00     0.014 C 
ATOM     34  C10 <0> d           1.634   6.501  -9.825  0.00  0.00     0.001 C 
ATOM     35  C9  <0> d           2.817   5.637  -9.322  0.00  0.00     0.001 C 
ATOM     36  C8  <0> d           2.112   4.351  -8.823  0.00  0.00     0.014 C 
ENDBRANCH  29  32
ENDBRANCH   1  23
TORSDOF 6
