REMARK  4 active torsions:
REMARK  status: ('A' for Active; 'I' for Inactive)
REMARK    1  A    between atoms: C4_6  and  C5_7 
REMARK    2  A    between atoms: C5_7  and  C6_8 
REMARK    3  A    between atoms: C6_8  and  N3_9 
REMARK    4  A    between atoms: N3_9  and  C7_10 
ROOT
ATOM      1  C7  <0> d           2.848   0.211   4.957  0.00  0.00     0.347 A 
ATOM      2  C8  <0> d           2.842   0.107   6.465  0.00  0.00     0.012 A 
ATOM      3  C9  <0> d           2.421  -0.875   7.334  0.00  0.00     0.034 A 
ATOM      4  C10 <0> d           2.543  -0.688   8.700  0.00  0.00     0.050 A 
ATOM      5  C11 <0> d           3.090   0.489   9.187  0.00  0.00     0.136 A 
ATOM      6  C12 <0> d           3.513   1.474   8.316  0.00  0.00     0.073 A 
ATOM      7  C13 <0> d           3.392   1.291   6.940  0.00  0.00     0.046 A 
ATOM      8  N4  <0> d           3.740   2.123   5.875  0.00  0.00    -0.324 N 
ATOM      9  C14 <0> d           3.458   1.569   4.681  0.00  0.00     0.260 A 
ATOM     10  O1  <0> d           3.654   2.062   3.590  0.00  0.00    -0.270 OA
ATOM     11  F1  <0> d           3.210   0.673  10.520  0.00  0.00    -0.205 F 
ATOM     12 Br1  <0> d           1.966  -2.033   9.897  0.00  0.00    -0.048 Br
ATOM     13  H14 <0> d           4.141   2.999   5.983  0.00  0.00     0.169 HD
ENDROOT
BRANCH   1  14
ATOM     14  N3  <0> d           1.477   0.146   4.432  0.00  0.00     0.102 N 
ATOM     15  H11 <0> d           1.010   1.034   4.531  0.00  0.00     0.317 HD
BRANCH  14  16
ATOM     16  C6  <0> d           1.471  -0.299   3.032  0.00  0.00     0.278 C 
BRANCH  16  17
ATOM     17  C5  <0> d           0.030  -0.354   2.521  0.00  0.00     0.106 C 
BRANCH  17  18
ATOM     18  C4  <0> d           0.023  -0.811   1.085  0.00  0.00     0.084 A 
ATOM     19  N1  <0> d           0.002  -0.004   0.002  0.00  0.00    -0.350 N 
ATOM     20  C1  <0> d          -0.018   1.461   0.010  0.00  0.00     0.156 C 
ATOM     21  C2  <0> d           0.009  -0.810  -1.104  0.00  0.00     0.108 A 
ATOM     22  C3  <0> d           0.029  -2.081  -0.660  0.00  0.00     0.106 A 
ATOM     23  N2  <0> d           0.034  -2.052   0.681  0.00  0.00    -0.354 N 
ATOM     24  H15 <0> d           0.048  -2.831   1.260  0.00  0.00     0.166 HD
ENDBRANCH  17  18
ENDBRANCH  16  17
ENDBRANCH  14  16
ENDBRANCH   1  14
TORSDOF 4
