REMARK  7 active torsions:
REMARK  status: ('A' for Active; 'I' for Inactive)
REMARK    1  A    between atoms: N4_6  and  C3_7 
REMARK    2  A    between atoms: C7_11  and  N5_13 
REMARK       I    between atoms: N5_13  and  C9_14 
REMARK    3  A    between atoms: C9_14  and  C10_16 
REMARK       I    between atoms: C10_16  and  N6_18 
REMARK    4  A    between atoms: N6_18  and  C11_19 
REMARK    5  A    between atoms: C11_19  and  C12_20 
REMARK    6  A    between atoms: C12_20  and  C13_21 
REMARK    7  A    between atoms: C13_21  and  N7_22 
ROOT
ATOM      1  N5  <0> d          -1.290  -1.578   5.668  0.00  0.00    -0.319 N 
ATOM      2  C9  <0> d          -1.196  -1.262   6.975  0.00  0.00     0.313 C 
ATOM      3  O1  <0> d          -0.607  -0.257   7.315  0.00  0.00    -0.262 OA
ATOM      4  H10 <0> d          -1.825  -2.338   5.391  0.00  0.00     0.169 HD
ENDROOT
BRANCH   2   5
ATOM      5  C10 <0> d          -1.817  -2.148   8.005  0.00  0.00     0.309 C 
ATOM      6  O2  <0> d          -2.406  -3.153   7.665  0.00  0.00    -0.262 OA
ATOM      7  N6  <0> d          -1.722  -1.832   9.311  0.00  0.00    -0.353 N 
ATOM      8  H11 <0> d          -1.251  -1.028   9.583  0.00  0.00     0.162 HD
BRANCH   7   9
ATOM      9  C11 <0> d          -2.331  -2.701  10.321  0.00  0.00     0.125 C 
BRANCH   9  10
ATOM     10  C12 <0> d          -2.080  -2.118  11.713  0.00  0.00     0.047 C 
BRANCH  10  11
ATOM     11  C13 <0> d          -2.716  -3.026  12.768  0.00  0.00     0.236 C 
BRANCH  11  12
ATOM     12  N7  <0> d          -2.475  -2.467  14.105  0.00  0.00    -0.070 N 
ATOM     13  C18 <0> d          -2.981  -3.397  15.121  0.00  0.00     0.239 C 
ATOM     14  C17 <0> d          -2.660  -2.858  16.517  0.00  0.00     0.008 C 
ATOM     15  C16 <0> d          -3.329  -1.492  16.696  0.00  0.00     0.011 C 
ATOM     16  C19 <0> d          -3.189  -3.828  17.575  0.00  0.00     0.011 C 
ATOM     17  C15 <0> d          -2.851  -0.551  15.586  0.00  0.00     0.008 C 
ATOM     18  C14 <0> d          -3.164  -1.176  14.225  0.00  0.00     0.239 C 
ATOM     19  C20 <0> d          -1.341  -0.334  15.713  0.00  0.00     0.011 C 
ATOM     20  H30 <0> d          -1.484  -2.330  14.238  0.00  0.00     0.279 HD
ENDBRANCH  11  12
ENDBRANCH  10  11
ENDBRANCH   9  10
ENDBRANCH   7   9
ENDBRANCH   2   5
BRANCH   1  21
ATOM     21  C7  <0> d          -0.618  -0.811   4.713  0.00  0.00     0.037 A 
ATOM     22  C6  <0> d          -1.171  -0.629   3.452  0.00  0.00     0.029 A 
ATOM     23  C5  <0> d          -0.506   0.130   2.508  0.00  0.00     0.005 A 
ATOM     24  C4  <0> d           0.710   0.709   2.814  0.00  0.00     0.032 A 
ATOM     25  C3  <0> d           1.268   0.530   4.073  0.00  0.00     0.064 A 
ATOM     26  C8  <0> d           0.607  -0.235   5.022  0.00  0.00     0.061 A 
BRANCH  25  27
ATOM     27  N4  <0> d           2.503   1.119   4.383  0.00  0.00    -0.199 N 
ATOM     28  C2  <0> d           3.553   1.308   3.555  0.00  0.00     0.149 A 
ATOM     29  C1  <0> d           3.624   0.920   2.100  0.00  0.00     0.095 C 
ATOM     30  N1  <0> d           4.494   1.894   4.247  0.00  0.00    -0.114 NA
ATOM     31  N2  <0> d           4.113   2.084   5.459  0.00  0.00    -0.023 NA
ATOM     32  N3  <0> d           2.914   1.638   5.624  0.00  0.00    -0.039 NA
ENDBRANCH  25  27
ENDBRANCH   1  21
TORSDOF 7
