REMARK  5 active torsions:
REMARK  status: ('A' for Active; 'I' for Inactive)
REMARK    1  A    between atoms: C3_3  and  C6_7 
REMARK    2  A    between atoms: C6_7  and  N2_8 
REMARK    3  A    between atoms: N4_21  and  C18_24 
REMARK    4  A    between atoms: C18_24  and  C19_25 
REMARK    5  A    between atoms: C19_25  and  O3_26 
ROOT
ATOM      1  N2  <0> d           4.141   2.271   1.355  0.00  0.00    -0.320 N 
ATOM      2  C7  <0> d           3.777   3.422   1.988  0.00  0.00     0.097 A 
ATOM      3  C8  <0> d           4.144   3.702   3.250  0.00  0.00     0.050 A 
ATOM      4  C9  <0> d           4.966   2.744   3.993  0.00  0.00     0.074 A 
ATOM      5  C10 <0> d           5.345   1.544   3.335  0.00  0.00     0.062 A 
ATOM      6  C11 <0> d           4.892   1.327   1.958  0.00  0.00     0.260 A 
ATOM      7  O1  <0> d           5.194   0.308   1.363  0.00  0.00    -0.267 OA
ATOM      8  C12 <0> d           6.127   0.606   4.006  0.00  0.00     0.039 A 
ATOM      9  C13 <0> d           6.506   0.898   5.314  0.00  0.00     0.062 A 
ATOM     10  C14 <0> d           6.092   2.118   5.912  0.00  0.00     0.074 A 
ATOM     11  N3  <0> d           5.346   2.986   5.240  0.00  0.00    -0.247 NA
ATOM     12  C15 <0> d           6.512   2.383   7.289  0.00  0.00     0.050 A 
ATOM     13  C16 <0> d           7.266   1.480   7.938  0.00  0.00     0.096 A 
ATOM     14  N4  <0> d           7.665   0.309   7.365  0.00  0.00    -0.322 N 
ATOM     15  C17 <0> d           7.328  -0.024   6.103  0.00  0.00     0.260 A 
ATOM     16  O2  <0> d           7.702  -1.080   5.625  0.00  0.00    -0.267 OA
ENDROOT
BRANCH   1  17
ATOM     17  C6  <0> d           3.696   2.049  -0.023  0.00  0.00     0.171 C 
BRANCH  17  18
ATOM     18  C3  <0> d           2.365   1.343  -0.013  0.00  0.00    -0.022 A 
ATOM     19  C2  <0> d           1.185   2.070   0.002  0.00  0.00     0.012 A 
ATOM     20  C1  <0> d          -0.017   1.378   0.010  0.00  0.00     0.020 A 
ATOM     21  C5  <0> d           0.002  -0.004   0.002  0.00  0.00     0.116 A 
ATOM     22  N1  <0> d           1.144  -0.663  -0.013  0.00  0.00    -0.273 NA
ATOM     23  C4  <0> d           2.305  -0.038  -0.020  0.00  0.00     0.124 A 
ENDBRANCH  17  18
ENDBRANCH   1  17
BRANCH  14  24
ATOM     24  C18 <0> d           8.486  -0.618   8.147  0.00  0.00     0.157 C 
BRANCH  24  25
ATOM     25  C19 <0> d           7.579  -1.586   8.909  0.00  0.00     0.184 C 
BRANCH  25  26
ATOM     26  O3  <0> d           6.867  -2.404   7.978  0.00  0.00    -0.399 OA
ATOM     27  H16 <0> d           6.271  -3.043   8.391  0.00  0.00     0.209 HD
ENDBRANCH  25  26
ENDBRANCH  24  25
ENDBRANCH  14  24
TORSDOF 5
