REMARK  4 active torsions:
REMARK  status: ('A' for Active; 'I' for Inactive)
REMARK    1  A    between atoms: N1_6  and  C14_18 
REMARK    2  A    between atoms: C6_9  and  C7_10 
REMARK    3  A    between atoms: C7_10  and  N2_11 
REMARK    4  A    between atoms: N2_11  and  C8_12 
ROOT
ATOM      1  C1  <0> d           0.002  -0.004   0.076  0.00  0.00     0.051 C 
ATOM      2  C2  <0> d          -0.018   1.502   0.049  0.00  0.00    -0.019 A 
ATOM      3  C3  <0> d           1.166   2.225   0.043  0.00  0.00     0.119 A 
ATOM      4  C4  <0> d           1.119   3.688   0.016  0.00  0.00     0.272 A 
ATOM      5  O1  <0> d           2.158   4.323   0.010  0.00  0.00    -0.266 OA
ATOM      6  N1  <0> d          -0.056   4.340  -0.003  0.00  0.00    -0.274 N 
ATOM      7  C5  <0> d          -1.226   3.674   0.002  0.00  0.00     0.263 A 
ATOM      8  O2  <0> d          -2.274   4.292  -0.014  0.00  0.00    -0.267 OA
ATOM      9  C6  <0> d          -1.243   2.206   0.022  0.00  0.00     0.055 A 
ATOM     10  C18 <0> d           2.426   1.545   0.063  0.00  0.00     0.105 C 
ATOM     11  N3  <0> d           3.425   1.005   0.079  0.00  0.00    -0.191 NA
ENDROOT
BRANCH   9  12
ATOM     12  C7  <0> d          -2.452   1.516   0.021  0.00  0.00     0.106 C 
BRANCH  12  13
ATOM     13  N2  <0> d          -3.612   2.190   0.132  0.00  0.00    -0.365 N 
ATOM     14  H6  <0> d          -3.610   3.160   0.138  0.00  0.00     0.165 HD
BRANCH  13  15
ATOM     15  C8  <0> d          -4.817   1.492   0.238  0.00  0.00     0.031 A 
ATOM     16  C13 <0> d          -6.016   2.186   0.353  0.00  0.00     0.029 A 
ATOM     17  C12 <0> d          -7.206   1.494   0.458  0.00  0.00     0.002 A 
ATOM     18  C11 <0> d          -7.206   0.111   0.450  0.00  0.00     0.000 A 
ATOM     19  C10 <0> d          -6.015  -0.583   0.336  0.00  0.00     0.002 A 
ATOM     20  C9  <0> d          -4.822   0.103   0.225  0.00  0.00     0.029 A 
ENDBRANCH  13  15
ENDBRANCH  12  13
ENDBRANCH   9  12
BRANCH   6  21
ATOM     21  C14 <0> d          -0.065   5.804  -0.030  0.00  0.00     0.111 C 
ATOM     22  C17 <0> d           0.666   6.345   1.223  0.00  0.00     0.166 C 
ATOM     23  S1  <0> d           1.410   7.912   0.613  0.00  0.00     0.146 S 
ATOM     24  C16 <0> d           0.900   7.823  -1.155  0.00  0.00     0.142 C 
ATOM     25  O3  <0> d           2.825   7.812   0.691  0.00  0.00    -0.228 OA
ATOM     26  O4  <0> d           0.751   9.010   1.230  0.00  0.00    -0.228 OA
ATOM     27  C15 <0> d           0.645   6.296  -1.302  0.00  0.00     0.042 C 
ENDBRANCH   6  21
TORSDOF 4
