REMARK  5 active torsions:
REMARK  status: ('A' for Active; 'I' for Inactive)
REMARK    1  A    between atoms: C6_7  and  C9_11 
REMARK    2  A    between atoms: C10_12  and  N5_30 
REMARK    3  A    between atoms: N3_13  and  C13_17 
REMARK    4  A    between atoms: C16_20  and  N4_23 
REMARK    5  A    between atoms: N4_23  and  C19_24 
ROOT
ATOM      1  C9  <0> d           1.327  -5.087   1.923  0.00  0.00     0.075 A 
ATOM      2  C10 <0> d           1.342  -6.306   2.561  0.00  0.00     0.115 A 
ATOM      3  N3  <0> d           2.615  -6.718   2.831  0.00  0.00    -0.326 N 
ATOM      4  C11 <0> d           3.531  -5.682   2.329  0.00  0.00     0.214 A 
ATOM      5  C12 <0> d           2.624  -4.627   1.732  0.00  0.00     0.181 A 
ATOM      6  O1  <0> d           2.962  -3.587   1.197  0.00  0.00    -0.291 OA
ENDROOT
BRANCH   3   7
ATOM      7  C13 <0> d           2.982  -7.909   3.469  0.00  0.00     0.036 A 
ATOM      8  C18 <0> d           3.597  -7.869   4.714  0.00  0.00     0.032 A 
ATOM      9  C17 <0> d           3.954  -9.043   5.346  0.00  0.00     0.031 A 
ATOM     10  C16 <0> d           3.708 -10.265   4.732  0.00  0.00     0.032 A 
ATOM     11  C15 <0> d           3.099 -10.305   3.484  0.00  0.00     0.031 A 
ATOM     12  C14 <0> d           2.737  -9.130   2.855  0.00  0.00     0.032 A 
BRANCH  10  13
ATOM     13  N4  <0> d           4.075 -11.455   5.370  0.00  0.00    -0.356 N 
ATOM     14  H14 <0> d           4.350 -12.222   4.844  0.00  0.00     0.166 HD
BRANCH  13  15
ATOM     15  C19 <0> d           4.045 -11.538   6.764  0.00  0.00     0.032 A 
ATOM     16  C24 <0> d           4.857 -12.451   7.424  0.00  0.00     0.029 A 
ATOM     17  C23 <0> d           4.830 -12.527   8.803  0.00  0.00     0.002 A 
ATOM     18  C22 <0> d           3.986 -11.702   9.525  0.00  0.00     0.000 A 
ATOM     19  C21 <0> d           3.172 -10.796   8.871  0.00  0.00     0.002 A 
ATOM     20  C20 <0> d           3.199 -10.711   7.492  0.00  0.00     0.029 A 
ENDBRANCH  13  15
ENDBRANCH  10  13
ENDBRANCH   3   7
BRANCH   2  21
ATOM     21  N5  <0> d           0.218  -7.018   2.884  0.00  0.00    -0.385 N 
ATOM     22  H20 <0> d          -0.659  -6.636   2.730  0.00  0.00     0.157 HD
ATOM     23  H21 <0> d           0.300  -7.906   3.268  0.00  0.00     0.157 HD
ENDBRANCH   2  21
BRANCH   1  24
ATOM     24  C6  <0> d           0.082  -4.358   1.489  0.00  0.00     0.224 A 
ATOM     25  N1  <0> d           0.111  -4.130   0.038  0.00  0.00    -0.363 N 
ATOM     26  C5  <0> d           0.080  -2.843  -0.155  0.00  0.00     0.056 A 
ATOM     27  H22 <0> d           0.148  -4.813  -0.649  0.00  0.00     0.162 HD
ATOM     28  C4  <0> d           0.086  -2.015  -1.369  0.00  0.00     0.032 A 
ATOM     29  C7  <0> d           0.027  -2.148   1.160  0.00  0.00     0.057 A 
ATOM     30  C3  <0> d           0.045  -0.672  -1.258  0.00  0.00     0.009 A 
ATOM     31  C2  <0> d          -0.005  -0.015  -0.015  0.00  0.00    -0.060 A 
ATOM     32  C1  <0> d          -0.050   1.491   0.006  0.00  0.00     0.048 C 
ATOM     33  C8  <0> d          -0.010  -0.679   1.158  0.00  0.00     0.038 A 
ATOM     34  N2  <0> d           0.028  -3.032   2.116  0.00  0.00    -0.363 N 
ATOM     35  H23 <0> d          -0.001  -2.848   3.068  0.00  0.00     0.162 HD
ENDBRANCH   1  24
TORSDOF 5
