REMARK  4 active torsions:
REMARK  status: ('A' for Active; 'I' for Inactive)
REMARK    1  A    between atoms: O1_2  and  C2_3 
REMARK    2  A    between atoms: C5_6  and  C12_15 
REMARK    3  A    between atoms: C7_8  and  C8_9 
REMARK    4  A    between atoms: C8_9  and  N1_10 
ROOT
ATOM      1  C2  <0> d           0.626  -0.618   1.042  0.00  0.00     0.076 A 
ATOM      2  C3  <0> d           1.202   0.139   2.051  0.00  0.00     0.038 A 
ATOM      3  C4  <0> d           1.835  -0.488   3.107  0.00  0.00     0.012 A 
ATOM      4  C5  <0> d           1.895  -1.869   3.158  0.00  0.00    -0.021 A 
ATOM      5  C6  <0> d           1.321  -2.625   2.153  0.00  0.00     0.021 A 
ATOM      6  C7  <0> d           0.682  -2.003   1.097  0.00  0.00    -0.004 A 
ENDROOT
BRANCH   4   7
ATOM      7  C12 <0> d           2.586  -2.550   4.311  0.00  0.00     0.272 C 
ATOM      8  N5  <0> d           2.280  -1.837   5.562  0.00  0.00    -0.061 N 
ATOM      9  C17 <0> d           3.093  -2.372   6.663  0.00  0.00     0.239 C 
ATOM     10  H19 <0> d           2.484  -0.856   5.446  0.00  0.00     0.278 HD
ATOM     11  H20 <0> d           1.302  -1.949   5.780  0.00  0.00     0.278 HD
ATOM     12  C16 <0> d           4.555  -1.931   6.494  0.00  0.00     0.086 C 
ATOM     13  C14 <0> d           4.964  -2.242   5.077  0.00  0.00     0.039 A 
ATOM     14  C13 <0> d           4.078  -2.524   4.094  0.00  0.00     0.093 A 
ATOM     15  N3  <0> d           6.205  -2.305   4.529  0.00  0.00    -0.352 N 
ATOM     16  N4  <0> d           4.766  -2.757   2.976  0.00  0.00    -0.244 NA
ATOM     17  C15 <0> d           6.044  -2.628   3.224  0.00  0.00     0.207 A 
ATOM     18  H2  <0> d           7.046  -2.149   4.986  0.00  0.00     0.166 HD
ENDBRANCH   4   7
BRANCH   6  19
ATOM     19  C8  <0> d           0.052  -2.828   0.005  0.00  0.00     0.191 C 
BRANCH  19  20
ATOM     20  N1  <0> d          -1.393  -2.915   0.231  0.00  0.00    -0.277 N 
ATOM     21  N2  <0> d          -2.019  -3.367   1.399  0.00  0.00    -0.185 NA
ATOM     22  C11 <0> d          -3.314  -3.294   1.223  0.00  0.00     0.140 A 
ATOM     23  C10 <0> d          -3.553  -2.804  -0.064  0.00  0.00     0.040 A 
ATOM     24  C9  <0> d          -2.356  -2.579  -0.653  0.00  0.00     0.114 A 
ENDBRANCH  19  20
ENDBRANCH   6  19
BRANCH   1  25
ATOM     25  O1  <0> d           0.002  -0.004   0.002  0.00  0.00    -0.355 OA
ATOM     26  C1  <0> d          -0.017   1.425   0.010  0.00  0.00     0.210 C 
ENDBRANCH   1  25
TORSDOF 4
