REMARK  7 active torsions:
REMARK  status: ('A' for Active; 'I' for Inactive)
REMARK    1  A    between atoms: C4_4  and  N1_7 
REMARK    2  A    between atoms: C8_9  and  C14_17 
REMARK    3  A    between atoms: C9_10  and  C10_12 
REMARK    4  A    between atoms: C15_18  and  C16_19 
REMARK       I    between atoms: C16_19  and  N3_21 
REMARK    5  A    between atoms: N3_21  and  C17_22 
REMARK    6  A    between atoms: C21_26  and  S2_28 
REMARK    7  A    between atoms: S2_28  and  N4_31 
ROOT
ATOM      1  C14 <0> d          -1.203   2.328   0.025  0.00  0.00     0.021 C 
ATOM      2  C15 <0> d          -1.061   3.673   0.034  0.00  0.00     0.075 C 
ENDROOT
BRANCH   1   3
ATOM      3  C8  <0> d          -0.017   1.465   0.023  0.00  0.00     0.013 A 
ATOM      4  C7  <0> d           1.304   1.872   0.023  0.00  0.00     0.132 A 
ATOM      5  N1  <0> d           2.075   0.770   0.015  0.00  0.00    -0.244 N 
ATOM      6  N2  <0> d           1.267  -0.371   0.009  0.00  0.00    -0.166 NA
ATOM      7  C9  <0> d           0.003  -0.004   0.014  0.00  0.00     0.106 A 
BRANCH   5   8
ATOM      8  C4  <0> d           3.475   0.765   0.011  0.00  0.00     0.058 A 
ATOM      9  C3  <0> d           4.168  -0.439   0.002  0.00  0.00     0.031 A 
ATOM     10  C2  <0> d           5.548  -0.440  -0.001  0.00  0.00     0.002 A 
ATOM     11  C1  <0> d           6.242   0.757   0.005  0.00  0.00     0.000 A 
ATOM     12  C6  <0> d           5.556   1.957   0.014  0.00  0.00     0.002 A 
ATOM     13  C5  <0> d           4.175   1.965   0.011  0.00  0.00     0.031 A 
ENDBRANCH   5   8
BRANCH   7  14
ATOM     14  C10 <0> d          -1.171  -0.898   0.011  0.00  0.00     0.036 A 
ATOM     15  S1  <0> d          -2.750  -0.685   0.818  0.00  0.00    -0.100 SA
ATOM     16  C13 <0> d          -3.517  -2.204   0.278  0.00  0.00     0.050 A 
ATOM     17  C12 <0> d          -2.532  -2.772  -0.465  0.00  0.00     0.008 A 
ATOM     18  C11 <0> d          -1.331  -2.111  -0.606  0.00  0.00     0.022 A 
ENDBRANCH   7  14
ENDBRANCH   1   3
BRANCH   2  19
ATOM     19  C16 <0> d          -2.206   4.507   0.035  0.00  0.00     0.245 C 
ATOM     20  O1  <0> d          -3.319   4.013   0.029  0.00  0.00    -0.268 OA
ATOM     21  N3  <0> d          -2.064   5.847   0.044  0.00  0.00    -0.324 N 
ATOM     22  H12 <0> d          -1.180   6.241   0.116  0.00  0.00     0.169 HD
BRANCH  21  23
ATOM     23  C17 <0> d          -3.190   6.670  -0.051  0.00  0.00     0.036 A 
ATOM     24  C22 <0> d          -3.115   7.876  -0.737  0.00  0.00     0.054 A 
ATOM     25  C21 <0> d          -4.231   8.684  -0.834  0.00  0.00     0.081 A 
ATOM     26  C20 <0> d          -5.419   8.299  -0.240  0.00  0.00     0.025 A 
ATOM     27  C19 <0> d          -5.496   7.101   0.448  0.00  0.00     0.004 A 
ATOM     28  C18 <0> d          -4.385   6.286   0.544  0.00  0.00     0.029 A 
BRANCH  25  29
ATOM     29  S2  <0> d          -4.139  10.210  -1.709  0.00  0.00     0.256 S 
ATOM     30  O2  <0> d          -3.068  10.084  -2.635  0.00  0.00    -0.201 OA
ATOM     31  O3  <0> d          -5.463  10.527  -2.114  0.00  0.00    -0.201 OA
BRANCH  29  32
ATOM     32  N4  <0> d          -3.687  11.373  -0.619  0.00  0.00    -0.324 N 
ATOM     33  H17 <0> d          -3.529  11.134   0.308  0.00  0.00     0.169 HD
ATOM     34  H18 <0> d          -3.579  12.293  -0.908  0.00  0.00     0.169 HD
ENDBRANCH  29  32
ENDBRANCH  25  29
ENDBRANCH  21  23
ENDBRANCH   2  19
TORSDOF 7
