REMARK  7 active torsions:
REMARK  status: ('A' for Active; 'I' for Inactive)
REMARK    1  A    between atoms: C6_6  and  N1_8 
REMARK    2  A    between atoms: C10_12  and  C13_18 
REMARK    3  A    between atoms: C13_18  and  C14_19 
REMARK    4  A    between atoms: C14_19  and  C15_20 
REMARK       I    between atoms: C15_20  and  N5_22 
REMARK    5  A    between atoms: N5_22  and  C16_23 
REMARK    6  A    between atoms: C16_23  and  C17_24 
REMARK    7  A    between atoms: C17_24  and  C18_25 
ROOT
ATOM      1  N1  <0> d           0.052  -2.797   2.393  0.00  0.00    -0.310 N 
ATOM      2  C8  <0> d           0.153  -2.089   3.680  0.00  0.00     0.176 C 
ATOM      3  C9  <0> d           1.161  -2.828   4.548  0.00  0.00     0.083 C 
ATOM      4  N2  <0> d           1.070  -4.099   4.530  0.00  0.00    -0.336 N 
ATOM      5  C10 <0> d           1.905  -5.157   5.085  0.00  0.00     0.232 C 
ATOM      6  N3  <0> d           1.497  -6.387   4.393  0.00  0.00    -0.169 NA
ATOM      7  N4  <0> d           0.510  -6.202   3.675  0.00  0.00    -0.160 NA
ATOM      8  C11 <0> d           0.036  -4.825   3.758  0.00  0.00     0.325 C 
ATOM      9  C12 <0> d          -0.032  -4.158   2.403  0.00  0.00     0.271 C 
ATOM     10  O1  <0> d          -0.150  -4.798   1.380  0.00  0.00    -0.268 OA
ENDROOT
BRANCH   5  11
ATOM     11  C13 <0> d           1.662  -5.288   6.590  0.00  0.00     0.060 C 
BRANCH  11  12
ATOM     12  C14 <0> d           2.634  -6.314   7.176  0.00  0.00     0.106 C 
BRANCH  12  13
ATOM     13  C15 <0> d           2.394  -6.444   8.658  0.00  0.00     0.217 C 
ATOM     14  O2  <0> d           1.531  -5.781   9.193  0.00  0.00    -0.274 OA
ATOM     15  N5  <0> d           3.139  -7.297   9.389  0.00  0.00    -0.361 N 
ATOM     16  H15 <0> d           3.830  -7.827   8.961  0.00  0.00     0.162 HD
BRANCH  15  17
ATOM     17  C16 <0> d           2.906  -7.423  10.830  0.00  0.00     0.127 C 
BRANCH  17  18
ATOM     18  C17 <0> d           3.878  -8.449  11.416  0.00  0.00     0.056 C 
BRANCH  18  19
ATOM     19  C18 <0> d           3.638  -8.578  12.898  0.00  0.00    -0.048 A 
ATOM     20  C25 <0> d           4.217  -7.710  13.992  0.00  0.00     0.155 A 
ATOM     21  N6  <0> d           3.682  -8.238  15.252  0.00  0.00    -0.385 N 
ATOM     22  C24 <0> d           2.912  -9.264  14.980  0.00  0.00     0.038 A 
ATOM     23  H29 <0> d           3.869  -7.890  16.137  0.00  0.00     0.160 HD
ATOM     24  C19 <0> d           2.866  -9.499  13.519  0.00  0.00    -0.006 A 
ATOM     25  C23 <0> d           2.159 -10.131  15.820  0.00  0.00     0.030 A 
ATOM     26  C20 <0> d           2.050 -10.612  13.021  0.00  0.00     0.014 A 
ATOM     27  C21 <0> d           1.372 -11.377  13.906  0.00  0.00     0.001 A 
ATOM     28  C22 <0> d           1.431 -11.135  15.286  0.00  0.00     0.002 A 
ENDBRANCH  18  19
ENDBRANCH  17  18
ENDBRANCH  15  17
ENDBRANCH  12  13
ENDBRANCH  11  12
ENDBRANCH   5  11
BRANCH   1  29
ATOM     29  C6  <0> d           0.037  -2.089   1.186  0.00  0.00     0.038 A 
ATOM     30  C5  <0> d           1.097  -2.206   0.297  0.00  0.00     0.036 A 
ATOM     31  C4  <0> d           1.079  -1.506  -0.893  0.00  0.00    -0.059 A 
ATOM     32  C3  <0> d           0.006  -0.689  -1.200  0.00  0.00     0.013 A 
ATOM     33  C26 <0> d           2.229  -1.632  -1.858  0.00  0.00     0.048 C 
ATOM     34  C2  <0> d          -1.051  -0.571  -0.317  0.00  0.00    -0.059 A 
ATOM     35  C1  <0> d          -2.218   0.321  -0.656  0.00  0.00     0.048 C 
ATOM     36  C7  <0> d          -1.037  -1.264   0.877  0.00  0.00     0.036 A 
ENDBRANCH   1  29
TORSDOF 7
