REMARK  4 active torsions:
REMARK  status: ('A' for Active; 'I' for Inactive)
REMARK    1  A    between atoms: C2_2  and  N1_3 
REMARK    2  A    between atoms: N1_3  and  C4_5 
REMARK    3  A    between atoms: C12_13  and  O1_14 
REMARK       I    between atoms: N2_17  and  C17_20 
REMARK       I    between atoms: C17_20  and  N3_22 
REMARK    4  A    between atoms: N3_22  and  C18_23 
ROOT
ATOM      1  C4  <0> d           0.203   0.959  -2.436  0.00  0.00     0.250 C 
ATOM      2  C5  <0> d           1.465   0.861  -3.267  0.00  0.00    -0.018 A 
ATOM      3  C6  <0> d           2.683   0.266  -2.982  0.00  0.00     0.010 A 
ATOM      4  C7  <0> d           3.708   0.302  -3.907  0.00  0.00     0.001 A 
ATOM      5  C8  <0> d           3.518   0.934  -5.122  0.00  0.00     0.001 A 
ATOM      6  C9  <0> d           2.305   1.528  -5.407  0.00  0.00     0.009 A 
ATOM      7  C10 <0> d           1.275   1.494  -4.482  0.00  0.00    -0.038 A 
ATOM      8  C11 <0> d          -0.125   2.056  -4.547  0.00  0.00     0.019 C 
ATOM      9  C12 <0> d          -0.911   1.337  -3.435  0.00  0.00     0.166 C 
ATOM     10  C13 <0> d          -0.105   3.558  -4.280  0.00  0.00     0.037 C 
ATOM     11  C14 <0> d          -1.541   4.094  -4.284  0.00  0.00     0.129 C 
ATOM     12  N2  <0> d          -2.188   3.700  -5.543  0.00  0.00    -0.334 N 
ATOM     13  C15 <0> d          -2.196   2.281  -5.922  0.00  0.00     0.129 C 
ATOM     14  C16 <0> d          -0.755   1.759  -5.905  0.00  0.00     0.037 C 
ATOM     15  C17 <0> d          -2.765   4.625  -6.336  0.00  0.00     0.323 C 
ATOM     16  O2  <0> d          -3.237   4.297  -7.408  0.00  0.00    -0.247 OA
ATOM     17  N3  <0> d          -2.818   5.913  -5.942  0.00  0.00    -0.305 N 
ATOM     18  H24 <0> d          -2.360   6.215  -4.989  0.00  0.00     0.171 HD
ENDROOT
BRANCH   9  19
ATOM     19  O1  <0> d          -1.556   0.167  -3.944  0.00  0.00    -0.392 OA
ATOM     20  H15 <0> d          -2.377   0.263  -4.670  0.00  0.00     0.210 HD
ENDBRANCH   9  19
BRANCH   1  21
ATOM     21  N1  <0> d           0.346   2.003  -1.413  0.00  0.00    -0.065 N 
ATOM     22  C3  <0> d           1.564   1.798  -0.617  0.00  0.00     0.270 C 
ATOM     23  H31 <0> d           0.439   2.970  -1.928  0.00  0.00     0.280 HD
BRANCH  21  24
ATOM     24  C2  <0> d          -0.842   2.062  -0.551  0.00  0.00     0.231 C 
ATOM     25  C1  <0> d          -0.814   3.355   0.268  0.00  0.00     0.034 C 
ENDBRANCH  21  24
ENDBRANCH   1  21
BRANCH  17  26
ATOM     26  C18 <0> d          -3.461   6.870  -6.749  0.00  0.00     0.094 A 
ATOM     27  C20 <0> d          -4.223   7.923  -6.354  0.00  0.00     0.103 A 
ATOM     28  O3  <0> d          -4.616   8.547  -7.476  0.00  0.00    -0.216 OA
ATOM     29  C21 <0> d          -4.561   8.313  -4.938  0.00  0.00     0.081 C 
ATOM     30  N4  <0> d          -4.186   8.001  -8.464  0.00  0.00    -0.131 NA
ATOM     31  C19 <0> d          -3.458   6.964  -8.164  0.00  0.00     0.087 A 
ATOM     32  C22 <0> d          -2.755   6.044  -9.128  0.00  0.00     0.075 C 
ENDBRANCH  17  26
TORSDOF 4
