REMARK  5 active torsions:
REMARK  status: ('A' for Active; 'I' for Inactive)
REMARK    1  A    between atoms: C5_5  and  N1_9 
REMARK       I    between atoms: N1_9  and  C9_10 
REMARK       I    between atoms: C9_10  and  N2_12 
REMARK    2  A    between atoms: N2_12  and  C10_13 
REMARK    3  A    between atoms: C10_13  and  C11_14 
REMARK    4  A    between atoms: C11_14  and  C12_15 
REMARK    5  A    between atoms: C11_14  and  C17_21 
ROOT
ATOM      1  C11 <0> d          -5.989   2.290  -0.372  0.00  0.00     0.073 C 
ENDROOT
BRANCH   1   2
ATOM      2  C10 <0> d          -4.821   1.306  -0.282  0.00  0.00     0.138 C 
BRANCH   2   3
ATOM      3  N2  <0> d          -3.564   2.049  -0.173  0.00  0.00    -0.342 N 
ATOM      4  C9  <0> d          -2.394   1.385  -0.081  0.00  0.00     0.320 C 
ATOM      5  N1  <0> d          -1.237   2.069   0.019  0.00  0.00    -0.308 N 
ATOM      6  O1  <0> d          -2.383   0.170  -0.088  0.00  0.00    -0.247 OA
ATOM      7  H11 <0> d          -1.252   3.166   0.100  0.00  0.00     0.170 HD
ATOM      8  H12 <0> d          -3.574   3.149  -0.167  0.00  0.00     0.164 HD
BRANCH   5   9
ATOM      9  C5  <0> d          -0.017   1.384   0.020  0.00  0.00     0.042 A 
ATOM     10  C4  <0> d           0.078   0.134   0.619  0.00  0.00     0.030 A 
ATOM     11  C3  <0> d           1.282  -0.542   0.613  0.00  0.00     0.009 A 
ATOM     12  C2  <0> d           2.392   0.023   0.013  0.00  0.00    -0.061 A 
ATOM     13  C1  <0> d           3.704  -0.718   0.008  0.00  0.00     0.048 C 
ATOM     14  C7  <0> d           2.300   1.267  -0.584  0.00  0.00     0.015 A 
ATOM     15  C6  <0> d           1.099   1.949  -0.581  0.00  0.00    -0.035 A 
ATOM     16  C8  <0> d           1.000   3.305  -1.232  0.00  0.00     0.050 C 
ENDBRANCH   5   9
ENDBRANCH   2   3
ENDBRANCH   1   2
BRANCH   1  17
ATOM     17  C12 <0> d          -6.094   3.065   0.916  0.00  0.00    -0.030 A 
ATOM     18  C16 <0> d          -6.310   2.408   2.112  0.00  0.00     0.124 A 
ATOM     19  N3  <0> d          -6.403   3.079   3.244  0.00  0.00    -0.273 NA
ATOM     20  C15 <0> d          -6.294   4.392   3.282  0.00  0.00     0.116 A 
ATOM     21  C14 <0> d          -6.077   5.117   2.125  0.00  0.00     0.020 A 
ATOM     22  C13 <0> d          -5.969   4.446   0.917  0.00  0.00     0.011 A 
ENDBRANCH   1  17
BRANCH   1  23
ATOM     23  C17 <0> d          -7.269   1.530  -0.607  0.00  0.00    -0.020 A 
ATOM     24  C20 <0> d          -8.172   1.677  -1.752  0.00  0.00    -0.001 A 
ATOM     25  C19 <0> d          -9.222   0.765  -1.537  0.00  0.00     0.044 A 
ATOM     26  C21 <0> d          -8.161   2.468  -2.901  0.00  0.00     0.014 A 
ATOM     27  N4  <0> d          -8.969   0.127  -0.344  0.00  0.00    -0.360 N 
ATOM     28  C24 <0> d         -10.247   0.673  -2.474  0.00  0.00     0.030 A 
ATOM     29  C18 <0> d          -7.802   0.596   0.196  0.00  0.00     0.099 A 
ATOM     30  C25 <0> d          -9.822  -0.900   0.259  0.00  0.00     0.155 C 
ATOM     31  C23 <0> d         -10.218   1.468  -3.599  0.00  0.00     0.002 A 
ATOM     32  C22 <0> d          -9.177   2.361  -3.809  0.00  0.00     0.001 A 
ENDBRANCH   1  23
TORSDOF 5
