REMARK  8 active torsions:
REMARK  status: ('A' for Active; 'I' for Inactive)
REMARK    1  A    between atoms: C5_5  and  C8_8 
REMARK    2  A    between atoms: C9_10  and  C11_13 
REMARK    3  A    between atoms: C11_13  and  S2_14 
REMARK    4  A    between atoms: S2_14  and  C12_17 
REMARK    5  A    between atoms: C12_17  and  C13_18 
REMARK       I    between atoms: C13_18  and  N2_20 
REMARK    6  A    between atoms: N2_20  and  C14_21 
REMARK    7  A    between atoms: C14_21  and  C15_22 
REMARK    8  A    between atoms: C15_22  and  N3_23 
REMARK       I    between atoms: N3_23  and  C16_24 
ROOT
ATOM      1  S2  <0> d          -1.603  -7.734   2.459  0.00  0.00     0.158 S 
ATOM      2  O1  <0> d          -2.231  -6.547   2.923  0.00  0.00    -0.227 OA
ATOM      3  O2  <0> d          -2.204  -8.464   1.398  0.00  0.00    -0.227 OA
ENDROOT
BRANCH   1   4
ATOM      4  C11 <0> d           0.102  -7.334   1.986  0.00  0.00     0.200 C 
BRANCH   4   5
ATOM      5  C9  <0> d           0.089  -6.396   0.806  0.00  0.00     0.056 A 
ATOM      6  N1  <0> d           0.072  -5.098   0.998  0.00  0.00    -0.244 NA
ATOM      7  C8  <0> d           0.061  -4.251  -0.021  0.00  0.00     0.108 A 
ATOM      8  S1  <0> d           0.068  -5.379  -1.409  0.00  0.00    -0.079 SA
ATOM      9  C10 <0> d           0.097  -6.894  -0.459  0.00  0.00     0.080 A 
BRANCH   7  10
ATOM     10  C5  <0> d           0.041  -2.773  -0.013  0.00  0.00    -0.000 A 
ATOM     11  C4  <0> d           0.025  -2.066  -1.216  0.00  0.00     0.015 A 
ATOM     12  C3  <0> d           0.006  -0.686  -1.202  0.00  0.00     0.007 A 
ATOM     13  C2  <0> d           0.002  -0.004   0.002  0.00  0.00    -0.062 A 
ATOM     14  C1  <0> d          -0.018   1.503   0.010  0.00  0.00     0.048 C 
ATOM     15  C7  <0> d           0.023  -0.699   1.198  0.00  0.00     0.007 A 
ATOM     16  C6  <0> d           0.037  -2.079   1.197  0.00  0.00     0.015 A 
ENDBRANCH   7  10
ENDBRANCH   4   5
ENDBRANCH   1   4
BRANCH   1  17
ATOM     17  C12 <0> d          -1.375  -8.852   3.869  0.00  0.00     0.243 C 
BRANCH  17  18
ATOM     18  C13 <0> d          -2.722  -9.285   4.389  0.00  0.00     0.231 C 
ATOM     19  O3  <0> d          -3.735  -8.879   3.861  0.00  0.00    -0.273 OA
ATOM     20  N2  <0> d          -2.800 -10.123   5.442  0.00  0.00    -0.359 N 
ATOM     21  H13 <0> d          -1.990 -10.447   5.865  0.00  0.00     0.162 HD
BRANCH  20  22
ATOM     22  C14 <0> d          -4.109 -10.543   5.948  0.00  0.00     0.142 C 
BRANCH  22  23
ATOM     23  C15 <0> d          -3.917 -11.486   7.137  0.00  0.00     0.142 C 
BRANCH  23  24
ATOM     24  N3  <0> d          -5.226 -11.907   7.643  0.00  0.00    -0.360 N 
ATOM     25  C16 <0> d          -5.304 -12.745   8.696  0.00  0.00     0.213 C 
ATOM     26  O4  <0> d          -4.291 -13.151   9.224  0.00  0.00    -0.274 OA
ATOM     27  C17 <0> d          -6.651 -13.177   9.216  0.00  0.00     0.117 C 
ATOM     28  H18 <0> d          -6.037 -11.582   7.220  0.00  0.00     0.162 HD
ENDBRANCH  23  24
ENDBRANCH  22  23
ENDBRANCH  20  22
ENDBRANCH  17  18
ENDBRANCH   1  17
TORSDOF 8
