REMARK  6 active torsions:
REMARK  status: ('A' for Active; 'I' for Inactive)
REMARK    1  A    between atoms: C3_3  and  C7_9 
REMARK    2  A    between atoms: C8_10  and  C9_11 
REMARK       I    between atoms: C9_11  and  N3_13 
REMARK    3  A    between atoms: N3_13  and  C10_14 
REMARK    4  A    between atoms: N5_17  and  C13_19 
REMARK    5  A    between atoms: C13_19  and  C14_20 
REMARK    6  A    between atoms: C14_20  and  N6_21 
ROOT
ATOM      1  C9  <0> d          -0.929   0.969  -4.302  0.00  0.00     0.245 C 
ATOM      2  O1  <0> d          -0.119   0.522  -5.094  0.00  0.00    -0.268 OA
ATOM      3  N3  <0> d          -1.839   1.877  -4.708  0.00  0.00    -0.321 N 
ATOM      4  H12 <0> d          -2.484   2.233  -4.077  0.00  0.00     0.169 HD
ENDROOT
BRANCH   3   5
ATOM      5  C10 <0> d          -1.851   2.309  -6.047  0.00  0.00     0.071 A 
ATOM      6  C12 <0> d          -2.708   3.214  -6.587  0.00  0.00     0.143 A 
ATOM      7  N5  <0> d          -2.384   3.353  -7.899  0.00  0.00    -0.277 N 
ATOM      8  N4  <0> d          -1.305   2.501  -8.168  0.00  0.00    -0.183 NA
ATOM      9  C11 <0> d          -0.986   1.877  -7.063  0.00  0.00     0.169 A 
BRANCH   7  10
ATOM     10  C13 <0> d          -3.049   4.233  -8.863  0.00  0.00     0.178 C 
BRANCH  10  11
ATOM     11  C14 <0> d          -2.012   5.147  -9.518  0.00  0.00     0.255 C 
BRANCH  11  12
ATOM     12  N6  <0> d          -2.678   6.030 -10.485  0.00  0.00    -0.077 N 
ATOM     13  C15 <0> d          -1.704   6.987 -11.027  0.00  0.00     0.269 C 
ATOM     14  C16 <0> d          -3.235   5.225 -11.581  0.00  0.00     0.269 C 
ATOM     15  H25 <0> d          -3.423   6.532 -10.024  0.00  0.00     0.279 HD
ENDBRANCH  11  12
ENDBRANCH  10  11
ENDBRANCH   7  10
ENDBRANCH   3   5
BRANCH   1  16
ATOM     16  C8  <0> d          -0.916   0.533  -2.953  0.00  0.00     0.075 C 
ATOM     17  C7  <0> d          -0.005  -0.377  -2.546  0.00  0.00     0.021 C 
BRANCH  17  18
ATOM     18  C3  <0> d           0.008  -0.829  -1.147  0.00  0.00     0.014 A 
ATOM     19  C2  <0> d           0.002  -0.004   0.002  0.00  0.00     0.063 A 
ATOM     20  C1  <0> d          -0.018   1.503   0.010  0.00  0.00     0.073 C 
ATOM     21  N2  <0> d           0.023  -0.776   1.053  0.00  0.00    -0.177 NA
ATOM     22  N1  <0> d           0.035  -2.112   0.636  0.00  0.00    -0.278 N 
ATOM     23  C4  <0> d           0.029  -2.139  -0.707  0.00  0.00     0.038 A 
ATOM     24  C5  <0> d           0.056  -3.283   1.517  0.00  0.00     0.179 C 
ATOM     25  C6  <0> d           0.042  -3.372  -1.575  0.00  0.00     0.071 C 
ENDBRANCH  17  18
ENDBRANCH   1  16
TORSDOF 6
