REMARK  6 active torsions:
REMARK  status: ('A' for Active; 'I' for Inactive)
REMARK    1  A    between atoms: C6_6  and  S1_7 
REMARK    2  A    between atoms: S1_7  and  C7_8 
REMARK    3  A    between atoms: C7_8  and  C8_9 
REMARK    4  A    between atoms: C8_9  and  N1_10 
REMARK    5  A    between atoms: N1_10  and  S2_11 
REMARK    6  A    between atoms: S2_11  and  C9_14 
ROOT
ATOM      1  S2  <0> d          -2.876  -6.148   0.369  0.00  0.00     0.258 S 
ATOM      2  O1  <0> d          -2.179  -7.380   0.244  0.00  0.00    -0.201 OA
ATOM      3  O2  <0> d          -3.515  -5.753   1.575  0.00  0.00    -0.201 OA
ENDROOT
BRANCH   1   4
ATOM      4  N1  <0> d          -1.793  -4.952  -0.007  0.00  0.00    -0.315 N 
ATOM      5  H11 <0> d          -0.878  -5.180  -0.234  0.00  0.00     0.172 HD
BRANCH   4   6
ATOM      6  C8  <0> d          -2.218  -3.550   0.005  0.00  0.00     0.142 C 
BRANCH   6   7
ATOM      7  C7  <0> d          -0.985  -2.644  -0.002  0.00  0.00     0.100 C 
BRANCH   7   8
ATOM      8  S1  <0> d          -1.511  -0.907   0.012  0.00  0.00    -0.128 SA
BRANCH   8   9
ATOM      9  C6  <0> d           0.002  -0.004   0.002  0.00  0.00     0.000 A 
ATOM     10  C1  <0> d          -0.017   1.385   0.010  0.00  0.00     0.020 A 
ATOM     11  C2  <0> d           1.170   2.091   0.002  0.00  0.00     0.025 A 
ATOM     12  C3  <0> d           2.378   1.415  -0.013  0.00  0.00     0.034 A 
ATOM     13  C4  <0> d           2.400   0.031  -0.021  0.00  0.00     0.025 A 
ATOM     14 Cl1  <0> d           3.869   2.305  -0.023  0.00  0.00    -0.084 Cl
ATOM     15  C5  <0> d           1.216  -0.680  -0.013  0.00  0.00     0.020 A 
ENDBRANCH   8   9
ENDBRANCH   7   8
ENDBRANCH   6   7
ENDBRANCH   4   6
ENDBRANCH   1   4
BRANCH   1  16
ATOM     16  C9  <0> d          -4.115  -6.141  -0.884  0.00  0.00     0.080 A 
ATOM     17  C14 <0> d          -3.955  -6.920  -2.010  0.00  0.00     0.044 A 
ATOM     18  C13 <0> d          -4.940  -6.914  -2.994  0.00  0.00     0.060 A 
ATOM     19  C12 <0> d          -6.083  -6.109  -2.841  0.00  0.00     0.052 A 
ATOM     20  C15 <0> d          -4.822  -7.731  -4.215  0.00  0.00     0.261 A 
ATOM     21  C11 <0> d          -6.224  -5.329  -1.703  0.00  0.00     0.032 A 
ATOM     22  N3  <0> d          -7.046  -6.119  -3.840  0.00  0.00    -0.308 N 
ATOM     23  C10 <0> d          -5.242  -5.348  -0.733  0.00  0.00     0.027 A 
ATOM     24  C16 <0> d          -6.889  -6.883  -4.934  0.00  0.00     0.327 A 
ATOM     25  H2  <0> d          -7.839  -5.569  -3.747  0.00  0.00     0.170 HD
ATOM     26  N2  <0> d          -5.817  -7.667  -5.127  0.00  0.00    -0.275 N 
ATOM     27  O4  <0> d          -7.756  -6.863  -5.787  0.00  0.00    -0.247 OA
ATOM     28  H1  <0> d          -5.755  -8.198  -5.936  0.00  0.00     0.173 HD
ATOM     29  O3  <0> d          -3.854  -8.444  -4.397  0.00  0.00    -0.267 OA
ENDBRANCH   1  16
TORSDOF 6
