REMARK  5 active torsions:
REMARK  status: ('A' for Active; 'I' for Inactive)
REMARK    1  A    between atoms: C8_10  and  C9_12 
REMARK    2  A    between atoms: C9_12  and  C10_13 
REMARK       I    between atoms: C10_13  and  N2_15 
REMARK    3  A    between atoms: N2_15  and  C11_16 
REMARK    4  A    between atoms: C11_16  and  C12_17 
REMARK    5  A    between atoms: C12_17  and  N3_18 
ROOT
ATOM      1  C9  <0> d           3.414  -2.080  -2.397  0.00  0.00     0.128 C 
ENDROOT
BRANCH   1   2
ATOM      2  C8  <0> d           3.534  -2.357  -0.897  0.00  0.00     0.153 C 
ATOM      3  C7  <0> d           2.221  -2.873  -0.370  0.00  0.00     0.236 C 
ATOM      4  N1  <0> d           1.205  -2.081  -0.044  0.00  0.00    -0.325 N 
ATOM      5  O1  <0> d           2.083  -4.071  -0.238  0.00  0.00    -0.272 OA
ATOM      6  C5  <0> d           1.213  -0.690  -0.015  0.00  0.00     0.051 A 
ATOM      7  H6  <0> d           0.373  -2.517   0.199  0.00  0.00     0.169 HD
ATOM      8  C4  <0> d           2.401   0.041  -0.015  0.00  0.00     0.028 A 
ATOM      9  C6  <0> d           0.002  -0.004   0.002  0.00  0.00     0.031 A 
ATOM     10  C3  <0> d           2.377   1.426  -0.008  0.00  0.00     0.021 A 
ATOM     11  S1  <0> d           3.943  -0.819  -0.017  0.00  0.00    -0.113 SA
ATOM     12  C2  <0> d           1.166   2.094   0.002  0.00  0.00     0.002 A 
ATOM     13  C1  <0> d          -0.017   1.377   0.010  0.00  0.00     0.002 A 
ENDBRANCH   1   2
BRANCH   1  14
ATOM     14  C10 <0> d           4.760  -1.682  -2.944  0.00  0.00     0.219 C 
ATOM     15  O2  <0> d           5.722  -1.625  -2.207  0.00  0.00    -0.274 OA
ATOM     16  N2  <0> d           4.896  -1.388  -4.252  0.00  0.00    -0.359 N 
ATOM     17  H9  <0> d           4.127  -1.434  -4.842  0.00  0.00     0.162 HD
BRANCH  16  18
ATOM     18  C11 <0> d           6.205  -1.001  -4.784  0.00  0.00     0.143 C 
BRANCH  18  19
ATOM     19  C12 <0> d           6.085  -0.724  -6.284  0.00  0.00     0.148 C 
BRANCH  19  20
ATOM     20  N3  <0> d           7.394  -0.337  -6.816  0.00  0.00    -0.350 N 
ATOM     21  C15 <0> d           8.333  -1.167  -7.317  0.00  0.00     0.182 A 
ATOM     22  N4  <0> d           9.361  -0.458  -7.694  0.00  0.00    -0.361 N 
ATOM     23  C14 <0> d           9.121   0.837  -7.441  0.00  0.00     0.106 A 
ATOM     24  H17 <0> d          10.173  -0.812  -8.090  0.00  0.00     0.166 HD
ATOM     25  C13 <0> d           7.896   0.935  -6.892  0.00  0.00     0.108 A 
ENDBRANCH  19  20
ENDBRANCH  18  19
ENDBRANCH  16  18
ENDBRANCH   1  14
TORSDOF 5
