REMARK  2 active torsions:
REMARK  status: ('A' for Active; 'I' for Inactive)
REMARK    1  A    between atoms: C3_3  and  C5_8 
REMARK    2  A    between atoms: C4_5  and  N2_7 
ROOT
ATOM      1  C5  <0> d          -2.497  -0.597   0.069  0.00  0.00    -0.005 A 
ATOM      2  C6  <0> d          -2.862   0.615   0.669  0.00  0.00     0.023 A 
ATOM      3  C7  <0> d          -4.196   0.962   0.706  0.00  0.00    -0.028 A 
ATOM      4  C8  <0> d          -5.075   0.084   0.145  0.00  0.00     0.050 A 
ATOM      5  C9  <0> d          -4.770  -1.108  -0.452  0.00  0.00    -0.017 A 
ATOM      6  C10 <0> d          -3.443  -1.462  -0.499  0.00  0.00     0.024 A 
ATOM      7  C11 <0> d          -6.112  -1.640  -0.880  0.00  0.00     0.109 A 
ATOM      8  C12 <0> d          -7.103  -0.575  -0.426  0.00  0.00     0.232 A 
ATOM      9  O1  <0> d          -8.306  -0.608  -0.576  0.00  0.00    -0.272 OA
ATOM     10  N3  <0> d          -6.401   0.414   0.174  0.00  0.00    -0.316 N 
ATOM     11  C13 <0> d          -6.490   1.720   0.854  0.00  0.00     0.137 A 
ATOM     12  C14 <0> d          -5.035   2.104   1.218  0.00  0.00     0.061 A 
ATOM     13  C15 <0> d          -6.404  -2.974  -0.191  0.00  0.00     0.025 C 
ENDROOT
BRANCH   1  14
ATOM     14  C3  <0> d          -1.064  -0.974   0.026  0.00  0.00     0.082 A 
ATOM     15  C2  <0> d          -0.272  -0.801   1.126  0.00  0.00     0.012 A 
ATOM     16  C1  <0> d          -0.621  -0.250   2.484  0.00  0.00     0.059 C 
ATOM     17  S1  <0> d           1.295  -1.400   0.507  0.00  0.00    -0.055 SA
ATOM     18  C4  <0> d           0.739  -1.826  -1.138  0.00  0.00     0.165 A 
ATOM     19  N1  <0> d          -0.535  -1.485  -1.083  0.00  0.00    -0.223 NA
BRANCH  18  20
ATOM     20  N2  <0> d           1.457  -2.366  -2.192  0.00  0.00    -0.378 N 
ATOM     21  H5  <0> d           1.018  -2.543  -3.039  0.00  0.00     0.158 HD
ATOM     22  H6  <0> d           2.400  -2.568  -2.084  0.00  0.00     0.158 HD
ENDBRANCH  18  20
ENDBRANCH   1  14
TORSDOF 2
