REMARK  8 active torsions:
REMARK  status: ('A' for Active; 'I' for Inactive)
REMARK    1  A    between atoms: C2_2  and  C4_4 
REMARK    2  A    between atoms: C4_4  and  C5_5 
REMARK    3  A    between atoms: C4_4  and  N4_16 
REMARK       I    between atoms: C5_5  and  N1_7 
REMARK    4  A    between atoms: N1_7  and  C6_8 
REMARK    5  A    between atoms: C6_8  and  C7_9 
REMARK    6  A    between atoms: C7_9  and  C8_10 
REMARK    7  A    between atoms: C8_10  and  N2_11 
REMARK       I    between atoms: N4_16  and  C12_17 
REMARK    8  A    between atoms: C12_17  and  C13_19 
ROOT
ATOM      1  C4  <0> d           0.765  -0.592  -1.187  0.00  0.00     0.180 C 
ENDROOT
BRANCH   1   2
ATOM      2  C2  <0> d          -0.248  -0.447  -0.050  0.00  0.00     0.009 C 
ATOM      3  C1  <0> d          -1.436  -1.376  -0.303  0.00  0.00     0.012 C 
ATOM      4  C3  <0> d           0.418  -0.820   1.276  0.00  0.00     0.012 C 
ENDBRANCH   1   2
BRANCH   1   5
ATOM      5  C5  <0> d           0.152  -0.095  -2.471  0.00  0.00     0.240 C 
ATOM      6  O1  <0> d          -0.385  -0.875  -3.229  0.00  0.00    -0.271 OA
ATOM      7  N1  <0> d           0.201   1.216  -2.779  0.00  0.00    -0.359 N 
ATOM      8  H9  <0> d           0.565   1.850  -2.141  0.00  0.00     0.162 HD
BRANCH   7   9
ATOM      9  C6  <0> d          -0.296   1.684  -4.075  0.00  0.00     0.124 C 
BRANCH   9  10
ATOM     10  C7  <0> d          -0.125   3.202  -4.169  0.00  0.00     0.040 C 
BRANCH  10  11
ATOM     11  C8  <0> d          -0.644   3.691  -5.523  0.00  0.00     0.130 C 
BRANCH  11  12
ATOM     12  N2  <0> d          -0.481   5.144  -5.612  0.00  0.00    -0.352 N 
ATOM     13  C11 <0> d           0.597   5.801  -6.090  0.00  0.00     0.182 A 
ATOM     14  N3  <0> d           0.374   7.084  -6.012  0.00  0.00    -0.361 N 
ATOM     15  C10 <0> d          -0.840   7.290  -5.479  0.00  0.00     0.106 A 
ATOM     16  H23 <0> d           0.989   7.780  -6.292  0.00  0.00     0.166 HD
ATOM     17  C9  <0> d          -1.391   6.089  -5.222  0.00  0.00     0.108 A 
ENDBRANCH  11  12
ENDBRANCH  10  11
ENDBRANCH   9  10
ENDBRANCH   7   9
ENDBRANCH   1   5
BRANCH   1  18
ATOM     18  N4  <0> d           1.134  -2.002  -1.336  0.00  0.00    -0.343 N 
ATOM     19  C12 <0> d           2.112  -2.526  -0.571  0.00  0.00     0.258 C 
ATOM     20  O2  <0> d           2.688  -1.829   0.241  0.00  0.00    -0.267 OA
ATOM     21  H19 <0> d           0.674  -2.558  -1.984  0.00  0.00     0.163 HD
BRANCH  19  22
ATOM     22  C13 <0> d           2.484  -3.946  -0.721  0.00  0.00     0.108 A 
ATOM     23  C18 <0> d           1.844  -4.926   0.046  0.00  0.00     0.135 A 
ATOM     24  C17 <0> d           2.194  -6.254  -0.104  0.00  0.00     0.043 A 
ATOM     25  F1  <0> d           0.882  -4.574   0.928  0.00  0.00    -0.205 F 
ATOM     26  C16 <0> d           3.183  -6.615  -1.001  0.00  0.00     0.006 A 
ATOM     27  C15 <0> d           3.824  -5.653  -1.760  0.00  0.00     0.043 A 
ATOM     28  C14 <0> d           3.482  -4.321  -1.627  0.00  0.00     0.135 A 
ATOM     29  F2  <0> d           4.110  -3.382  -2.369  0.00  0.00    -0.205 F 
ENDBRANCH  19  22
ENDBRANCH   1  18
TORSDOF 8
