REMARK  3 active torsions:
REMARK  status: ('A' for Active; 'I' for Inactive)
REMARK    1  A    between atoms: C3_4  and  N3_14 
REMARK    2  A    between atoms: N4_17  and  C15_20 
REMARK    3  A    between atoms: C16_21  and  C20_26 
REMARK       I    between atoms: C20_26  and  N6_28 
ROOT
ATOM      1  N3  <0> d           0.029  -2.784  -2.363  0.00  0.00    -0.362 N 
ATOM      2  C11 <0> d          -0.026  -4.250  -2.460  0.00  0.00     0.144 C 
ATOM      3  C12 <0> d          -1.217  -4.638  -3.345  0.00  0.00     0.144 C 
ATOM      4  N4  <0> d          -1.160  -3.848  -4.583  0.00  0.00    -0.362 N 
ATOM      5  C13 <0> d          -1.105  -2.382  -4.486  0.00  0.00     0.144 C 
ATOM      6  C14 <0> d           0.081  -1.994  -3.601  0.00  0.00     0.144 C 
ENDROOT
BRANCH   1   7
ATOM      7  C3  <0> d           0.027  -2.160  -1.129  0.00  0.00     0.141 A 
ATOM      8  N1  <0> d          -1.114  -1.827  -0.546  0.00  0.00    -0.215 NA
ATOM      9  C2  <0> d          -1.154  -1.231   0.632  0.00  0.00     0.125 A 
ATOM     10  C1  <0> d          -2.490  -0.882   1.235  0.00  0.00     0.093 C 
ATOM     11  N2  <0> d          -0.051  -0.929   1.290  0.00  0.00    -0.226 NA
ATOM     12  C7  <0> d           1.129  -1.231   0.782  0.00  0.00     0.114 A 
ATOM     13  C4  <0> d           1.251  -1.866  -0.467  0.00  0.00     0.053 A 
ATOM     14  S1  <0> d           2.811  -1.023   1.301  0.00  0.00    -0.073 SA
ATOM     15  C5  <0> d           2.625  -2.140  -0.918  0.00  0.00    -0.028 A 
ATOM     16  C10 <0> d           3.244  -2.785  -2.162  0.00  0.00     0.041 C 
ATOM     17  C6  <0> d           3.619  -1.761  -0.100  0.00  0.00    -0.008 A 
ATOM     18  C9  <0> d           4.692  -3.135  -1.767  0.00  0.00     0.010 C 
ATOM     19  C8  <0> d           4.976  -2.095  -0.661  0.00  0.00     0.047 C 
ENDBRANCH   1   7
BRANCH   4  20
ATOM     20  C15 <0> d          -1.158  -4.472  -5.816  0.00  0.00     0.141 A 
ATOM     21  N5  <0> d          -0.009  -4.758  -6.408  0.00  0.00    -0.242 NA
ATOM     22  C19 <0> d           0.038  -5.357  -7.582  0.00  0.00     0.119 A 
ATOM     23  C18 <0> d          -1.119  -5.705  -8.256  0.00  0.00     0.020 A 
ATOM     24  C17 <0> d          -2.349  -5.425  -7.688  0.00  0.00     0.022 A 
ATOM     25  C16 <0> d          -2.377  -4.794  -6.439  0.00  0.00     0.077 A 
BRANCH  25  26
ATOM     26  C20 <0> d          -3.660  -4.473  -5.788  0.00  0.00     0.253 C 
ATOM     27  O1  <0> d          -3.674  -3.837  -4.752  0.00  0.00    -0.268 OA
ATOM     28  N6  <0> d          -4.818  -4.886  -6.341  0.00  0.00    -0.366 N 
ATOM     29  H21 <0> d          -4.807  -5.394  -7.168  0.00  0.00     0.159 HD
ATOM     30  H22 <0> d          -5.662  -4.675  -5.913  0.00  0.00     0.159 HD
ENDBRANCH  25  26
ENDBRANCH   4  20
TORSDOF 3
