REMARK  7 active torsions:
REMARK  status: ('A' for Active; 'I' for Inactive)
REMARK    1  A    between atoms: C5_5  and  C13_16 
REMARK    2  A    between atoms: C7_7  and  N1_8 
REMARK       I    between atoms: N1_8  and  C8_9 
REMARK    3  A    between atoms: C8_9  and  C9_11 
REMARK       I    between atoms: C13_16  and  N2_18 
REMARK    4  A    between atoms: N2_18  and  C14_19 
REMARK    5  A    between atoms: C17_22  and  S1_25 
REMARK    6  A    between atoms: S1_25  and  N3_28 
REMARK    7  A    between atoms: N3_28  and  C20_29 
ROOT
ATOM      1  C13 <0> d          -0.005   0.064   0.073  0.00  0.00     0.256 C 
ATOM      2  O3  <0> d           1.060  -0.513  -0.027  0.00  0.00    -0.267 OA
ATOM      3  N2  <0> d          -0.042   1.411   0.095  0.00  0.00    -0.323 N 
ATOM      4  H11 <0> d          -0.895   1.873   0.101  0.00  0.00     0.169 HD
ENDROOT
BRANCH   3   5
ATOM      5  C14 <0> d           1.150   2.143   0.103  0.00  0.00     0.035 A 
ATOM      6  C19 <0> d           2.256   1.680  -0.599  0.00  0.00     0.031 A 
ATOM      7  C18 <0> d           3.431   2.406  -0.589  0.00  0.00     0.027 A 
ATOM      8  C17 <0> d           3.507   3.592   0.117  0.00  0.00     0.080 A 
ATOM      9  C16 <0> d           2.408   4.056   0.817  0.00  0.00     0.027 A 
ATOM     10  C15 <0> d           1.228   3.338   0.807  0.00  0.00     0.031 A 
BRANCH   8  11
ATOM     11  S1  <0> d           5.008   4.515   0.128  0.00  0.00     0.276 S 
ATOM     12  O4  <0> d           4.989   5.308   1.306  0.00  0.00    -0.200 OA
ATOM     13  O5  <0> d           6.053   3.593  -0.154  0.00  0.00    -0.200 OA
BRANCH  11  14
ATOM     14  N3  <0> d           4.946   5.565  -1.151  0.00  0.00    -0.109 N 
ATOM     15  H16 <0> d           5.573   5.473  -1.885  0.00  0.00     0.198 HD
BRANCH  14  16
ATOM     16  C20 <0> d           3.998   6.574  -1.173  0.00  0.00     0.735 A 
ATOM     17  N5  <0> d           4.140   7.576  -2.028  0.00  0.00    -0.074 NA
ATOM     18  C23 <0> d           3.252   8.555  -2.074  0.00  0.00     0.138 A 
ATOM     19  C22 <0> d           2.166   8.525  -1.214  0.00  0.00     0.040 A 
ATOM     20  C21 <0> d           2.049   7.462  -0.332  0.00  0.00     0.138 A 
ATOM     21  N4  <0> d           2.969   6.512  -0.341  0.00  0.00    -0.074 NA
ENDBRANCH  14  16
ENDBRANCH  11  14
ENDBRANCH   8  11
ENDBRANCH   3   5
BRANCH   1  22
ATOM     22  C5  <0> d          -1.260  -0.712   0.172  0.00  0.00     0.034 A 
ATOM     23  C4  <0> d          -2.484  -0.051   0.293  0.00  0.00     0.018 A 
ATOM     24  C3  <0> d          -3.654  -0.777   0.379  0.00  0.00     0.010 A 
ATOM     25  C2  <0> d          -3.619  -2.159   0.357  0.00  0.00    -0.035 A 
ATOM     26  C1  <0> d          -4.901  -2.944   0.458  0.00  0.00     0.050 C 
ATOM     27  C7  <0> d          -2.405  -2.826   0.243  0.00  0.00     0.042 A 
ATOM     28  C6  <0> d          -1.224  -2.106   0.150  0.00  0.00     0.047 A 
BRANCH  27  29
ATOM     29  N1  <0> d          -2.375  -4.224   0.221  0.00  0.00    -0.321 N 
ATOM     30  C8  <0> d          -1.348  -4.867  -0.370  0.00  0.00     0.279 C 
ATOM     31  O1  <0> d          -0.500  -4.235  -0.972  0.00  0.00    -0.265 OA
ATOM     32  H7  <0> d          -3.093  -4.731   0.631  0.00  0.00     0.169 HD
BRANCH  30  33
ATOM     33  C9  <0> d          -1.253  -6.328  -0.288  0.00  0.00     0.142 A 
ATOM     34  O2  <0> d          -2.118  -7.144   0.349  0.00  0.00    -0.317 OA
ATOM     35  C12 <0> d          -1.715  -8.414   0.211  0.00  0.00     0.143 A 
ATOM     36  C11 <0> d          -0.575  -8.431  -0.514  0.00  0.00     0.027 A 
ATOM     37  C10 <0> d          -0.271  -7.100  -0.838  0.00  0.00     0.045 A 
ENDBRANCH  30  33
ENDBRANCH  27  29
ENDBRANCH   1  22
TORSDOF 7
