REMARK  5 active torsions:
REMARK  status: ('A' for Active; 'I' for Inactive)
REMARK    1  A    between atoms: C2_2  and  C3_3 
REMARK    2  A    between atoms: C3_3  and  C4_4 
REMARK    3  A    between atoms: C4_4  and  C5_5 
REMARK       I    between atoms: C5_5  and  N1_7 
REMARK    4  A    between atoms: C7_9  and  C14_17 
REMARK       I    between atoms: C14_17  and  N3_19 
REMARK    5  A    between atoms: N3_19  and  C15_20 
ROOT
ATOM      1  C5  <0> d           1.245  -2.576   2.258  0.00  0.00     0.219 C 
ATOM      2  O1  <0> d           1.637  -1.715   3.016  0.00  0.00    -0.273 OA
ATOM      3  N1  <0> d           1.477  -3.875   2.535  0.00  0.00    -0.351 N 
ATOM      4  C6  <0> d           1.086  -5.059   1.735  0.00  0.00     0.140 C 
ATOM      5  C7  <0> d           2.293  -6.018   1.840  0.00  0.00     0.106 C 
ATOM      6  C8  <0> d           3.007  -5.609   3.139  0.00  0.00    -0.007 C 
ATOM      7  C9  <0> d           2.187  -4.441   3.707  0.00  0.00     0.136 C 
ATOM      8  C10 <0> d           3.021  -6.774   4.123  0.00  0.00     0.039 C 
ATOM      9  C11 <0> d           3.787  -6.362   5.384  0.00  0.00     0.233 C 
ATOM     10  N2  <0> d           5.158  -5.983   5.024  0.00  0.00    -0.075 N 
ATOM     11  C12 <0> d           5.139  -4.803   4.150  0.00  0.00     0.233 C 
ATOM     12  C13 <0> d           4.430  -5.150   2.837  0.00  0.00     0.039 C 
ATOM     13  H20 <0> d           5.678  -5.771   5.862  0.00  0.00     0.277 HD
ATOM     14  H38 <0> d           5.602  -6.750   4.541  0.00  0.00     0.277 HD
ENDROOT
BRANCH   5  15
ATOM     15  C14 <0> d           3.209  -5.840   0.656  0.00  0.00     0.224 C 
ATOM     16  O2  <0> d           3.295  -4.759   0.113  0.00  0.00    -0.273 OA
ATOM     17  N3  <0> d           3.933  -6.882   0.202  0.00  0.00    -0.354 N 
ATOM     18  H25 <0> d           3.865  -7.746   0.637  0.00  0.00     0.162 HD
BRANCH  17  19
ATOM     19  C15 <0> d           4.824  -6.709  -0.948  0.00  0.00     0.114 C 
ATOM     20  C19 <0> d           5.942  -7.758  -0.895  0.00  0.00     0.013 C 
ATOM     21  C18 <0> d           5.297  -9.152  -0.966  0.00  0.00     0.034 C 
ATOM     22  C20 <0> d           6.835  -7.576  -2.129  0.00  0.00     0.034 C 
ATOM     23  C17 <0> d           4.489  -9.258  -2.261  0.00  0.00     0.235 C 
ATOM     24  N4  <0> d           4.585  -8.007  -3.017  0.00  0.00    -0.069 N 
ATOM     25  C16 <0> d           4.030  -6.894  -2.244  0.00  0.00     0.260 C 
ATOM     26  C21 <0> d           5.975  -7.735  -3.389  0.00  0.00     0.235 C 
ATOM     27  H37 <0> d           4.043  -8.111  -3.861  0.00  0.00     0.280 HD
ENDBRANCH  17  19
ENDBRANCH   5  15
BRANCH   1  28
ATOM     28  C4  <0> d           0.499  -2.195   1.006  0.00  0.00     0.103 C 
BRANCH  28  29
ATOM     29  C3  <0> d           0.372  -0.672   0.931  0.00  0.00     0.009 C 
BRANCH  29  30
ATOM     30  C2  <0> d          -0.386  -0.285  -0.341  0.00  0.00    -0.004 C 
ATOM     31  C1  <0> d          -0.513   1.238  -0.415  0.00  0.00     0.005 C 
ENDBRANCH  29  30
ENDBRANCH  28  29
ENDBRANCH   1  28
TORSDOF 5
