REMARK  1 active torsions:
REMARK  status: ('A' for Active; 'I' for Inactive)
REMARK    1  A    between atoms: C2_2  and  N1_5 
ROOT
ATOM      1  N1  <0> d           0.719  -0.442  -1.210  0.00  0.00    -0.369 N 
ATOM      2  C5  <0> d           1.967  -0.143  -1.376  0.00  0.00     0.108 C 
ATOM      3  N2  <0> d           2.699   0.494  -0.391  0.00  0.00    -0.342 N 
ATOM      4  C6  <0> d           3.636   1.460  -0.798  0.00  0.00     0.060 A 
ATOM      5  C7  <0> d           4.211   2.303   0.141  0.00  0.00     0.032 A 
ATOM      6  C8  <0> d           5.138   3.248  -0.257  0.00  0.00     0.002 A 
ATOM      7  C9  <0> d           5.494   3.355  -1.588  0.00  0.00     0.002 A 
ATOM      8  C10 <0> d           4.924   2.521  -2.531  0.00  0.00     0.031 A 
ATOM      9  C11 <0> d           3.989   1.573  -2.141  0.00  0.00     0.056 A 
ATOM     10  N3  <0> d           3.397   0.742  -3.103  0.00  0.00    -0.370 N 
ATOM     11  C12 <0> d           2.703  -0.479  -2.656  0.00  0.00     0.113 C 
ATOM     12  C13 <0> d           3.717  -1.590  -2.389  0.00  0.00     0.042 C 
ATOM     13  C14 <0> d           4.400  -1.972  -3.706  0.00  0.00     0.030 C 
ATOM     14  C15 <0> d           3.335  -2.380  -4.727  0.00  0.00     0.232 C 
ATOM     15  N4  <0> d           2.420  -1.256  -4.961  0.00  0.00    -0.072 N 
ATOM     16  C16 <0> d           1.706  -0.930  -3.720  0.00  0.00     0.271 C 
ATOM     17  H10 <0> d           0.207  -0.812  -1.947  0.00  0.00     0.161 HD
ATOM     18  H15 <0> d           3.445   0.966  -4.046  0.00  0.00     0.161 HD
ATOM     19  H22 <0> d           2.947  -0.451  -5.265  0.00  0.00     0.277 HD
ATOM     20  H25 <0> d           2.572   0.282   0.546  0.00  0.00     0.167 HD
ATOM     21  H26 <0> d           1.754  -1.509  -5.675  0.00  0.00     0.277 HD
ENDROOT
BRANCH   1  22
ATOM     22  C2  <0> d           0.080  -0.223   0.089  0.00  0.00     0.020 C 
ATOM     23  C1  <0> d           0.262   1.238   0.507  0.00  0.00     0.037 C 
ATOM     24  C3  <0> d           0.722  -1.136   1.135  0.00  0.00     0.037 C 
ATOM     25  C4  <0> d          -1.413  -0.540  -0.017  0.00  0.00     0.037 C 
ENDBRANCH   1  22
TORSDOF 1
