REMARK  7 active torsions:
REMARK  status: ('A' for Active; 'I' for Inactive)
REMARK    1  A    between atoms: C2_2  and  N4_25 
REMARK    2  A    between atoms: C3_3  and  N4_25 
REMARK    3  A    between atoms: C5_5  and  C6_6 
REMARK    4  A    between atoms: C5_5  and  N4_25 
REMARK    5  A    between atoms: C13_15  and  S2_17 
REMARK    6  A    between atoms: S2_17  and  C14_18 
REMARK    7  A    between atoms: C14_18  and  C16_20 
REMARK       I    between atoms: C16_20  and  N3_22 
ROOT
ATOM      1  C6  <0> d          -6.026  -1.553  -0.365  0.00  0.00     0.154 A 
ATOM      2  N1  <0> d          -7.166  -1.256  -0.959  0.00  0.00    -0.224 NA
ATOM      3  C7  <0> d          -7.359  -0.058  -1.473  0.00  0.00     0.113 A 
ATOM      4  C8  <0> d          -6.364   0.943  -1.402  0.00  0.00     0.042 A 
ATOM      5  C9  <0> d          -6.724   2.207  -2.018  0.00  0.00    -0.033 A 
ATOM      6  C10 <0> d          -7.934   2.339  -2.583  0.00  0.00    -0.012 A 
ATOM      7  S1  <0> d          -8.688   0.744  -2.330  0.00  0.00    -0.074 SA
ATOM      8  C11 <0> d          -8.517   3.548  -3.268  0.00  0.00     0.057 C 
ATOM      9  C12 <0> d          -5.753   3.359  -2.019  0.00  0.00     0.050 C 
ATOM     10  C13 <0> d          -5.157   0.557  -0.755  0.00  0.00     0.110 A 
ATOM     11  N2  <0> d          -5.050  -0.670  -0.267  0.00  0.00    -0.224 NA
ENDROOT
BRANCH  10  12
ATOM     12  S2  <0> d          -3.825   1.699  -0.598  0.00  0.00    -0.095 SA
BRANCH  12  13
ATOM     13  C14 <0> d          -2.585   0.631   0.176  0.00  0.00     0.141 C 
ATOM     14  C15 <0> d          -2.999   0.332   1.619  0.00  0.00     0.031 C 
BRANCH  13  15
ATOM     15  C16 <0> d          -1.249   1.328   0.171  0.00  0.00     0.229 C 
ATOM     16  O1  <0> d          -1.196   2.539   0.131  0.00  0.00    -0.272 OA
ATOM     17  N3  <0> d          -0.112   0.605   0.211  0.00  0.00    -0.369 N 
ATOM     18  H23 <0> d          -0.154  -0.364   0.242  0.00  0.00     0.159 HD
ATOM     19  H24 <0> d           0.748   1.053   0.203  0.00  0.00     0.159 HD
ENDBRANCH  13  15
ENDBRANCH  12  13
ENDBRANCH  10  12
BRANCH   1  20
ATOM     20  C5  <0> d          -5.834  -2.931   0.213  0.00  0.00     0.314 C 
BRANCH  20  21
ATOM     21  N4  <0> d          -6.155  -2.889   1.655  0.00  0.00    -0.065 N 
ATOM     22  H25 <0> d          -5.759  -2.032   2.060  0.00  0.00     0.280 HD
BRANCH  21  23
ATOM     23  C2  <0> d          -7.621  -2.877   1.846  0.00  0.00     0.231 C 
ATOM     24  C1  <0> d          -7.924  -2.608   3.322  0.00  0.00     0.034 C 
ENDBRANCH  21  23
BRANCH  21  25
ATOM     25  C3  <0> d          -5.566  -4.059   2.339  0.00  0.00     0.231 C 
ATOM     26  C4  <0> d          -4.069  -3.809   2.537  0.00  0.00     0.034 C 
ENDBRANCH  21  25
ENDBRANCH  20  21
ENDBRANCH   1  20
TORSDOF 7
