REMARK  7 active torsions:
REMARK  status: ('A' for Active; 'I' for Inactive)
REMARK    1  A    between atoms: C2_2  and  C3_3 
REMARK    2  A    between atoms: C6_6  and  C9_9 
REMARK    3  A    between atoms: C13_16  and  S1_19 
REMARK    4  A    between atoms: S1_19  and  C14_20 
REMARK    5  A    between atoms: C14_20  and  C15_21 
REMARK       I    between atoms: C15_21  and  N5_23 
REMARK    6  A    between atoms: N5_23  and  C16_24 
REMARK    7  A    between atoms: C21_29  and  C22_30 
ROOT
ATOM      1  C9  <0> d           4.949  -1.664   6.159  0.00  0.00     0.051 C 
ATOM      2  C10 <0> d           3.877  -1.908   6.949  0.00  0.00     0.035 C 
ATOM      3  C11 <0> d           4.258  -3.141   7.722  0.00  0.00     0.203 C 
ATOM      4  C12 <0> d           3.183  -4.166   7.918  0.00  0.00     0.284 C 
ATOM      5  O1  <0> d           2.018  -3.859   8.011  0.00  0.00    -0.267 OA
ATOM      6  N1  <0> d           3.591  -5.459   7.986  0.00  0.00    -0.112 NA
ATOM      7  N2  <0> d           4.753  -5.821   7.786  0.00  0.00    -0.156 NA
ATOM      8  C13 <0> d           5.838  -4.897   7.409  0.00  0.00     0.288 C 
ATOM      9  N3  <0> d           5.237  -3.752   6.766  0.00  0.00    -0.177 NA
ATOM     10  N4  <0> d           5.931  -2.660   6.379  0.00  0.00    -0.315 N 
ATOM     11  H13 <0> d           6.892  -2.577   6.277  0.00  0.00     0.181 HD
ENDROOT
BRANCH   8  12
ATOM     12  S1  <0> d           6.984  -5.721   6.269  0.00  0.00    -0.114 SA
BRANCH  12  13
ATOM     13  C14 <0> d           5.947  -6.165   4.848  0.00  0.00     0.180 C 
BRANCH  13  14
ATOM     14  C15 <0> d           6.787  -6.867   3.812  0.00  0.00     0.231 C 
ATOM     15  O2  <0> d           7.969  -7.049   4.013  0.00  0.00    -0.272 OA
ATOM     16  N5  <0> d           6.225  -7.291   2.663  0.00  0.00    -0.326 N 
ATOM     17  H16 <0> d           5.269  -7.194   2.526  0.00  0.00     0.169 HD
BRANCH  16  18
ATOM     18  C16 <0> d           7.019  -7.871   1.668  0.00  0.00     0.047 A 
ATOM     19  C21 <0> d           6.683  -9.113   1.146  0.00  0.00    -0.031 A 
ATOM     20  C20 <0> d           7.466  -9.681   0.160  0.00  0.00     0.009 A 
ATOM     21  C19 <0> d           8.590  -9.019  -0.299  0.00  0.00     0.001 A 
ATOM     22  C18 <0> d           8.930  -7.784   0.223  0.00  0.00     0.009 A 
ATOM     23  C17 <0> d           8.148  -7.209   1.205  0.00  0.00    -0.035 A 
ATOM     24  C24 <0> d           8.520  -5.863   1.773  0.00  0.00     0.050 C 
BRANCH  19  25
ATOM     25  C22 <0> d           5.463  -9.839   1.651  0.00  0.00     0.036 C 
ATOM     26  C23 <0> d           4.228  -9.349   0.891  0.00  0.00     0.010 C 
ENDBRANCH  19  25
ENDBRANCH  16  18
ENDBRANCH  13  14
ENDBRANCH  12  13
ENDBRANCH   8  12
BRANCH   1  27
ATOM     27  C6  <0> d           5.074  -0.535   5.209  0.00  0.00    -0.009 A 
ATOM     28  C5  <0> d           6.229  -0.390   4.441  0.00  0.00     0.014 A 
ATOM     29  C4  <0> d           6.339   0.664   3.557  0.00  0.00     0.008 A 
ATOM     30  C3  <0> d           5.306   1.575   3.431  0.00  0.00    -0.059 A 
ATOM     31  C8  <0> d           4.159   1.439   4.193  0.00  0.00     0.008 A 
ATOM     32  C7  <0> d           4.036   0.387   5.077  0.00  0.00     0.014 A 
BRANCH  30  33
ATOM     33  C2  <0> d           5.432   2.724   2.464  0.00  0.00     0.034 C 
ATOM     34  C1  <0> d           6.069   3.920   3.174  0.00  0.00     0.010 C 
ENDBRANCH  30  33
ENDBRANCH   1  27
TORSDOF 7
