REMARK  4 active torsions:
REMARK  status: ('A' for Active; 'I' for Inactive)
REMARK    1  A    between atoms: C5_9  and  N4_26 
REMARK    2  A    between atoms: C12_16  and  C13_17 
REMARK    3  A    between atoms: C12_16  and  N5_29 
REMARK    4  A    between atoms: C13_17  and  C14_18 
ROOT
ATOM      1  C1  <0> d           0.945   4.648  -3.453  0.00  0.00     0.070 C 
ATOM      2  C2  <0> d          -0.240   4.784  -4.376  0.00  0.00     0.035 A 
ATOM      3  C3  <0> d          -1.361   4.048  -4.385  0.00  0.00     0.035 A 
ATOM      4  C4  <0> d          -2.208   4.565  -5.390  0.00  0.00     0.199 A 
ATOM      5  N1  <0> d          -1.592   5.554  -5.976  0.00  0.00    -0.148 NA
ATOM      6  N2  <0> d          -0.343   5.712  -5.360  0.00  0.00    -0.280 N 
ATOM      7  H1  <0> d           0.351   6.389  -5.604  0.00  0.00     0.189 HD
ATOM      8  O1  <0> d          -3.443   4.059  -5.642  0.00  0.00    -0.272 OA
ATOM      9  C5  <0> d          -3.764   2.898  -5.037  0.00  0.00     0.161 C 
ATOM     10  C6  <0> d          -3.046   2.312  -4.060  0.00  0.00     0.086 C 
ATOM     11  C7  <0> d          -1.744   2.871  -3.506  0.00  0.00     0.037 C 
ATOM     12  C8  <0> d          -0.676   1.808  -3.635  0.00  0.00     0.048 C 
ATOM     13  C9  <0> d           0.074   1.411  -2.380  0.00  0.00     0.236 C 
ATOM     14  C10 <0> d          -1.054   2.993  -1.037  0.00  0.00     0.236 C 
ATOM     15  C11 <0> d          -2.040   3.401  -2.116  0.00  0.00     0.048 C 
ATOM     16  C20 <0> d          -3.563   1.095  -3.502  0.00  0.00     0.100 C 
ATOM     17  N3  <0> d          -3.972   0.132  -3.061  0.00  0.00    -0.191 NA
ATOM     18  N5  <0> d          -0.749   1.570  -1.186  0.00  0.00    -0.071 N 
ATOM     19  H24 <0> d          -1.619   1.036  -1.289  0.00  0.00     0.279 HD
ENDROOT
BRANCH   9  20
ATOM     20  N4  <0> d          -4.913   2.264  -5.445  0.00  0.00    -0.379 N 
ATOM     21  H22 <0> d          -5.460   2.655  -6.144  0.00  0.00     0.158 HD
ATOM     22  H23 <0> d          -5.178   1.426  -5.034  0.00  0.00     0.158 HD
ENDBRANCH   9  20
BRANCH  18  23
ATOM     23  C12 <0> d          -0.013   1.086   0.008  0.00  0.00     0.239 C 
BRANCH  23  24
ATOM     24  C13 <0> d           1.187   2.002   0.257  0.00  0.00     0.066 C 
BRANCH  24  25
ATOM     25  C14 <0> d           2.008   1.457   1.397  0.00  0.00    -0.057 A 
ATOM     26  C19 <0> d           3.034   0.566   1.146  0.00  0.00     0.007 A 
ATOM     27  C18 <0> d           3.787   0.066   2.192  0.00  0.00     0.001 A 
ATOM     28  C17 <0> d           3.513   0.457   3.489  0.00  0.00     0.000 A 
ATOM     29  C16 <0> d           2.487   1.348   3.740  0.00  0.00     0.001 A 
ATOM     30  C15 <0> d           1.738   1.852   2.694  0.00  0.00     0.007 A 
ENDBRANCH  24  25
ENDBRANCH  23  24
ENDBRANCH  18  23
TORSDOF 4
