REMARK  3 active torsions:
REMARK  status: ('A' for Active; 'I' for Inactive)
REMARK    1  A    between atoms: N1_4  and  C8_10 
REMARK    2  A    between atoms: C8_10  and  C9_11 
REMARK    3  A    between atoms: C9_11  and  N2_12 
ROOT
ATOM      1  C8  <0> d          -2.768  -2.557   0.042  0.00  0.00     0.302 C 
ENDROOT
BRANCH   1   2
ATOM      2  N1  <0> d          -1.407  -2.003   0.085  0.00  0.00     0.095 N 
ATOM      3  C3  <0> d          -1.434  -0.535   0.015  0.00  0.00     0.303 C 
ATOM      4  C2  <0> d           0.002  -0.004   0.002  0.00  0.00     0.147 C 
ATOM      5  C1  <0> d          -0.019   1.526   0.010  0.00  0.00     0.041 C 
ATOM      6  O1  <0> d           0.692  -0.479   1.161  0.00  0.00    -0.372 OA
ATOM      7  C5  <0> d           0.736  -1.905   1.261  0.00  0.00     0.080 C 
ATOM      8  C4  <0> d          -0.692  -2.455   1.287  0.00  0.00     0.309 C 
ATOM      9  C6  <0> d           1.461  -2.304   2.548  0.00  0.00     0.047 C 
ATOM     10  C7  <0> d           1.483  -2.478   0.055  0.00  0.00     0.047 C 
ENDBRANCH   1   2
BRANCH   1  11
ATOM     11  C9  <0> d          -3.393  -2.268  -1.324  0.00  0.00     0.302 C 
BRANCH  11  12
ATOM     12  N2  <0> d          -4.753  -2.822  -1.367  0.00  0.00     0.093 N 
ATOM     13  C13 <0> d          -5.298  -2.776  -2.731  0.00  0.00     0.300 C 
ATOM     14  C12 <0> d          -6.688  -3.415  -2.743  0.00  0.00     0.262 C 
ATOM     15  N3  <0> d          -7.570  -2.687  -1.821  0.00  0.00    -0.072 N 
ATOM     16  C11 <0> d          -7.026  -2.762  -0.459  0.00  0.00     0.262 C 
ATOM     17  H23 <0> d          -8.490  -3.100  -1.839  0.00  0.00     0.277 HD
ATOM     18  H28 <0> d          -7.630  -1.721  -2.106  0.00  0.00     0.277 HD
ATOM     19  C10 <0> d          -5.638  -2.118  -0.427  0.00  0.00     0.300 C 
ENDBRANCH  11  12
ENDBRANCH   1  11
TORSDOF 3
