REMARK  6 active torsions:
REMARK  status: ('A' for Active; 'I' for Inactive)
REMARK    1  A    between atoms: C2_2  and  C3_3 
REMARK    2  A    between atoms: C8_8  and  N1_9 
REMARK       I    between atoms: N1_9  and  C9_10 
REMARK    3  A    between atoms: C9_10  and  C10_12 
REMARK    4  A    between atoms: C10_12  and  N2_13 
REMARK    5  A    between atoms: N2_13  and  C12_15 
REMARK    6  A    between atoms: C12_15  and  C13_16 
ROOT
ATOM      1  N2  <0> d           6.366  -0.516   0.937  0.00  0.00    -0.060 N 
ATOM      2  C11 <0> d           6.527  -1.950   0.664  0.00  0.00     0.270 C 
ATOM      3  H22 <0> d           6.695   0.017   0.146  0.00  0.00     0.280 HD
ENDROOT
BRANCH   1   4
ATOM      4  C10 <0> d           4.947  -0.219   1.171  0.00  0.00     0.337 C 
BRANCH   4   5
ATOM      5  C9  <0> d           4.165  -0.474  -0.091  0.00  0.00     0.248 C 
ATOM      6  N1  <0> d           2.833  -0.268  -0.113  0.00  0.00    -0.325 N 
ATOM      7  H11 <0> d           2.388   0.106   0.663  0.00  0.00     0.169 HD
ATOM      8  O1  <0> d           4.734  -0.865  -1.088  0.00  0.00    -0.271 OA
BRANCH   6   9
ATOM      9  C8  <0> d           2.093  -0.594  -1.255  0.00  0.00     0.041 A 
ATOM     10  C3  <0> d           0.800  -1.084  -1.129  0.00  0.00    -0.032 A 
ATOM     11  C4  <0> d           0.070  -1.399  -2.258  0.00  0.00     0.009 A 
ATOM     12  C5  <0> d           0.627  -1.234  -3.513  0.00  0.00     0.001 A 
ATOM     13  C6  <0> d           1.917  -0.751  -3.641  0.00  0.00     0.002 A 
ATOM     14  C7  <0> d           2.652  -0.433  -2.516  0.00  0.00     0.030 A 
BRANCH  10  15
ATOM     15  C2  <0> d           0.191  -1.265   0.238  0.00  0.00     0.036 C 
ATOM     16  C1  <0> d          -0.422   0.058   0.702  0.00  0.00     0.010 C 
ENDBRANCH  10  15
ENDBRANCH   6   9
ENDBRANCH   4   5
ENDBRANCH   1   4
BRANCH   1  17
ATOM     17  C12 <0> d           7.145  -0.154   2.129  0.00  0.00     0.313 C 
BRANCH  17  18
ATOM     18  C13 <0> d           8.613  -0.343   1.845  0.00  0.00     0.133 A 
ATOM     19  N4  <0> d           8.964  -0.769   0.670  0.00  0.00    -0.233 NA
ATOM     20  C20 <0> d          10.266  -0.958   0.341  0.00  0.00     0.074 A 
ATOM     21  C15 <0> d          11.262  -0.693   1.308  0.00  0.00     0.062 A 
ATOM     22  C19 <0> d          10.644  -1.410  -0.924  0.00  0.00     0.034 A 
ATOM     23  C14 <0> d          10.831  -0.216   2.631  0.00  0.00     0.259 A 
ATOM     24  C16 <0> d          12.606  -0.883   0.996  0.00  0.00     0.043 A 
ATOM     25  N3  <0> d           9.502  -0.063   2.834  0.00  0.00    -0.309 N 
ATOM     26  O2  <0> d          11.638   0.030   3.508  0.00  0.00    -0.267 OA
ATOM     27  H1  <0> d           9.181   0.249   3.695  0.00  0.00     0.170 HD
ATOM     28  C17 <0> d          12.955  -1.332  -0.261  0.00  0.00     0.035 A 
ATOM     29 Cl1  <0> d          14.628  -1.571  -0.656  0.00  0.00    -0.084 Cl
ATOM     30  C18 <0> d          11.978  -1.593  -1.214  0.00  0.00     0.026 A 
ENDBRANCH  17  18
ENDBRANCH   1  17
TORSDOF 6
