REMARK  3 active torsions:
REMARK  status: ('A' for Active; 'I' for Inactive)
REMARK    1  A    between atoms: C4_4  and  C5_8 
REMARK       I    between atoms: C5_8  and  N3_10 
REMARK    2  A    between atoms: N3_10  and  C6_11 
REMARK    3  A    between atoms: C6_11  and  C8_13 
ROOT
ATOM      1  C5  <0> d           0.041  -3.356  -1.443  0.00  0.00     0.271 C 
ATOM      2  O1  <0> d           0.034  -3.300  -2.658  0.00  0.00    -0.266 OA
ATOM      3  N3  <0> d           0.061  -4.554  -0.825  0.00  0.00    -0.351 N 
ATOM      4  H6  <0> d           0.067  -4.599   0.144  0.00  0.00     0.163 HD
ENDROOT
BRANCH   1   5
ATOM      5  C4  <0> d           0.028  -2.119  -0.649  0.00  0.00     0.137 A 
ATOM      6  C3  <0> d           0.008  -0.821  -1.132  0.00  0.00     0.070 A 
ATOM      7  C2  <0> d           0.002  -0.004   0.002  0.00  0.00     0.070 A 
ATOM      8 Br1  <0> d          -0.009  -0.271  -2.942  0.00  0.00    -0.046 Br
ATOM      9  C1  <0> d          -0.018   1.503   0.010  0.00  0.00     0.074 C 
ATOM     10  N2  <0> d           0.023  -0.780   1.055  0.00  0.00    -0.178 NA
ATOM     11  N1  <0> d           0.033  -2.018   0.714  0.00  0.00    -0.271 N 
ATOM     12  H1  <0> d           0.047  -2.768   1.330  0.00  0.00     0.189 HD
ENDBRANCH   1   5
BRANCH   3  13
ATOM     13  C6  <0> d           0.073  -5.787  -1.616  0.00  0.00     0.084 C 
ATOM     14  C7  <0> d          -1.361  -6.168  -1.990  0.00  0.00     0.032 C 
BRANCH  13  15
ATOM     15  C8  <0> d           0.703  -6.913  -0.794  0.00  0.00    -0.000 C 
ATOM     16  C9  <0> d          -0.182  -7.218   0.416  0.00  0.00     0.011 C 
ATOM     17  C10 <0> d           0.830  -8.167  -1.662  0.00  0.00     0.011 C 
ENDBRANCH  13  15
ENDBRANCH   3  13
TORSDOF 3
