REMARK  4 active torsions:
REMARK  status: ('A' for Active; 'I' for Inactive)
REMARK    1  A    between atoms: C2_2  and  O1_3 
REMARK    2  A    between atoms: O1_3  and  C3_4 
REMARK    3  A    between atoms: C6_7  and  N1_10 
REMARK    4  A    between atoms: C11_13  and  C14_16 
ROOT
ATOM      1  N1  <0> d           0.807  -6.249   1.275  0.00  0.00    -0.319 N 
ATOM      2  C9  <0> d          -0.142  -7.231   1.346  0.00  0.00     0.014 A 
ATOM      3  C10 <0> d           0.456  -8.406   1.604  0.00  0.00     0.038 A 
ATOM      4  C11 <0> d           1.896  -8.127   1.700  0.00  0.00    -0.011 A 
ATOM      5  C12 <0> d           2.034  -6.766   1.479  0.00  0.00     0.023 A 
ATOM      6  C13 <0> d           3.331  -5.998   1.472  0.00  0.00     0.069 C 
ATOM      7  C20 <0> d          -1.624  -7.027   1.164  0.00  0.00     0.068 C 
ENDROOT
BRANCH   4   8
ATOM      8  C14 <0> d           2.932  -9.060   1.961  0.00  0.00     0.034 C 
ATOM      9  C15 <0> d           2.699 -10.134   2.796  0.00  0.00     0.082 C 
ATOM     10  C18 <0> d           1.445 -10.258   3.578  0.00  0.00     0.283 C 
ATOM     11  C16 <0> d           3.695 -11.228   2.964  0.00  0.00     0.162 C 
ATOM     12  N4  <0> d           1.043 -11.496   3.936  0.00  0.00    -0.182 NA
ATOM     13  O2  <0> d           0.796  -9.271   3.884  0.00  0.00    -0.265 OA
ATOM     14  C17 <0> d           1.832 -12.516   3.708  0.00  0.00     0.200 A 
ATOM     15  N3  <0> d           3.108 -12.491   3.189  0.00  0.00    -0.190 N 
ATOM     16  S1  <0> d           1.562 -14.252   3.948  0.00  0.00    -0.041 SA
ATOM     17  N5  <0> d           3.703 -13.711   2.947  0.00  0.00    -0.169 NA
ATOM     18  C19 <0> d           3.107 -14.827   3.256  0.00  0.00     0.192 A 
ATOM     19  N2  <0> d           4.987 -11.036   2.909  0.00  0.00    -0.281 NA
ATOM     20  H15 <0> d           5.339 -10.146   2.752  0.00  0.00     0.188 HD
ENDBRANCH   4   8
BRANCH   1  21
ATOM     21  C6  <0> d           0.541  -4.896   1.020  0.00  0.00     0.039 A 
ATOM     22  C5  <0> d           0.014  -4.511  -0.205  0.00  0.00     0.033 A 
ATOM     23  C4  <0> d          -0.248  -3.179  -0.456  0.00  0.00     0.039 A 
ATOM     24  C3  <0> d           0.015  -2.225   0.517  0.00  0.00     0.068 A 
ATOM     25  C8  <0> d           0.546  -2.608   1.739  0.00  0.00     0.039 A 
ATOM     26  C7  <0> d           0.804  -3.941   1.993  0.00  0.00     0.033 A 
BRANCH  24  27
ATOM     27  O1  <0> d          -0.243  -0.913   0.269  0.00  0.00    -0.352 OA
BRANCH  27  28
ATOM     28  C2  <0> d          -0.790  -0.590  -1.011  0.00  0.00     0.171 C 
ATOM     29  C1  <0> d          -1.011   0.922  -1.104  0.00  0.00     0.034 C 
ENDBRANCH  27  28
ENDBRANCH  24  27
ENDBRANCH   1  21
TORSDOF 4
