REMARK  7 active torsions:
REMARK  status: ('A' for Active; 'I' for Inactive)
REMARK    1  A    between atoms: C5_5  and  N1_9 
REMARK       I    between atoms: N1_9  and  C9_10 
REMARK       I    between atoms: C9_10  and  N2_12 
REMARK       I    between atoms: N2_12  and  C10_13 
REMARK    2  A    between atoms: C10_13  and  C11_15 
REMARK    3  A    between atoms: C11_15  and  N3_17 
REMARK    4  A    between atoms: N3_17  and  C14_19 
REMARK    5  A    between atoms: C14_19  and  C15_20 
REMARK       I    between atoms: C15_20  and  N4_22 
REMARK    6  A    between atoms: N4_22  and  C16_23 
REMARK    7  A    between atoms: C21_28  and  C22_29 
ROOT
ATOM      1  C11 <0> d          -7.053  -0.004   0.520  0.00  0.00     0.276 C 
ATOM      2  C12 <0> d          -6.952   0.803   1.816  0.00  0.00     0.050 C 
ENDROOT
BRANCH   1   3
ATOM      3  C10 <0> d          -8.190  -0.988   0.628  0.00  0.00     0.256 C 
ATOM      4  N2  <0> d          -9.455  -0.542   0.764  0.00  0.00    -0.277 N 
ATOM      5  C9  <0> d         -10.472  -1.422   0.861  0.00  0.00     0.327 C 
ATOM      6  H12 <0> d          -9.658   0.538   0.796  0.00  0.00     0.173 HD
ATOM      7  N1  <0> d         -11.737  -0.977   0.997  0.00  0.00    -0.308 N 
ATOM      8  O1  <0> d         -10.249  -2.616   0.825  0.00  0.00    -0.247 OA
ATOM      9  H11 <0> d         -11.948   0.102   0.957  0.00  0.00     0.170 HD
ATOM     10  O2  <0> d          -7.967  -2.179   0.593  0.00  0.00    -0.271 OA
BRANCH   7  11
ATOM     11  C5  <0> d         -12.782  -1.887   1.191  0.00  0.00     0.042 A 
ATOM     12  C4  <0> d         -12.668  -3.188   0.717  0.00  0.00     0.030 A 
ATOM     13  C3  <0> d         -13.702  -4.084   0.909  0.00  0.00     0.009 A 
ATOM     14  C2  <0> d         -14.848  -3.687   1.573  0.00  0.00    -0.061 A 
ATOM     15  C1  <0> d         -15.973  -4.668   1.782  0.00  0.00     0.048 C 
ATOM     16  C7  <0> d         -14.964  -2.393   2.046  0.00  0.00     0.015 A 
ATOM     17  C6  <0> d         -13.932  -1.494   1.862  0.00  0.00    -0.035 A 
ATOM     18  C8  <0> d         -14.057  -0.085   2.383  0.00  0.00     0.050 C 
ENDBRANCH   7  11
ENDBRANCH   1   3
BRANCH   1  19
ATOM     19  N3  <0> d          -5.797  -0.732   0.297  0.00  0.00    -0.054 N 
ATOM     20  C13 <0> d          -4.736   0.176  -0.160  0.00  0.00     0.271 C 
ATOM     21  H26 <0> d          -5.972  -1.473  -0.497  0.00  0.00     0.281 HD
BRANCH  19  22
ATOM     22  C14 <0> d          -5.385  -1.455   1.507  0.00  0.00     0.338 C 
BRANCH  22  23
ATOM     23  C15 <0> d          -4.240  -2.378   1.176  0.00  0.00     0.248 C 
ATOM     24  O3  <0> d          -3.810  -2.428   0.044  0.00  0.00    -0.271 OA
ATOM     25  N4  <0> d          -3.695  -3.147   2.139  0.00  0.00    -0.325 N 
ATOM     26  H21 <0> d          -4.134  -3.160   3.148  0.00  0.00     0.169 HD
BRANCH  25  27
ATOM     27  C16 <0> d          -2.570  -3.930   1.856  0.00  0.00     0.049 A 
ATOM     28  C21 <0> d          -1.607  -4.143   2.833  0.00  0.00     0.074 A 
ATOM     29  C20 <0> d          -0.495  -4.911   2.549  0.00  0.00     0.018 A 
ATOM     30  C19 <0> d          -0.346  -5.478   1.296  0.00  0.00     0.001 A 
ATOM     31  C18 <0> d          -1.304  -5.268   0.321  0.00  0.00     0.002 A 
ATOM     32  C17 <0> d          -2.415  -4.496   0.597  0.00  0.00     0.030 A 
BRANCH  28  33
ATOM     33  C22 <0> d          -1.771  -3.530   4.200  0.00  0.00     0.419 C 
ATOM     34  F1  <0> d          -0.681  -3.884   5.003  0.00  0.00    -0.166 F 
ATOM     35  F2  <0> d          -1.831  -2.138   4.083  0.00  0.00    -0.166 F 
ATOM     36  F3  <0> d          -2.952  -4.001   4.783  0.00  0.00    -0.166 F 
ENDBRANCH  28  33
ENDBRANCH  25  27
ENDBRANCH  22  23
ENDBRANCH  19  22
ENDBRANCH   1  19
TORSDOF 7
