REMARK  7 active torsions:
REMARK  status: ('A' for Active; 'I' for Inactive)
REMARK    1  A    between atoms: C8_9  and  C9_11 
REMARK    2  A    between atoms: C9_11  and  N1_12 
REMARK       I    between atoms: N1_12  and  C10_13 
REMARK    3  A    between atoms: C10_13  and  C11_15 
REMARK    4  A    between atoms: C14_18  and  C16_23 
REMARK    5  A    between atoms: C16_23  and  N3_39 
REMARK    6  A    between atoms: C19_26  and  C22_29 
REMARK    7  A    between atoms: C19_26  and  O5_36 
ROOT
ATOM      1  C11 <0> d          -2.408   7.683  -1.906  0.00  0.00     0.099 A 
ATOM      2  C12 <0> d          -1.473   7.328  -2.877  0.00  0.00     0.025 A 
ATOM      3  C13 <0> d          -1.145   5.982  -3.037  0.00  0.00     0.028 A 
ATOM      4  C14 <0> d          -1.739   5.038  -2.263  0.00  0.00     0.038 A 
ATOM      5  N2  <0> d          -2.648   5.376  -1.317  0.00  0.00    -0.325 N 
ATOM      6  H2  <0> d          -3.054   4.682  -0.775  0.00  0.00     0.169 HD
ATOM      7  C15 <0> d          -2.997   6.661  -1.117  0.00  0.00     0.261 A 
ATOM      8  O4  <0> d          -3.817   6.946  -0.261  0.00  0.00    -0.267 OA
ENDROOT
BRANCH   4   9
ATOM      9  C16 <0> d          -1.376   3.588  -2.454  0.00  0.00     0.291 C 
BRANCH   9  10
ATOM     10  N3  <0> d          -0.623   3.083  -1.288  0.00  0.00    -0.066 N 
ATOM     11  C17 <0> d          -1.479   3.113  -0.083  0.00  0.00     0.238 C 
ATOM     12  C18 <0> d          -0.718   2.476   1.082  0.00  0.00     0.071 C 
ATOM     13  C19 <0> d           0.567   3.267   1.342  0.00  0.00     0.088 C 
ATOM     14  C20 <0> d           1.409   3.292   0.063  0.00  0.00     0.071 C 
ATOM     15  C21 <0> d           0.586   3.905  -1.073  0.00  0.00     0.238 C 
ATOM     16  H29 <0> d          -0.338   2.113  -1.470  0.00  0.00     0.280 HD
BRANCH  13  17
ATOM     17  C22 <0> d           1.349   2.609   2.449  0.00  0.00    -0.024 A 
ATOM     18  C27 <0> d           2.152   3.372   3.276  0.00  0.00     0.012 A 
ATOM     19  C26 <0> d           2.870   2.768   4.291  0.00  0.00     0.024 A 
ATOM     20  C25 <0> d           2.785   1.401   4.479  0.00  0.00     0.034 A 
ATOM     21  C24 <0> d           1.981   0.637   3.651  0.00  0.00     0.024 A 
ATOM     22 Cl1  <0> d           3.687   0.642   5.754  0.00  0.00    -0.084 Cl
ATOM     23  C23 <0> d           1.260   1.243   2.640  0.00  0.00     0.012 A 
ENDBRANCH  13  17
BRANCH  13  24
ATOM     24  O5  <0> d           0.235   4.605   1.720  0.00  0.00    -0.385 OA
ATOM     25  H28 <0> d           1.003   5.164   1.900  0.00  0.00     0.211 HD
ENDBRANCH  13  24
ENDBRANCH   9  10
ENDBRANCH   4   9
BRANCH   1  26
ATOM     26  C10 <0> d          -2.776   9.092  -1.702  0.00  0.00     0.257 C 
ATOM     27  N1  <0> d          -3.587   9.436  -0.681  0.00  0.00    -0.354 N 
ATOM     28  H11 <0> d          -3.986   8.748  -0.126  0.00  0.00     0.162 HD
ATOM     29  O3  <0> d          -2.349   9.948  -2.454  0.00  0.00    -0.267 OA
BRANCH  27  30
ATOM     30  C9  <0> d          -3.866  10.849  -0.412  0.00  0.00     0.157 C 
BRANCH  30  31
ATOM     31  C8  <0> d          -4.806  10.962   0.790  0.00  0.00     0.171 C 
ATOM     32  C7  <0> d          -5.126  12.439   1.059  0.00  0.00     0.209 C 
ATOM     33  O1  <0> d          -6.017  12.508   2.178  0.00  0.00    -0.346 OA
ATOM     34  C5  <0> d          -7.072  11.649   2.173  0.00  0.00     0.102 A 
ATOM     35  C4  <0> d          -7.080  10.536   1.341  0.00  0.00     0.102 A 
ATOM     36  C6  <0> d          -8.151  11.891   3.010  0.00  0.00     0.039 A 
ATOM     37  C3  <0> d          -8.164   9.671   1.355  0.00  0.00     0.039 A 
ATOM     38  O2  <0> d          -6.034  10.282   0.508  0.00  0.00    -0.339 OA
ATOM     39  C2  <0> d          -9.236   9.918   2.193  0.00  0.00     0.003 A 
ATOM     40  C1  <0> d          -9.229  11.027   3.019  0.00  0.00     0.003 A 
ENDBRANCH  30  31
ENDBRANCH  27  30
ENDBRANCH   1  26
TORSDOF 7
