REMARK  4 active torsions:
REMARK  status: ('A' for Active; 'I' for Inactive)
REMARK    1  A    between atoms: C7_11  and  N3_13 
REMARK       I    between atoms: N3_13  and  C8_14 
REMARK    2  A    between atoms: C8_14  and  C9_16 
REMARK    3  A    between atoms: C9_16  and  N4_17 
REMARK    4  A    between atoms: C16_25  and  C17_26 
ROOT
ATOM      1  N3  <0> d          -0.606   0.540   2.937  0.00  0.00    -0.329 N 
ATOM      2  C8  <0> d          -0.064   0.624   4.168  0.00  0.00     0.248 C 
ATOM      3  O3  <0> d           0.572  -0.307   4.615  0.00  0.00    -0.272 OA
ATOM      4  H8  <0> d          -1.114   1.284   2.579  0.00  0.00     0.165 HD
ENDROOT
BRANCH   2   5
ATOM      5  C9  <0> d          -0.247   1.875   4.988  0.00  0.00     0.376 C 
BRANCH   5   6
ATOM      6  N4  <0> d           0.434   1.717   6.280  0.00  0.00     0.111 N 
ATOM      7  C16 <0> d           0.083   2.810   7.196  0.00  0.00     0.297 C 
ATOM      8  C13 <0> d           0.835   2.607   8.508  0.00  0.00    -0.006 A 
ATOM      9  C12 <0> d           1.923   1.787   8.539  0.00  0.00    -0.007 A 
ATOM     10  C14 <0> d           0.479   3.214   9.710  0.00  0.00     0.018 A 
ATOM     11  C11 <0> d           2.502   1.029   7.389  0.00  0.00     0.077 C 
ATOM     12  S1  <0> d           2.454   1.850  10.227  0.00  0.00    -0.106 SA
ATOM     13  C10 <0> d           1.887   1.595   6.098  0.00  0.00     0.279 C 
ATOM     14  C15 <0> d           1.201   2.974  10.829  0.00  0.00     0.051 A 
BRANCH   7  15
ATOM     15  C17 <0> d          -1.401   2.794   7.457  0.00  0.00     0.020 A 
ATOM     16  S2  <0> d          -2.484   1.397   7.709  0.00  0.00    -0.104 SA
ATOM     17  C20 <0> d          -4.008   2.297   7.937  0.00  0.00     0.050 A 
ATOM     18  C19 <0> d          -3.598   3.582   7.802  0.00  0.00     0.008 A 
ATOM     19  C18 <0> d          -2.262   3.837   7.556  0.00  0.00     0.017 A 
ENDBRANCH   7  15
ENDBRANCH   5   6
ENDBRANCH   2   5
BRANCH   1  20
ATOM     20  C7  <0> d          -0.427  -0.676   2.139  0.00  0.00     0.264 C 
ATOM     21  C6  <0> d          -1.661  -0.945   1.319  0.00  0.00     0.070 A 
ATOM     22  C3  <0> d          -1.405  -0.543   0.038  0.00  0.00     0.012 A 
ATOM     23  C5  <0> d          -2.926  -1.489   1.603  0.00  0.00     0.272 A 
ATOM     24  C2  <0> d           0.002  -0.004   0.002  0.00  0.00     0.156 C 
ATOM     25  C4  <0> d          -2.412  -0.692  -0.924  0.00  0.00     0.060 A 
ATOM     26  C1  <0> d          -0.019   1.526   0.010  0.00  0.00     0.045 C 
ATOM     27  O2  <0> d           0.646  -0.498   1.192  0.00  0.00    -0.353 OA
ATOM     28  C21 <0> d          -2.165  -0.259  -2.346  0.00  0.00     0.073 C 
ATOM     29  N1  <0> d          -3.565  -1.206  -0.589  0.00  0.00    -0.176 NA
ATOM     30  N2  <0> d          -3.830  -1.592   0.607  0.00  0.00    -0.243 N 
ATOM     31  H2  <0> d          -4.704  -1.966   0.800  0.00  0.00     0.192 HD
ATOM     32  O1  <0> d          -3.201  -1.863   2.732  0.00  0.00    -0.266 OA
ENDBRANCH   1  20
TORSDOF 4
