REMARK  7 active torsions:
REMARK  status: ('A' for Active; 'I' for Inactive)
REMARK    1  A    between atoms: N2_6  and  C5_7 
REMARK    2  A    between atoms: C5_7  and  C6_8 
REMARK    3  A    between atoms: C6_8  and  C8_10 
REMARK    4  A    between atoms: C8_10  and  N3_11 
REMARK       I    between atoms: N3_11  and  C9_12 
REMARK       I    between atoms: C9_12  and  N4_14 
REMARK    5  A    between atoms: N4_14  and  C10_15 
REMARK    6  A    between atoms: C10_15  and  C11_16 
REMARK    7  A    between atoms: C12_20  and  C13_22 
ROOT
ATOM      1  N3  <0> d          -3.249   0.112   4.689  0.00  0.00    -0.343 N 
ATOM      2  C9  <0> d          -3.646   0.457   5.930  0.00  0.00     0.316 C 
ATOM      3  O1  <0> d          -2.831   0.852   6.741  0.00  0.00    -0.247 OA
ATOM      4  N4  <0> d          -4.946   0.365   6.272  0.00  0.00    -0.336 N 
ATOM      5  H15 <0> d          -3.900  -0.203   4.042  0.00  0.00     0.164 HD
ATOM      6  H16 <0> d          -5.597   0.050   5.625  0.00  0.00     0.164 HD
ENDROOT
BRANCH   1   7
ATOM      7  C8  <0> d          -1.836   0.212   4.318  0.00  0.00     0.130 C 
BRANCH   7   8
ATOM      8  C6  <0> d          -1.657  -0.237   2.866  0.00  0.00     0.018 C 
ATOM      9  C7  <0> d          -2.389   0.734   1.938  0.00  0.00     0.013 C 
BRANCH   8  10
ATOM     10  C5  <0> d          -0.167  -0.252   2.516  0.00  0.00     0.135 C 
BRANCH  10  11
ATOM     11  N2  <0> d           0.013  -0.798   1.169  0.00  0.00    -0.345 N 
ATOM     12  C2  <0> d           0.013  -2.104   0.827  0.00  0.00     0.079 A 
ATOM     13  C1  <0> d          -0.174  -3.260   1.775  0.00  0.00     0.089 C 
ATOM     14  N1  <0> d           0.196  -2.200  -0.462  0.00  0.00    -0.355 N 
ATOM     15  C3  <0> d           0.323  -0.970  -0.982  0.00  0.00     0.106 A 
ATOM     16  H22 <0> d           0.234  -3.029  -0.964  0.00  0.00     0.166 HD
ATOM     17  C4  <0> d           0.215  -0.079   0.022  0.00  0.00     0.109 A 
ENDBRANCH  10  11
ENDBRANCH   8  10
ENDBRANCH   7   8
ENDBRANCH   1   7
BRANCH   4  18
ATOM     18  C10 <0> d          -5.378   0.741   7.621  0.00  0.00     0.204 C 
BRANCH  18  19
ATOM     19  C11 <0> d          -6.867   0.547   7.744  0.00  0.00     0.140 A 
ATOM     20  N7  <0> d          -7.782   1.411   7.394  0.00  0.00    -0.210 NA
ATOM     21  C12 <0> d          -9.000   0.907   7.641  0.00  0.00     0.188 A 
ATOM     22  N6  <0> d          -8.861  -0.293   8.165  0.00  0.00    -0.152 NA
ATOM     23  N5  <0> d          -7.481  -0.543   8.239  0.00  0.00    -0.261 N 
ATOM     24  H2  <0> d          -7.054  -1.344   8.581  0.00  0.00     0.190 HD
BRANCH  21  25
ATOM     25  C13 <0> d         -10.286   1.588   7.375  0.00  0.00     0.054 A 
ATOM     26  S1  <0> d         -10.579   3.203   6.673  0.00  0.00    -0.098 SA
ATOM     27  C16 <0> d         -12.363   3.181   6.726  0.00  0.00     0.050 A 
ATOM     28  C15 <0> d         -12.617   1.966   7.275  0.00  0.00     0.009 A 
ATOM     29  C14 <0> d         -11.560   1.147   7.609  0.00  0.00     0.023 A 
ENDBRANCH  21  25
ENDBRANCH  18  19
ENDBRANCH   4  18
TORSDOF 7
