REMARK  5 active torsions:
REMARK  status: ('A' for Active; 'I' for Inactive)
REMARK    1  A    between atoms: C4_4  and  O1_10 
REMARK    2  A    between atoms: C5_5  and  C7_7 
REMARK    3  A    between atoms: C7_7  and  N1_8 
REMARK    4  A    between atoms: O1_10  and  C8_11 
REMARK    5  A    between atoms: C8_11  and  C9_12 
ROOT
ATOM      1  C1  <0> d          -0.463   1.169  -0.296  0.00  0.00     0.001 A 
ATOM      2  C2  <0> d           0.621   2.031  -0.342  0.00  0.00     0.003 A 
ATOM      3  C3  <0> d           1.908   1.536  -0.285  0.00  0.00     0.038 A 
ATOM      4  C4  <0> d           2.124   0.170  -0.181  0.00  0.00     0.083 A 
ATOM      5  C5  <0> d           1.031  -0.704  -0.133  0.00  0.00     0.040 A 
ATOM      6  C6  <0> d          -0.266  -0.191  -0.192  0.00  0.00     0.018 A 
ENDROOT
BRANCH   4   7
ATOM      7  O1  <0> d           3.389  -0.318  -0.126  0.00  0.00    -0.345 OA
BRANCH   7   8
ATOM      8  C8  <0> d           4.454   0.634  -0.180  0.00  0.00     0.223 C 
BRANCH   8   9
ATOM      9  C9  <0> d           5.776  -0.087  -0.107  0.00  0.00     0.024 A 
ATOM     10  S1  <0> d           6.741  -0.522   1.330  0.00  0.00    -0.103 SA
ATOM     11  C12 <0> d           8.097  -1.324   0.490  0.00  0.00     0.051 A 
ATOM     12  C11 <0> d           7.733  -1.202  -0.810  0.00  0.00     0.027 A 
ATOM     13  C10 <0> d           6.543  -0.568  -1.117  0.00  0.00     0.026 A 
ATOM     14 Br1  <0> d           5.993  -0.375  -2.916  0.00  0.00    -0.050 Br
ENDBRANCH   8   9
ENDBRANCH   7   8
ENDBRANCH   4   7
BRANCH   5  15
ATOM     15  C7  <0> d           1.249  -2.160  -0.023  0.00  0.00     0.105 C 
ATOM     16  N2  <0> d           2.001  -2.792  -0.924  0.00  0.00    -0.385 N 
ATOM     17  H6  <0> d           2.405  -2.295  -1.652  0.00  0.00     0.157 HD
ATOM     18  H7  <0> d           2.144  -3.749  -0.851  0.00  0.00     0.157 HD
BRANCH  15  19
ATOM     19  N1  <0> d           0.693  -2.843   0.978  0.00  0.00    -0.385 N 
ATOM     20  H5  <0> d           0.209  -2.374   1.675  0.00  0.00     0.157 HD
ATOM     21  H12 <0> d           0.774  -3.809   1.009  0.00  0.00     0.157 HD
ENDBRANCH  15  19
ENDBRANCH   5  15
TORSDOF 5
