REMARK  6 active torsions:
REMARK  status: ('A' for Active; 'I' for Inactive)
REMARK    1  A    between atoms: C7_7  and  N1_8 
REMARK       I    between atoms: N1_8  and  C8_9 
REMARK    2  A    between atoms: C8_9  and  C9_11 
REMARK    3  A    between atoms: C10_12  and  C24_30 
REMARK    4  A    between atoms: C11_13  and  C16_20 
REMARK    5  A    between atoms: C12_14  and  O3_19 
REMARK       I    between atoms: C16_20  and  N2_22 
REMARK    6  A    between atoms: N2_22  and  C17_23 
ROOT
ATOM      1  C9  <0> d           0.996  -0.161   5.723  0.00  0.00     0.157 C 
ATOM      2  C10 <0> d           0.438  -1.434   6.369  0.00  0.00     0.062 C 
ATOM      3  C11 <0> d          -0.816  -1.879   5.615  0.00  0.00     0.122 C 
ATOM      4  C12 <0> d          -1.906  -0.814   5.748  0.00  0.00     0.073 C 
ATOM      5  C13 <0> d          -1.437   0.482   5.079  0.00  0.00     0.117 C 
ATOM      6  C14 <0> d          -0.101   0.879   5.676  0.00  0.00     0.143 C 
ATOM      7  O2  <0> d           0.083   1.993   6.106  0.00  0.00    -0.297 OA
ATOM      8  C15 <0> d          -3.186  -1.306   5.068  0.00  0.00     0.047 C 
ENDROOT
BRANCH   1   9
ATOM      9  C8  <0> d           1.463  -0.467   4.323  0.00  0.00     0.234 C 
ATOM     10  N1  <0> d           1.349   0.464   3.356  0.00  0.00    -0.326 N 
ATOM     11  H11 <0> d           1.025   1.352   3.574  0.00  0.00     0.169 HD
ATOM     12  O1  <0> d           1.941  -1.552   4.067  0.00  0.00    -0.272 OA
BRANCH  10  13
ATOM     13  C7  <0> d           1.698   0.151   2.038  0.00  0.00     0.040 A 
ATOM     14  C2  <0> d           1.135   0.856   0.982  0.00  0.00    -0.035 A 
ATOM     15  C1  <0> d           0.147   1.960   1.255  0.00  0.00     0.050 C 
ATOM     16  C3  <0> d           1.486   0.548  -0.318  0.00  0.00     0.009 A 
ATOM     17  C4  <0> d           2.393  -0.466  -0.569  0.00  0.00     0.001 A 
ATOM     18  C5  <0> d           2.951  -1.173   0.480  0.00  0.00     0.002 A 
ATOM     19  C6  <0> d           2.605  -0.870   1.782  0.00  0.00     0.030 A 
ENDBRANCH  10  13
ENDBRANCH   1   9
BRANCH   2  20
ATOM     20  C24 <0> d           1.476  -2.525   6.307  0.00  0.00    -0.011 A 
ATOM     21  S1  <0> d           1.788  -3.707   5.006  0.00  0.00    -0.106 SA
ATOM     22  C27 <0> d           3.149  -4.572   5.773  0.00  0.00     0.050 A 
ATOM     23  C26 <0> d           3.267  -3.917   6.954  0.00  0.00     0.008 A 
ATOM     24  C25 <0> d           2.410  -2.868   7.228  0.00  0.00     0.015 A 
ENDBRANCH   2  20
BRANCH   3  25
ATOM     25  C16 <0> d          -0.483  -2.073   4.158  0.00  0.00     0.230 C 
ATOM     26  O4  <0> d          -0.415  -1.114   3.419  0.00  0.00    -0.273 OA
ATOM     27  N2  <0> d          -0.260  -3.312   3.677  0.00  0.00    -0.326 N 
ATOM     28  H18 <0> d          -0.374  -4.084   4.254  0.00  0.00     0.169 HD
BRANCH  27  29
ATOM     29  C17 <0> d           0.134  -3.485   2.346  0.00  0.00     0.040 A 
ATOM     30  C22 <0> d           0.609  -4.717   1.915  0.00  0.00    -0.035 A 
ATOM     31  C21 <0> d           0.991  -4.886   0.599  0.00  0.00     0.009 A 
ATOM     32  C23 <0> d           0.700  -5.870   2.882  0.00  0.00     0.050 C 
ATOM     33  C20 <0> d           0.914  -3.827  -0.287  0.00  0.00     0.001 A 
ATOM     34  C19 <0> d           0.447  -2.597   0.140  0.00  0.00     0.002 A 
ATOM     35  C18 <0> d           0.057  -2.423   1.454  0.00  0.00     0.030 A 
ENDBRANCH  27  29
ENDBRANCH   3  25
BRANCH   4  36
ATOM     36  O3  <0> d          -2.166  -0.569   7.132  0.00  0.00    -0.389 OA
ATOM     37  H17 <0> d          -2.849   0.097   7.292  0.00  0.00     0.210 HD
ENDBRANCH   4  36
TORSDOF 6
