REMARK  2 active torsions:
REMARK  status: ('A' for Active; 'I' for Inactive)
REMARK    1  A    between atoms: S1_2  and  N1_5 
REMARK    2  A    between atoms: C7_12  and  N2_15 
ROOT
ATOM      1  N1  <0> d           0.975  -0.409  -1.275  0.00  0.00    -0.274 N 
ATOM      2  C2  <0> d           0.363  -0.584  -2.588  0.00  0.00     0.152 C 
ATOM      3  C3  <0> d           0.746  -1.968  -3.132  0.00  0.00     0.100 C 
ATOM      4  S2  <0> d           2.544  -1.974  -3.402  0.00  0.00    -0.126 SA
ATOM      5  C4  <0> d           3.178  -1.258  -1.918  0.00  0.00     0.028 A 
ATOM      6  C5  <0> d           2.343  -0.563  -1.046  0.00  0.00     0.063 A 
ATOM      7  C6  <0> d           2.880  -0.000   0.108  0.00  0.00     0.060 A 
ATOM      8  C7  <0> d           4.231  -0.129   0.389  0.00  0.00     0.028 A 
ATOM      9  C8  <0> d           5.059  -0.823  -0.483  0.00  0.00     0.030 A 
ATOM     10  C9  <0> d           4.530  -1.392  -1.631  0.00  0.00     0.023 A 
ENDROOT
BRANCH   1  11
ATOM     11  S1  <0> d           0.002  -0.004   0.002  0.00  0.00     0.229 S 
ATOM     12  C1  <0> d          -0.022   1.810   0.012  0.00  0.00     0.186 C 
ATOM     13  O1  <0> d           0.687  -0.491   1.148  0.00  0.00    -0.206 OA
ATOM     14  O2  <0> d          -1.280  -0.509  -0.345  0.00  0.00    -0.206 OA
ENDBRANCH   1  11
BRANCH   8  15
ATOM     15  N2  <0> d           4.762   0.441   1.552  0.00  0.00    -0.399 N 
ATOM     16  H11 <0> d           4.184   0.926   2.162  0.00  0.00     0.156 HD
ATOM     17  H12 <0> d           5.708   0.351   1.749  0.00  0.00     0.156 HD
ENDBRANCH   8  15
TORSDOF 2
