REMARK  5 active torsions:
REMARK  status: ('A' for Active; 'I' for Inactive)
REMARK    1  A    between atoms: C2_2  and  C3_3 
REMARK    2  A    between atoms: C2_2  and  N1_18 
REMARK    3  A    between atoms: C3_3  and  C4_4 
REMARK    4  A    between atoms: C3_3  and  S2_10 
REMARK    5  A    between atoms: S2_10  and  C8_11 
ROOT
ATOM      1  C3  <0> d           0.728  -0.808   1.203  0.00  0.00     0.122 C 
ENDROOT
BRANCH   1   2
ATOM      2  C2  <0> d          -0.081  -0.319   0.001  0.00  0.00     0.198 C 
ATOM      3  C1  <0> d          -0.069   1.211  -0.034  0.00  0.00     0.041 C 
BRANCH   2   4
ATOM      4  N1  <0> d           0.515  -0.841  -1.236  0.00  0.00    -0.074 N 
ATOM      5  H12 <0> d          -0.019  -0.518  -2.029  0.00  0.00     0.274 HD
ATOM      6  H13 <0> d           1.466  -0.514  -1.315  0.00  0.00     0.274 HD
ATOM      7  H14 <0> d           0.507  -1.850  -1.214  0.00  0.00     0.274 HD
ENDBRANCH   2   4
ENDBRANCH   1   2
BRANCH   1   8
ATOM      8  C4  <0> d           0.729  -2.315   1.228  0.00  0.00    -0.000 A 
ATOM      9  S1  <0> d          -0.653  -3.439   1.346  0.00  0.00    -0.086 SA
ATOM     10  C7  <0> d           0.263  -4.971   1.302  0.00  0.00     0.051 A 
ATOM     11  C6  <0> d           1.543  -4.529   1.210  0.00  0.00     0.028 A 
ATOM     12 Br1  <0> d          -0.382  -6.747   1.373  0.00  0.00    -0.043 Br
ATOM     13  C5  <0> d           1.781  -3.168   1.172  0.00  0.00     0.017 A 
ENDBRANCH   1   8
BRANCH   1  14
ATOM     14  S2  <0> d          -0.020  -0.179   2.732  0.00  0.00    -0.116 SA
BRANCH  14  15
ATOM     15  C8  <0> d           1.181  -0.535   3.971  0.00  0.00     0.023 A 
ATOM     16  C13 <0> d           0.894  -0.291   5.310  0.00  0.00     0.050 A 
ATOM     17  C12 <0> d           1.836  -0.577   6.279  0.00  0.00     0.025 A 
ATOM     18 Cl1  <0> d          -0.648   0.364   5.763  0.00  0.00    -0.083 Cl
ATOM     19  C11 <0> d           3.067  -1.093   5.918  0.00  0.00     0.002 A 
ATOM     20  C10 <0> d           3.358  -1.331   4.587  0.00  0.00     0.001 A 
ATOM     21  C9  <0> d           2.419  -1.054   3.613  0.00  0.00     0.020 A 
ENDBRANCH  14  15
ENDBRANCH   1  14
TORSDOF 5
