REMARK  5 active torsions:
REMARK  status: ('A' for Active; 'I' for Inactive)
REMARK    1  A    between atoms: C3_3  and  C16_25 
REMARK    2  A    between atoms: C4_5  and  N2_7 
REMARK       I    between atoms: N2_7  and  C5_8 
REMARK    3  A    between atoms: C5_8  and  C6_10 
REMARK    4  A    between atoms: C6_10  and  C7_11 
REMARK    5  A    between atoms: C7_11  and  N3_12 
ROOT
ATOM      1  N2  <0> d          -1.191   1.867   0.018  0.00  0.00    -0.306 N 
ATOM      2  C5  <0> d          -0.014   1.209   0.009  0.00  0.00     0.225 C 
ATOM      3  O1  <0> d           0.002  -0.004   0.002  0.00  0.00    -0.273 OA
ATOM      4  H5  <0> d          -1.204   2.837   0.023  0.00  0.00     0.171 HD
ENDROOT
BRANCH   2   5
ATOM      5  C6  <0> d           1.280   1.980   0.001  0.00  0.00     0.125 C 
BRANCH   5   6
ATOM      6  C7  <0> d           2.457   1.002  -0.016  0.00  0.00     0.162 C 
BRANCH   6   7
ATOM      7  N3  <0> d           3.715   1.751  -0.024  0.00  0.00    -0.254 N 
ATOM      8  N4  <0> d           4.285   2.104  -1.248  0.00  0.00    -0.261 N 
ATOM      9  C15 <0> d           5.440   2.794  -1.325  0.00  0.00     0.271 A 
ATOM     10  H1  <0> d           3.836   1.845  -2.068  0.00  0.00     0.190 HD
ATOM     11  C14 <0> d           6.133   3.194  -0.081  0.00  0.00     0.049 A 
ATOM     12  O3  <0> d           5.908   3.086  -2.408  0.00  0.00    -0.266 OA
ATOM     13  C9  <0> d           5.558   2.837   1.155  0.00  0.00     0.049 A 
ATOM     14  C13 <0> d           7.324   3.905  -0.109  0.00  0.00     0.018 A 
ATOM     15  C8  <0> d           4.285   2.084   1.151  0.00  0.00     0.273 A 
ATOM     16  C10 <0> d           6.186   3.199   2.338  0.00  0.00     0.018 A 
ATOM     17  O2  <0> d           3.759   1.764   2.199  0.00  0.00    -0.266 OA
ATOM     18  C11 <0> d           7.373   3.908   2.294  0.00  0.00     0.001 A 
ATOM     19  C12 <0> d           7.938   4.258   1.080  0.00  0.00     0.001 A 
ENDBRANCH   6   7
ENDBRANCH   5   6
ENDBRANCH   2   5
BRANCH   1  20
ATOM     20  C4  <0> d          -2.384   1.155   0.020  0.00  0.00     0.174 A 
ATOM     21  N1  <0> d          -3.625   1.606   0.028  0.00  0.00    -0.223 NA
ATOM     22  C3  <0> d          -4.658   0.777   0.028  0.00  0.00     0.082 A 
ATOM     23  C2  <0> d          -4.436  -0.572   0.020  0.00  0.00     0.012 A 
ATOM     24  C1  <0> d          -5.424  -1.709   0.018  0.00  0.00     0.059 C 
ATOM     25  S1  <0> d          -2.648  -0.612   0.003  0.00  0.00    -0.055 SA
BRANCH  22  26
ATOM     26  C16 <0> d          -6.043   1.307   0.038  0.00  0.00    -0.006 A 
ATOM     27  C21 <0> d          -6.340   2.476   0.738  0.00  0.00     0.017 A 
ATOM     28  C20 <0> d          -7.630   2.966   0.744  0.00  0.00     0.043 A 
ATOM     29  C19 <0> d          -8.630   2.297   0.056  0.00  0.00     0.116 A 
ATOM     30  C18 <0> d          -8.340   1.136  -0.640  0.00  0.00     0.043 A 
ATOM     31  F1  <0> d          -9.891   2.781   0.064  0.00  0.00    -0.206 F 
ATOM     32  C17 <0> d          -7.051   0.641  -0.656  0.00  0.00     0.017 A 
ENDBRANCH  22  26
ENDBRANCH   1  20
TORSDOF 5
