REMARK  6 active torsions:
REMARK  status: ('A' for Active; 'I' for Inactive)
REMARK    1  A    between atoms: N1_2  and  C2_3 
REMARK    2  A    between atoms: N1_2  and  C9_11 
REMARK    3  A    between atoms: C2_3  and  C3_4 
REMARK    4  A    between atoms: C9_11  and  C10_12 
REMARK    5  A    between atoms: C12_14  and  C13_17 
REMARK    6  A    between atoms: C13_17  and  N3_18 
ROOT
ATOM      1  C9  <0> d           0.600  -0.516  -1.239  0.00  0.00     0.339 C 
ENDROOT
BRANCH   1   2
ATOM      2  N1  <0> d           0.002  -0.004   0.002  0.00  0.00     0.094 N 
ATOM      3  C1  <0> d          -0.018   1.465   0.010  0.00  0.00     0.310 C 
BRANCH   2   4
ATOM      4  C2  <0> d           0.706  -0.527   1.180  0.00  0.00     0.312 C 
BRANCH   4   5
ATOM      5  C3  <0> d          -0.073  -0.186   2.424  0.00  0.00    -0.013 A 
ATOM      6  C8  <0> d          -1.170  -0.949   2.784  0.00  0.00     0.019 A 
ATOM      7  C7  <0> d          -1.883  -0.638   3.928  0.00  0.00     0.019 A 
ATOM      8 Br1  <0> d          -1.691  -2.419   1.715  0.00  0.00    -0.051 Br
ATOM      9  C6  <0> d          -1.504   0.440   4.706  0.00  0.00     0.001 A 
ATOM     10  C5  <0> d          -0.411   1.205   4.343  0.00  0.00     0.001 A 
ATOM     11  C4  <0> d           0.304   0.892   3.202  0.00  0.00     0.010 A 
ENDBRANCH   4   5
ENDBRANCH   2   4
ENDBRANCH   1   2
BRANCH   1  12
ATOM     12  C10 <0> d          -0.286  -0.163  -2.406  0.00  0.00     0.109 A 
ATOM     13  O1  <0> d          -1.288  -0.912  -2.890  0.00  0.00    -0.216 OA
ATOM     14  N2  <0> d          -1.863  -0.217  -3.982  0.00  0.00    -0.131 NA
ATOM     15  C12 <0> d          -1.210   0.901  -4.134  0.00  0.00     0.089 A 
ATOM     16  C11 <0> d          -0.208   0.958  -3.148  0.00  0.00     0.068 A 
BRANCH  15  17
ATOM     17  C13 <0> d          -1.482   1.949  -5.182  0.00  0.00     0.290 C 
BRANCH  17  18
ATOM     18  N3  <0> d          -0.781   1.593  -6.423  0.00  0.00    -0.074 N 
ATOM     19  H15 <0> d          -1.111   0.698  -6.750  0.00  0.00     0.274 HD
ATOM     20  H16 <0> d          -0.963   2.296  -7.125  0.00  0.00     0.274 HD
ATOM     21  H17 <0> d           0.211   1.543  -6.247  0.00  0.00     0.274 HD
ENDBRANCH  17  18
ENDBRANCH  15  17
ENDBRANCH   1  12
TORSDOF 6
