REMARK  7 active torsions:
REMARK  status: ('A' for Active; 'I' for Inactive)
REMARK    1  A    between atoms: C3_3  and  C11_13 
REMARK    2  A    between atoms: C6_6  and  O1_11 
REMARK    3  A    between atoms: C11_13  and  C12_14 
REMARK    4  A    between atoms: C12_14  and  N2_15 
REMARK    5  A    between atoms: N2_15  and  C13_16 
REMARK    6  A    between atoms: N3_18  and  C14_19 
REMARK    7  A    between atoms: C18_23  and  O2_25 
ROOT
ATOM      1  C12 <0> d           1.582  -0.442  -3.629  0.00  0.00     0.126 C 
ENDROOT
BRANCH   1   2
ATOM      2  C11 <0> d           0.531   0.214  -2.732  0.00  0.00     0.057 C 
BRANCH   2   3
ATOM      3  C3  <0> d           1.031   0.245  -1.311  0.00  0.00    -0.044 A 
ATOM      4  C2  <0> d           0.309   0.804  -0.105  0.00  0.00     0.108 A 
ATOM      5  C1  <0> d           0.041   2.298  -0.298  0.00  0.00     0.037 C 
ATOM      6  N1  <0> d           1.208   0.595   1.036  0.00  0.00    -0.381 N 
ATOM      7  C9  <0> d           2.298   0.007   0.605  0.00  0.00     0.039 A 
ATOM      8  H24 <0> d           1.025   0.849   1.954  0.00  0.00     0.160 HD
ATOM      9  C4  <0> d           2.215  -0.224  -0.856  0.00  0.00    -0.003 A 
ATOM     10  C8  <0> d           3.514  -0.432   1.297  0.00  0.00     0.033 A 
ATOM     11  C5  <0> d           3.349  -0.876  -1.520  0.00  0.00     0.050 A 
ATOM     12  C6  <0> d           4.428  -1.245  -0.788  0.00  0.00     0.069 A 
ATOM     13  C7  <0> d           4.505  -1.024   0.598  0.00  0.00     0.039 A 
BRANCH  12  14
ATOM     14  O1  <0> d           5.471  -1.848  -1.417  0.00  0.00    -0.356 OA
ATOM     15  C10 <0> d           6.588  -2.220  -0.607  0.00  0.00     0.210 C 
ENDBRANCH  12  14
ENDBRANCH   2   3
ENDBRANCH   1   2
BRANCH   1  16
ATOM     16  N2  <0> d           1.096  -0.471  -5.011  0.00  0.00    -0.367 N 
ATOM     17  H15 <0> d           0.224  -0.105  -5.226  0.00  0.00     0.161 HD
BRANCH  16  18
ATOM     18  C13 <0> d           1.860  -1.008  -5.983  0.00  0.00     0.172 C 
ATOM     19  S1  <0> d           3.399  -1.655  -5.603  0.00  0.00    -0.041 SA
ATOM     20  N3  <0> d           1.413  -1.035  -7.254  0.00  0.00    -0.333 N 
ATOM     21  H16 <0> d           0.511  -0.742  -7.457  0.00  0.00     0.168 HD
BRANCH  20  22
ATOM     22  C14 <0> d           2.250  -1.484  -8.281  0.00  0.00     0.036 A 
ATOM     23  C19 <0> d           3.584  -1.104  -8.306  0.00  0.00     0.066 A 
ATOM     24  C18 <0> d           4.412  -1.556  -9.322  0.00  0.00     0.070 A 
ATOM     25  C17 <0> d           3.902  -2.378 -10.317  0.00  0.00     0.037 A 
ATOM     26  C16 <0> d           2.571  -2.751 -10.294  0.00  0.00     0.005 A 
ATOM     27  C15 <0> d           1.745  -2.307  -9.280  0.00  0.00     0.029 A 
BRANCH  24  28
ATOM     28  O2  <0> d           5.721  -1.191  -9.346  0.00  0.00    -0.356 OA
ATOM     29  C20 <0> d           6.513  -1.689 -10.426  0.00  0.00     0.210 C 
ENDBRANCH  24  28
ENDBRANCH  20  22
ENDBRANCH  16  18
ENDBRANCH   1  16
TORSDOF 7
