REMARK  2 active torsions:
REMARK  status: ('A' for Active; 'I' for Inactive)
REMARK    1  A    between atoms: C2_2  and  N4_8 
REMARK    2  A    between atoms: N4_8  and  C4_9 
ROOT
ATOM      1  N4  <0> d           1.219   3.395   0.008  0.00  0.00    -0.368 N 
ATOM      2  H3  <0> d           2.067   3.867   0.003  0.00  0.00     0.161 HD
ENDROOT
BRANCH   1   3
ATOM      3  C2  <0> d           1.197   2.010   0.001  0.00  0.00     0.146 A 
ATOM      4  C1  <0> d          -0.016   1.315   0.009  0.00  0.00     0.191 A 
ATOM      5  N3  <0> d           0.002  -0.004   0.002  0.00  0.00    -0.156 NA
ATOM      6  N2  <0> d           1.119  -0.642  -0.012  0.00  0.00    -0.117 NA
ATOM      7  C3  <0> d           2.278  -0.009  -0.020  0.00  0.00     0.245 A 
ATOM      8  N1  <0> d           2.330   1.312  -0.013  0.00  0.00    -0.198 NA
ATOM      9 Cl1  <0> d           3.754  -0.923  -0.039  0.00  0.00    -0.040 Cl
ENDBRANCH   1   3
BRANCH   1  10
ATOM     10  C4  <0> d          -0.038   4.148   0.024  0.00  0.00     0.098 C 
ATOM     11  C7  <0> d           0.190   5.542  -0.609  0.00  0.00     0.165 C 
ATOM     12  S1  <0> d          -0.997   6.603   0.310  0.00  0.00     0.146 S 
ATOM     13  C6  <0> d          -1.665   5.358   1.493  0.00  0.00     0.142 C 
ATOM     14  O1  <0> d          -2.035   7.007  -0.571  0.00  0.00    -0.228 OA
ATOM     15  O2  <0> d          -0.272   7.587   1.035  0.00  0.00    -0.228 OA
ATOM     16  C5  <0> d          -0.520   4.305   1.475  0.00  0.00     0.041 C 
ENDBRANCH   1  10
TORSDOF 2
