REMARK  5 active torsions:
REMARK  status: ('A' for Active; 'I' for Inactive)
REMARK    1  A    between atoms: C3_3  and  C5_6 
REMARK    2  A    between atoms: N2_8  and  C7_12 
REMARK    3  A    between atoms: C7_12  and  N3_13 
REMARK    4  A    between atoms: N4_16  and  C12_19 
REMARK    5  A    between atoms: C15_22  and  O2_25 
ROOT
ATOM      1  N3  <0> d           1.681   6.080  -1.042  0.00  0.00    -0.051 N 
ATOM      2  C8  <0> d           2.462   5.557   0.088  0.00  0.00     0.251 C 
ATOM      3  C9  <0> d           2.523   4.031  -0.001  0.00  0.00     0.123 C 
ATOM      4  N4  <0> d           1.159   3.486   0.009  0.00  0.00    -0.280 NA
ATOM      5  C10 <0> d           0.378   4.009  -1.121  0.00  0.00     0.123 C 
ATOM      6  C11 <0> d           0.316   5.535  -1.032  0.00  0.00     0.251 C 
ATOM      7  H19 <0> d           2.170   5.754  -1.972  0.00  0.00     0.282 HD
ENDROOT
BRANCH   1   8
ATOM      8  C7  <0> d           1.662   7.549  -1.035  0.00  0.00     0.388 C 
BRANCH   8   9
ATOM      9  N2  <0> d           1.087   8.036  -2.291  0.00  0.00    -0.210 N 
ATOM     10  N1  <0> d          -0.268   8.299  -2.543  0.00  0.00    -0.141 NA
ATOM     11  C5  <0> d          -0.369   8.715  -3.775  0.00  0.00     0.208 A 
ATOM     12  O1  <0> d           0.860   8.735  -4.336  0.00  0.00    -0.261 OA
ATOM     13  C6  <0> d           1.760   8.324  -3.425  0.00  0.00     0.241 A 
ATOM     14  S2  <0> d           3.449   8.186  -3.662  0.00  0.00    -0.031 SA
BRANCH  11  15
ATOM     15  C3  <0> d          -1.621   9.101  -4.446  0.00  0.00     0.059 A 
ATOM     16  C2  <0> d          -1.812   9.546  -5.729  0.00  0.00     0.024 A 
ATOM     17  C1  <0> d          -3.090   9.850  -6.140  0.00  0.00     0.009 A 
ATOM     18  C4  <0> d          -4.120   9.700  -5.266  0.00  0.00     0.050 A 
ATOM     19  S1  <0> d          -3.287   9.103  -3.804  0.00  0.00    -0.098 SA
ENDBRANCH  11  15
ENDBRANCH   8   9
ENDBRANCH   1   8
BRANCH   4  20
ATOM     20  C12 <0> d           1.177   2.087   0.002  0.00  0.00     0.010 A 
ATOM     21  C17 <0> d           2.388   1.408  -0.012  0.00  0.00     0.026 A 
ATOM     22  C16 <0> d           2.405   0.027  -0.021  0.00  0.00     0.038 A 
ATOM     23  C15 <0> d           1.212  -0.681  -0.014  0.00  0.00     0.065 A 
ATOM     24  C14 <0> d           0.002  -0.004   0.002  0.00  0.00     0.038 A 
ATOM     25  C13 <0> d          -0.017   1.377   0.010  0.00  0.00     0.026 A 
BRANCH  23  26
ATOM     26  O2  <0> d           1.230  -2.041  -0.022  0.00  0.00    -0.361 OA
ATOM     27  H18 <0> d           2.189  -2.579  -0.034  0.00  0.00     0.217 HD
ENDBRANCH  23  26
ENDBRANCH   4  20
TORSDOF 5
