REMARK  2 active torsions:
REMARK  status: ('A' for Active; 'I' for Inactive)
REMARK    1  A    between atoms: N1_5  and  N2_6 
REMARK       I    between atoms: N2_6  and  C5_7 
REMARK    2  A    between atoms: C5_7  and  C6_9 
ROOT
ATOM      1  C1  <0> d          -0.008   1.538   0.001  0.00  0.00     0.046 C 
ATOM      2  C2  <0> d           0.009  -0.008  -0.005  0.00  0.00     0.124 C 
ATOM      3  C3  <0> d          -1.446  -0.481  -0.043  0.00  0.00     0.094 C 
ATOM      4  C4  <0> d          -1.474  -1.957   0.287  0.00  0.00     0.037 C 
ATOM      5  N1  <0> d          -2.014  -2.813  -0.491  0.00  0.00    -0.181 NA
ATOM      6  C12 <0> d          -0.827  -2.359   1.594  0.00  0.00     0.094 C 
ATOM      7  C13 <0> d           0.609  -1.832   1.610  0.00  0.00     0.124 C 
ATOM      8  N5  <0> d           0.719  -0.450   1.181  0.00  0.00    -0.058 N 
ATOM      9  C14 <0> d           1.501  -2.756   0.773  0.00  0.00     0.046 C 
ATOM     10  C15 <0> d           1.114  -1.915   3.069  0.00  0.00     0.046 C 
ATOM     11  C16 <0> d           0.722  -0.446  -1.288  0.00  0.00     0.046 C 
ATOM     12  H16 <0> d           1.714  -0.235   1.054  0.00  0.00     0.279 HD
ATOM     13  H26 <0> d           0.430   0.148   1.964  0.00  0.00     0.279 HD
ENDROOT
BRANCH   5  14
ATOM     14  N2  <0> d          -1.923  -4.181  -0.199  0.00  0.00    -0.245 N 
ATOM     15  C5  <0> d          -2.401  -5.089  -1.073  0.00  0.00     0.268 C 
ATOM     16  O1  <0> d          -2.910  -4.723  -2.111  0.00  0.00    -0.269 OA
ATOM     17  H7  <0> d          -1.516  -4.473   0.631  0.00  0.00     0.192 HD
BRANCH  15  18
ATOM     18  C6  <0> d          -2.303  -6.560  -0.759  0.00  0.00     0.255 A 
ATOM     19  N4  <0> d          -2.520  -7.368  -1.971  0.00  0.00    -0.173 NA
ATOM     20  N3  <0> d          -3.523  -8.063  -1.780  0.00  0.00    -0.159 NA
ATOM     21  C8  <0> d          -4.111  -7.897  -0.564  0.00  0.00     0.061 A 
ATOM     22  C7  <0> d          -3.438  -6.993   0.146  0.00  0.00    -0.018 A 
ATOM     23  C9  <0> d          -5.290  -8.412   0.244  0.00  0.00     0.062 C 
ATOM     24  C11 <0> d          -4.061  -6.784   1.502  0.00  0.00     0.039 C 
ATOM     25  C10 <0> d          -4.985  -8.007   1.703  0.00  0.00     0.011 C 
ENDBRANCH  15  18
ENDBRANCH   5  14
TORSDOF 2
