REMARK  4 active torsions:
REMARK  status: ('A' for Active; 'I' for Inactive)
REMARK    1  A    between atoms: C2_2  and  C3_3 
REMARK    2  A    between atoms: C5_7  and  C6_9 
REMARK    3  A    between atoms: C6_9  and  N3_10 
REMARK    4  A    between atoms: N4_13  and  C11_16 
ROOT
ATOM      1  N3  <0> d           1.205  -1.077   5.579  0.00  0.00     0.097 N 
ATOM      2  C7  <0> d           2.613  -0.661   5.507  0.00  0.00     0.303 C 
ATOM      3  C8  <0> d           2.885   0.397   6.579  0.00  0.00     0.308 C 
ATOM      4  N4  <0> d           2.569  -0.158   7.903  0.00  0.00     0.140 N 
ATOM      5  C9  <0> d           1.161  -0.573   7.974  0.00  0.00     0.308 C 
ATOM      6  C10 <0> d           0.890  -1.631   6.902  0.00  0.00     0.303 C 
ENDROOT
BRANCH   1   7
ATOM      7  C6  <0> d           0.885  -2.038   4.515  0.00  0.00     0.331 C 
BRANCH   7   8
ATOM      8  C5  <0> d           0.850  -1.325   3.188  0.00  0.00     0.061 A 
ATOM      9  C4  <0> d          -0.144  -0.546   2.721  0.00  0.00     0.031 A 
ATOM     10  N1  <0> d           0.212  -0.102   1.506  0.00  0.00    -0.348 N 
ATOM     11  C19 <0> d          -1.431  -0.228   3.438  0.00  0.00     0.070 C 
ATOM     12  C3  <0> d           1.389  -0.577   1.202  0.00  0.00     0.081 A 
ATOM     13  H28 <0> d          -0.322   0.479   0.943  0.00  0.00     0.167 HD
ATOM     14  N2  <0> d           1.821  -1.350   2.222  0.00  0.00    -0.346 N 
ATOM     15  H1  <0> d           2.662  -1.830   2.264  0.00  0.00     0.167 HD
BRANCH  12  16
ATOM     16  C2  <0> d           2.139  -0.312  -0.077  0.00  0.00     0.072 C 
ATOM     17  C1  <0> d           1.766  -1.372  -1.116  0.00  0.00     0.013 C 
ENDBRANCH  12  16
ENDBRANCH   7   8
ENDBRANCH   1   7
BRANCH   4  18
ATOM     18  C11 <0> d           2.889   0.804   8.966  0.00  0.00     0.473 A 
ATOM     19  O1  <0> d           2.632   0.224  10.248  0.00  0.00    -0.297 OA
ATOM     20  C17 <0> d           1.684   0.969  10.879  0.00  0.00     0.100 A 
ATOM     21  C12 <0> d           1.293   2.032  10.071  0.00  0.00     0.065 A 
ATOM     22  C16 <0> d           1.104   0.813  12.132  0.00  0.00     0.040 A 
ATOM     23  N5  <0> d           2.011   1.977   8.868  0.00  0.00    -0.337 N 
ATOM     24  C13 <0> d           0.330   2.927  10.519  0.00  0.00     0.038 A 
ATOM     25  H18 <0> d           1.942   2.592   8.121  0.00  0.00     0.164 HD
ATOM     26  C14 <0> d          -0.241   2.763  11.767  0.00  0.00    -0.060 A 
ATOM     27  C15 <0> d           0.147   1.707  12.571  0.00  0.00     0.009 A 
ATOM     28  C18 <0> d          -1.286   3.735  12.251  0.00  0.00     0.048 C 
ENDBRANCH   4  18
TORSDOF 4
