REMARK  6 active torsions:
REMARK  status: ('A' for Active; 'I' for Inactive)
REMARK    1  A    between atoms: N1_2  and  C3_4 
REMARK    2  A    between atoms: C3_4  and  C4_5 
REMARK    3  A    between atoms: C3_4  and  C10_17 
REMARK    4  A    between atoms: C4_5  and  N2_6 
REMARK       I    between atoms: N2_6  and  C5_7 
REMARK    5  A    between atoms: C5_7  and  C6_9 
REMARK    6  A    between atoms: N3_11  and  C7_12 
ROOT
ATOM      1  N2  <0> d          -2.927  -2.053   0.746  0.00  0.00    -0.351 N 
ATOM      2  C5  <0> d          -3.303  -3.327   0.976  0.00  0.00     0.297 C 
ATOM      3  O1  <0> d          -2.467  -4.208   1.022  0.00  0.00    -0.264 OA
ATOM      4  H10 <0> d          -3.594  -1.350   0.709  0.00  0.00     0.162 HD
ENDROOT
BRANCH   1   5
ATOM      5  C4  <0> d          -1.511  -1.730   0.552  0.00  0.00     0.161 C 
BRANCH   5   6
ATOM      6  C3  <0> d          -1.371  -0.252   0.183  0.00  0.00     0.238 C 
BRANCH   6   7
ATOM      7  N1  <0> d           0.053   0.101   0.111  0.00  0.00    -0.069 N 
ATOM      8  C1  <0> d           0.189   1.508  -0.288  0.00  0.00     0.270 C 
ATOM      9  C2  <0> d           0.674  -0.097   1.427  0.00  0.00     0.270 C 
ATOM     10  H16 <0> d           0.512  -0.487  -0.569  0.00  0.00     0.279 HD
ENDBRANCH   6   7
BRANCH   6  11
ATOM     11  C10 <0> d          -2.018  -0.005  -1.155  0.00  0.00    -0.019 A 
ATOM     12  C13 <0> d          -1.365  -0.314  -2.303  0.00  0.00     0.058 A 
ATOM     13  S2  <0> d          -2.555   0.166  -3.545  0.00  0.00    -0.113 SA
ATOM     14  C12 <0> d          -3.837   0.754  -2.451  0.00  0.00     0.050 A 
ATOM     15  C11 <0> d          -3.284   0.545  -1.231  0.00  0.00     0.017 A 
ENDBRANCH   6  11
ENDBRANCH   5   6
ENDBRANCH   1   5
BRANCH   2  16
ATOM     16  C6  <0> d          -4.732  -3.652   1.171  0.00  0.00     0.271 C 
ATOM     17  O2  <0> d          -5.110  -4.931   1.402  0.00  0.00    -0.164 OA
ATOM     18  N3  <0> d          -5.632  -2.704   1.121  0.00  0.00    -0.191 NA
BRANCH  18  19
ATOM     19  C7  <0> d          -6.938  -3.001   1.299  0.00  0.00     0.194 A 
ATOM     20  S1  <0> d          -8.360  -1.918   1.283  0.00  0.00    -0.061 SA
ATOM     21  C9  <0> d          -9.594  -3.174   1.595  0.00  0.00     0.072 A 
ATOM     22  C8  <0> d          -8.807  -4.283   1.689  0.00  0.00     0.127 A 
ATOM     23  N4  <0> d          -7.510  -4.177   1.541  0.00  0.00    -0.235 NA
ENDBRANCH  18  19
ENDBRANCH   2  16
TORSDOF 6
