REMARK  3 active torsions:
REMARK  status: ('A' for Active; 'I' for Inactive)
REMARK    1  A    between atoms: N1_5  and  C6_9 
REMARK    2  A    between atoms: C6_9  and  C7_10 
REMARK       I    between atoms: C7_10  and  N3_12 
REMARK    3  A    between atoms: N3_12  and  C8_13 
ROOT
ATOM      1  C8  <0> d           0.201  -6.439  -3.009  0.00  0.00     0.171 A 
ATOM      2  C9  <0> d           0.252  -7.764  -3.411  0.00  0.00     0.104 A 
ATOM      3  C10 <0> d           0.245  -7.725  -4.882  0.00  0.00    -0.007 A 
ATOM      4  C11 <0> d           0.193  -6.429  -5.220  0.00  0.00     0.059 A 
ATOM      5  O3  <0> d           0.162  -5.674  -4.108  0.00  0.00    -0.296 OA
ATOM      6  C12 <0> d           0.167  -5.899  -6.630  0.00  0.00     0.077 C 
ATOM      7  C13 <0> d           0.289  -8.904  -5.819  0.00  0.00     0.052 C 
ATOM      8  C14 <0> d           0.301  -8.924  -2.573  0.00  0.00     0.104 C 
ATOM      9  N4  <0> d           0.340  -9.845  -1.909  0.00  0.00    -0.191 NA
ENDROOT
BRANCH   1  10
ATOM     10  N3  <0> d           0.187  -5.986  -1.701  0.00  0.00    -0.305 N 
ATOM     11  C7  <0> d           0.130  -4.663  -1.446  0.00  0.00     0.242 C 
ATOM     12  O2  <0> d           0.091  -3.871  -2.364  0.00  0.00    -0.271 OA
ATOM     13  H7  <0> d           0.219  -6.620  -0.967  0.00  0.00     0.171 HD
BRANCH  11  14
ATOM     14  C6  <0> d           0.115  -4.170  -0.023  0.00  0.00     0.236 C 
BRANCH  14  15
ATOM     15  N1  <0> d           0.050  -2.706  -0.014  0.00  0.00    -0.293 N 
ATOM     16  C4  <0> d          -1.156  -2.081  -0.004  0.00  0.00     0.015 A 
ATOM     17  C3  <0> d          -1.198  -0.721   0.004  0.00  0.00     0.051 A 
ATOM     18  C15 <0> d          -2.431  -2.884  -0.002  0.00  0.00     0.068 C 
ATOM     19  C2  <0> d           0.002  -0.004   0.002  0.00  0.00     0.038 A 
ATOM     20  C1  <0> d          -0.018   1.503   0.010  0.00  0.00     0.070 C 
ATOM     21  N2  <0> d           1.151  -0.649  -0.012  0.00  0.00    -0.199 NA
ATOM     22  C5  <0> d           1.186  -1.984  -0.015  0.00  0.00     0.349 A 
ATOM     23  O1  <0> d           2.263  -2.557  -0.023  0.00  0.00    -0.244 OA
ENDBRANCH  14  15
ENDBRANCH  11  14
ENDBRANCH   1  10
TORSDOF 3
