REMARK  3 active torsions:
REMARK  status: ('A' for Active; 'I' for Inactive)
REMARK    1  A    between atoms: C9_9  and  N2_12 
REMARK    2  A    between atoms: N2_12  and  S1_13 
REMARK    3  A    between atoms: S1_13  and  C11_16 
ROOT
ATOM      1  S1  <0> d           0.063  -2.776   5.064  0.00  0.00     0.284 S 
ATOM      2  O1  <0> d          -1.172  -3.473   5.152  0.00  0.00    -0.198 OA
ATOM      3  O2  <0> d           1.319  -3.437   5.142  0.00  0.00    -0.198 OA
ENDROOT
BRANCH   1   4
ATOM      4  N2  <0> d           0.045  -1.962   3.621  0.00  0.00    -0.158 NA
BRANCH   4   5
ATOM      5  C9  <0> d           0.051  -2.672   2.421  0.00  0.00     0.097 A 
ATOM      6  C8  <0> d           0.071  -4.049   2.429  0.00  0.00     0.035 A 
ATOM      7  C7  <0> d           0.076  -4.769   1.237  0.00  0.00     0.003 A 
ATOM      8  C6  <0> d           0.060  -4.133   0.034  0.00  0.00     0.014 A 
ATOM      9  C5  <0> d           0.040  -2.729  -0.016  0.00  0.00    -0.007 A 
ATOM     10  C4  <0> d           0.024  -2.041  -1.245  0.00  0.00     0.015 A 
ATOM     11  C10 <0> d           0.035  -1.983   1.187  0.00  0.00     0.072 A 
ATOM     12  C3  <0> d           0.005  -0.676  -1.219  0.00  0.00     0.025 A 
ATOM     13  C2  <0> d           0.002  -0.004   0.002  0.00  0.00     0.005 A 
ATOM     14  C1  <0> d          -0.018   1.503   0.010  0.00  0.00     0.068 C 
ATOM     15  N1  <0> d           0.022  -0.648   1.143  0.00  0.00    -0.357 N 
ATOM     16  H15 <0> d           0.022  -0.146   1.973  0.00  0.00     0.166 HD
ENDBRANCH   4   5
ENDBRANCH   1   4
BRANCH   1  17
ATOM     17  C11 <0> d           0.051  -1.566   6.344  0.00  0.00     0.084 A 
ATOM     18  C16 <0> d          -1.152  -1.111   6.849  0.00  0.00     0.065 A 
ATOM     19  C15 <0> d          -1.164  -0.163   7.860  0.00  0.00     0.109 A 
ATOM     20  C14 <0> d           0.041   0.335   8.355  0.00  0.00     0.073 A 
ATOM     21  O3  <0> d          -2.163   0.453   8.538  0.00  0.00    -0.259 OA
ATOM     22  C13 <0> d           1.244  -0.122   7.840  0.00  0.00     0.034 A 
ATOM     23  N3  <0> d          -0.287   1.261   9.344  0.00  0.00    -0.295 N 
ATOM     24  C12 <0> d           1.246  -1.071   6.836  0.00  0.00     0.028 A 
ATOM     25  C17 <0> d          -1.631   1.306   9.427  0.00  0.00     0.372 A 
ATOM     26  C18 <0> d           0.658   2.043  10.146  0.00  0.00     0.162 C 
ATOM     27  O4  <0> d          -2.264   2.011  10.190  0.00  0.00    -0.238 OA
ENDBRANCH   1  17
TORSDOF 3
