REMARK  6 active torsions:
REMARK  status: ('A' for Active; 'I' for Inactive)
REMARK    1  A    between atoms: C3_3  and  C15_19 
REMARK    2  A    between atoms: C4_5  and  C8_10 
REMARK    3  A    between atoms: C11_13  and  O3_18 
REMARK    4  A    between atoms: C12_14  and  O2_16 
REMARK    5  A    between atoms: C18_22  and  O5_27 
REMARK    6  A    between atoms: C19_23  and  O4_25 
ROOT
ATOM      1  C1  <0> d          -0.019   1.526   0.010  0.00  0.00     0.020 C 
ATOM      2  C2  <0> d           0.002  -0.004   0.002  0.00  0.00     0.087 C 
ATOM      3  C3  <0> d           0.732  -0.505  -1.250  0.00  0.00     0.230 C 
ATOM      4  N1  <0> d           2.142  -0.103  -1.187  0.00  0.00    -0.057 N 
ATOM      5  C4  <0> d           2.820  -0.803  -0.090  0.00  0.00     0.230 C 
ATOM      6  C5  <0> d           2.251  -0.326   1.251  0.00  0.00     0.087 C 
ATOM      7  C6  <0> d           0.747  -0.512   1.219  0.00  0.00     0.139 C 
ATOM      8  O1  <0> d           0.163  -1.046   2.132  0.00  0.00    -0.297 OA
ATOM      9  C7  <0> d           2.850  -1.152   2.390  0.00  0.00     0.020 C 
ATOM     10  H8  <0> d           2.594  -0.332  -2.060  0.00  0.00     0.278 HD
ATOM     11  H26 <0> d           2.200   0.893  -1.035  0.00  0.00     0.278 HD
ENDROOT
BRANCH   3  12
ATOM     12  C15 <0> d           0.093   0.094  -2.477  0.00  0.00    -0.024 A 
ATOM     13  C20 <0> d          -0.801  -0.652  -3.222  0.00  0.00     0.049 A 
ATOM     14  C19 <0> d          -1.393  -0.102  -4.347  0.00  0.00     0.101 A 
ATOM     15  C18 <0> d          -1.077   1.198  -4.731  0.00  0.00     0.099 A 
ATOM     16  C17 <0> d          -0.176   1.938  -3.982  0.00  0.00     0.040 A 
ATOM     17  C16 <0> d           0.407   1.385  -2.858  0.00  0.00     0.012 A 
BRANCH  14  18
ATOM     18  O4  <0> d          -2.277  -0.832  -5.078  0.00  0.00    -0.353 OA
ATOM     19  C21 <0> d          -2.553  -2.159  -4.625  0.00  0.00     0.210 C 
ENDBRANCH  14  18
BRANCH  15  20
ATOM     20  O5  <0> d          -1.652   1.741  -5.837  0.00  0.00    -0.358 OA
ATOM     21  H25 <0> d          -1.155   1.591  -6.652  0.00  0.00     0.217 HD
ENDBRANCH  15  20
ENDBRANCH   3  12
BRANCH   5  22
ATOM     22  C8  <0> d           4.297  -0.507  -0.142  0.00  0.00    -0.024 A 
ATOM     23  C13 <0> d           5.211  -1.512   0.117  0.00  0.00     0.049 A 
ATOM     24  C12 <0> d           6.569  -1.243   0.065  0.00  0.00     0.101 A 
ATOM     25  C11 <0> d           7.010   0.042  -0.238  0.00  0.00     0.099 A 
ATOM     26  C10 <0> d           6.088   1.045  -0.492  0.00  0.00     0.040 A 
ATOM     27  C9  <0> d           4.735   0.769  -0.443  0.00  0.00     0.012 A 
BRANCH  24  28
ATOM     28  O2  <0> d           7.470  -2.231   0.315  0.00  0.00    -0.353 OA
ATOM     29  C14 <0> d           6.946  -3.524   0.620  0.00  0.00     0.210 C 
ENDBRANCH  24  28
BRANCH  25  30
ATOM     30  O3  <0> d           8.342   0.312  -0.287  0.00  0.00    -0.358 OA
ATOM     31  H18 <0> d           8.716   0.597   0.558  0.00  0.00     0.217 HD
ENDBRANCH  25  30
ENDBRANCH   5  22
TORSDOF 6
