REMARK  7 active torsions:
REMARK  status: ('A' for Active; 'I' for Inactive)
REMARK    1  A    between atoms: N1_2  and  C2_3 
REMARK    2  A    between atoms: C3_4  and  N6_26 
REMARK    3  A    between atoms: C4_5  and  N4_9 
REMARK    4  A    between atoms: N4_9  and  N5_10 
REMARK       I    between atoms: N5_10  and  C6_11 
REMARK    5  A    between atoms: C6_11  and  C7_13 
REMARK    6  A    between atoms: C7_13  and  C8_14 
REMARK    7  A    between atoms: C7_13  and  C14_20 
ROOT
ATOM      1  N5  <0> d           1.944  -4.373  -4.368  0.00  0.00    -0.268 N 
ATOM      2  C6  <0> d           1.894  -5.621  -3.861  0.00  0.00     0.249 C 
ATOM      3  O1  <0> d           1.262  -5.839  -2.849  0.00  0.00    -0.271 OA
ATOM      4  H7  <0> d           2.449  -4.199  -5.178  0.00  0.00     0.190 HD
ENDROOT
BRANCH   1   5
ATOM      5  N4  <0> d           1.265  -3.329  -3.727  0.00  0.00    -0.279 N 
ATOM      6  H6  <0> d           0.759  -3.504  -2.918  0.00  0.00     0.189 HD
BRANCH   5   7
ATOM      7  C4  <0> d           1.315  -2.042  -4.250  0.00  0.00     0.173 A 
ATOM      8  C3  <0> d           0.643  -0.994  -3.620  0.00  0.00     0.120 A 
ATOM      9  C2  <0> d           0.728   0.279  -4.188  0.00  0.00     0.154 A 
ATOM     10  N3  <0> d           1.436   0.442  -5.303  0.00  0.00    -0.222 NA
ATOM     11  C5  <0> d           2.060  -0.574  -5.863  0.00  0.00     0.237 A 
ATOM     12  N2  <0> d           2.006  -1.791  -5.360  0.00  0.00    -0.221 NA
BRANCH   8  13
ATOM     13  N6  <0> d          -0.098  -1.213  -2.447  0.00  0.00    -0.393 N 
ATOM     14  H19 <0> d          -0.560  -0.475  -2.020  0.00  0.00     0.156 HD
ATOM     15  H20 <0> d          -0.147  -2.103  -2.064  0.00  0.00     0.156 HD
ENDBRANCH   8  13
BRANCH   9  16
ATOM     16  N1  <0> d           0.077   1.358  -3.601  0.00  0.00    -0.377 N 
ATOM     17  C1  <0> d           0.168   2.687  -4.210  0.00  0.00     0.148 C 
ATOM     18  H4  <0> d          -0.438   1.230  -2.789  0.00  0.00     0.160 HD
ENDBRANCH   9  16
ENDBRANCH   5   7
ENDBRANCH   1   5
BRANCH   2  19
ATOM     19  C7  <0> d           2.624  -6.744  -4.550  0.00  0.00     0.145 C 
BRANCH  19  20
ATOM     20  C8  <0> d           4.098  -6.430  -4.601  0.00  0.00    -0.041 A 
ATOM     21  C13 <0> d           4.781  -6.513  -5.799  0.00  0.00     0.008 A 
ATOM     22  C12 <0> d           6.131  -6.220  -5.846  0.00  0.00     0.001 A 
ATOM     23  C11 <0> d           6.800  -5.853  -4.693  0.00  0.00     0.000 A 
ATOM     24  C10 <0> d           6.117  -5.775  -3.494  0.00  0.00     0.001 A 
ATOM     25  C9  <0> d           4.766  -6.064  -3.448  0.00  0.00     0.008 A 
ENDBRANCH  19  20
BRANCH  19  26
ATOM     26  C14 <0> d           2.410  -8.026  -3.787  0.00  0.00    -0.041 A 
ATOM     27  C19 <0> d           1.938  -9.149  -4.440  0.00  0.00     0.008 A 
ATOM     28  C18 <0> d           1.745 -10.325  -3.741  0.00  0.00     0.001 A 
ATOM     29  C17 <0> d           2.017 -10.377  -2.387  0.00  0.00     0.000 A 
ATOM     30  C16 <0> d           2.485  -9.253  -1.732  0.00  0.00     0.001 A 
ATOM     31  C15 <0> d           2.682  -8.077  -2.433  0.00  0.00     0.008 A 
ENDBRANCH  19  26
ENDBRANCH   2  19
TORSDOF 7
