REMARK  5 active torsions:
REMARK  status: ('A' for Active; 'I' for Inactive)
REMARK    1  A    between atoms: C6_6  and  S1_8 
REMARK    2  A    between atoms: S1_8  and  C8_11 
REMARK    3  A    between atoms: N3_22  and  N5_25 
REMARK    4  A    between atoms: C17_23  and  N4_24 
REMARK    5  A    between atoms: C18_26  and  C19_27 
ROOT
ATOM      1  C8  <0> d          -1.132   5.737  -1.219  0.00  0.00     0.142 A 
ATOM      2  C9  <0> d           0.132   6.066  -1.768  0.00  0.00     0.131 A 
ATOM      3  C10 <0> d          -0.135   6.569  -3.122  0.00  0.00     0.184 A 
ATOM      4  N1  <0> d           0.866   6.953  -3.882  0.00  0.00    -0.225 NA
ATOM      5  C11 <0> d           2.120   6.891  -3.416  0.00  0.00     0.088 A 
ATOM      6  C12 <0> d           3.197   7.304  -4.221  0.00  0.00     0.034 A 
ATOM      7  C13 <0> d           4.468   7.231  -3.743  0.00  0.00     0.002 A 
ATOM      8  C14 <0> d           4.724   6.751  -2.459  0.00  0.00     0.002 A 
ATOM      9  C15 <0> d           3.710   6.342  -1.651  0.00  0.00     0.034 A 
ATOM     10  C16 <0> d           2.380   6.403  -2.111  0.00  0.00     0.086 A 
ATOM     11  N2  <0> d           1.376   6.003  -1.322  0.00  0.00    -0.241 NA
ATOM     12  N3  <0> d          -1.504   6.519  -3.290  0.00  0.00    -0.196 N 
ATOM     13  C17 <0> d          -2.079   6.020  -2.145  0.00  0.00     0.149 A 
ENDROOT
BRANCH   1  14
ATOM     14  S1  <0> d          -1.422   5.082   0.390  0.00  0.00     0.213 S 
ATOM     15  O1  <0> d          -2.756   5.426   0.735  0.00  0.00    -0.217 OA
ATOM     16  O2  <0> d          -0.307   5.457   1.188  0.00  0.00    -0.217 OA
BRANCH  14  17
ATOM     17  C6  <0> d          -1.375   3.325   0.254  0.00  0.00     0.065 A 
ATOM     18  C5  <0> d          -0.179   2.651   0.418  0.00  0.00     0.024 A 
ATOM     19  C4  <0> d          -0.142   1.273   0.312  0.00  0.00     0.002 A 
ATOM     20  C3  <0> d          -1.301   0.570   0.042  0.00  0.00     0.007 A 
ATOM     21  C2  <0> d          -2.496   1.245  -0.128  0.00  0.00    -0.061 A 
ATOM     22  C1  <0> d          -3.758   0.478  -0.429  0.00  0.00     0.048 C 
ATOM     23  C7  <0> d          -2.534   2.622  -0.017  0.00  0.00     0.030 A 
ENDBRANCH  14  17
ENDBRANCH   1  14
BRANCH  13  24
ATOM     24  N4  <0> d          -3.438   5.833  -1.962  0.00  0.00    -0.383 N 
ATOM     25  H12 <0> d          -3.770   5.476  -1.124  0.00  0.00     0.157 HD
ATOM     26  H13 <0> d          -4.058   6.060  -2.673  0.00  0.00     0.157 HD
ENDBRANCH  13  24
BRANCH  12  27
ATOM     27  N5  <0> d          -2.197   6.911  -4.442  0.00  0.00    -0.176 NA
ATOM     28  C18 <0> d          -2.607   8.136  -4.567  0.00  0.00     0.151 C 
BRANCH  28  29
ATOM     29  C19 <0> d          -3.337   8.550  -5.780  0.00  0.00    -0.011 A 
ATOM     30  C24 <0> d          -3.493   7.657  -6.844  0.00  0.00    -0.050 A 
ATOM     31  C23 <0> d          -4.176   8.051  -7.976  0.00  0.00     0.007 A 
ATOM     32  C25 <0> d          -2.915   6.268  -6.755  0.00  0.00     0.049 C 
ATOM     33  C22 <0> d          -4.706   9.326  -8.059  0.00  0.00     0.001 A 
ATOM     34  C21 <0> d          -4.556  10.216  -7.009  0.00  0.00     0.001 A 
ATOM     35  C20 <0> d          -3.880   9.834  -5.869  0.00  0.00     0.013 A 
ENDBRANCH  28  29
ENDBRANCH  12  27
TORSDOF 5
