REMARK  2 active torsions:
REMARK  status: ('A' for Active; 'I' for Inactive)
REMARK    1  A    between atoms: C4_4  and  O4_19 
REMARK    2  A    between atoms: C9_9  and  O3_18 
ROOT
ATOM      1  C1  <0> d           1.827   2.269  -1.413  0.00  0.00     0.021 C 
ATOM      2  C2  <0> d           1.419   1.843  -0.002  0.00  0.00     0.090 C 
ATOM      3  C3  <0> d           2.247   0.630   0.452  0.00  0.00     0.058 C 
ATOM      4  C4  <0> d           2.947   0.844   1.762  0.00  0.00     0.129 C 
ATOM      5  C5  <0> d           4.249   0.127   1.958  0.00  0.00     0.066 C 
ATOM      6  C6  <0> d           3.848  -1.365   1.794  0.00  0.00    -0.079 C 
ATOM      7  C7  <0> d           4.037  -2.237   2.753  0.00  0.00     0.015 C 
ATOM      8  C8  <0> d           3.261  -1.740   0.541  0.00  0.00     0.057 C 
ATOM      9  C9  <0> d           3.587  -3.107  -0.111  0.00  0.00     0.150 C 
ATOM     10  C10 <0> d           2.772  -2.967  -1.405  0.00  0.00     0.008 C 
ATOM     11  C11 <0> d           1.728  -2.162  -1.204  0.00  0.00    -0.078 C 
ATOM     12  C12 <0> d           1.740  -1.768   0.232  0.00  0.00     0.055 C 
ATOM     13  C13 <0> d           1.182  -0.437   0.714  0.00  0.00     0.148 C 
ATOM     14  O1  <0> d           0.002  -0.004   0.002  0.00  0.00    -0.315 OA
ATOM     15  C14 <0> d          -0.016   1.348   0.009  0.00  0.00     0.263 C 
ATOM     16  O2  <0> d          -1.005   2.042   0.018  0.00  0.00    -0.265 OA
ATOM     17  C15 <0> d           0.721  -1.731  -2.239  0.00  0.00     0.043 C 
ENDROOT
BRANCH   4  18
ATOM     18  O4  <0> d           2.060   0.441   2.807  0.00  0.00    -0.395 OA
ATOM     19  H20 <0> d           2.427   0.543   3.696  0.00  0.00     0.210 HD
ENDBRANCH   4  18
BRANCH   9  20
ATOM     20  O3  <0> d           4.984  -3.235  -0.384  0.00  0.00    -0.391 OA
ATOM     21  H19 <0> d           5.229  -4.077  -0.793  0.00  0.00     0.210 HD
ENDBRANCH   9  20
TORSDOF 2
