REMARK  6 active torsions:
REMARK  status: ('A' for Active; 'I' for Inactive)
REMARK    1  A    between atoms: C5_5  and  N2_8 
REMARK       I    between atoms: N2_8  and  C7_9 
REMARK    2  A    between atoms: C7_9  and  C8_11 
REMARK    3  A    between atoms: C13_16  and  O4_33 
REMARK    4  A    between atoms: N3_21  and  C17_22 
REMARK    5  A    between atoms: C21_26  and  O3_28 
REMARK    6  A    between atoms: O3_28  and  C23_29 
ROOT
ATOM      1  C8  <0> d          -0.178  -6.280  -0.943  0.00  0.00     0.084 C 
ATOM      2  C9  <0> d          -0.163  -7.034  -2.108  0.00  0.00     0.035 C 
ATOM      3  C10 <0> d          -0.232  -8.446  -1.992  0.00  0.00    -0.001 A 
ATOM      4  C11 <0> d          -0.019  -9.261  -3.115  0.00  0.00     0.017 A 
ATOM      5  C12 <0> d          -0.047 -10.618  -2.984  0.00  0.00     0.037 A 
ATOM      6  C13 <0> d          -0.292 -11.204  -1.743  0.00  0.00     0.068 A 
ATOM      7  C14 <0> d          -0.525 -10.415  -0.627  0.00  0.00     0.074 A 
ATOM      8  C15 <0> d          -0.508  -9.035  -0.743  0.00  0.00     0.090 A 
ATOM      9  O2  <0> d          -0.777  -8.255   0.332  0.00  0.00    -0.292 OA
ATOM     10  C16 <0> d          -0.226  -7.011   0.338  0.00  0.00     0.164 C 
ATOM     11  N3  <0> d           0.242  -6.476   1.445  0.00  0.00    -0.336 N 
ATOM     12  H17 <0> d           0.724  -5.635   1.411  0.00  0.00     0.168 HD
ENDROOT
BRANCH   1  13
ATOM     13  C7  <0> d          -0.142  -4.810  -0.984  0.00  0.00     0.261 C 
ATOM     14  N2  <0> d          -0.300  -4.100   0.151  0.00  0.00    -0.307 N 
ATOM     15  H7  <0> d          -0.390  -4.558   1.001  0.00  0.00     0.170 HD
ATOM     16  O1  <0> d           0.031  -4.234  -2.042  0.00  0.00    -0.267 OA
BRANCH  14  17
ATOM     17  C5  <0> d          -0.335  -2.708   0.103  0.00  0.00     0.130 A 
ATOM     18  C4  <0> d           0.199  -2.043  -0.995  0.00  0.00     0.051 A 
ATOM     19  C3  <0> d           0.158  -0.661  -1.030  0.00  0.00     0.012 A 
ATOM     20  C2  <0> d          -0.418   0.012   0.039  0.00  0.00    -0.044 A 
ATOM     21  C1  <0> d          -0.484   1.518   0.044  0.00  0.00     0.049 C 
ATOM     22  C6  <0> d          -0.924  -0.712   1.100  0.00  0.00     0.125 A 
ATOM     23  N1  <0> d          -0.876  -2.031   1.103  0.00  0.00    -0.243 NA
ENDBRANCH  14  17
ENDBRANCH   1  13
BRANCH  11  24
ATOM     24  C17 <0> d           0.050  -7.105   2.644  0.00  0.00     0.036 A 
ATOM     25  C22 <0> d           1.105  -7.225   3.550  0.00  0.00     0.066 A 
ATOM     26  C21 <0> d           0.900  -7.858   4.764  0.00  0.00     0.080 A 
ATOM     27  C20 <0> d          -0.348  -8.383   5.073  0.00  0.00     0.037 A 
ATOM     28  C19 <0> d          -1.393  -8.271   4.174  0.00  0.00     0.005 A 
ATOM     29  C18 <0> d          -1.203  -7.637   2.964  0.00  0.00     0.029 A 
BRANCH  26  30
ATOM     30  O3  <0> d           1.923  -7.971   5.652  0.00  0.00    -0.255 OA
BRANCH  30  31
ATOM     31  C23 <0> d           1.643  -8.642   6.883  0.00  0.00     0.530 C 
ATOM     32  F1  <0> d           1.230  -9.951   6.616  0.00  0.00    -0.144 F 
ATOM     33  F2  <0> d           2.797  -8.668   7.673  0.00  0.00    -0.144 F 
ATOM     34  F3  <0> d           0.627  -7.962   7.563  0.00  0.00    -0.144 F 
ENDBRANCH  30  31
ENDBRANCH  26  30
ENDBRANCH  11  24
BRANCH   6  35
ATOM     35  O4  <0> d          -0.304 -12.556  -1.627  0.00  0.00    -0.361 OA
ATOM     36  H16 <0> d           0.558 -12.941  -1.418  0.00  0.00     0.217 HD
ENDBRANCH   6  35
TORSDOF 6
