REMARK  4 active torsions:
REMARK  status: ('A' for Active; 'I' for Inactive)
REMARK    1  A    between atoms: C5_5  and  N1_9 
REMARK       I    between atoms: N1_9  and  C9_10 
REMARK    2  A    between atoms: C9_10  and  C10_12 
REMARK    3  A    between atoms: C11_13  and  C12_14 
REMARK       I    between atoms: C12_14  and  N2_16 
REMARK    4  A    between atoms: N2_16  and  C13_17 
ROOT
ATOM      1  C10 <0> d           8.182  -2.887  -4.062  0.00  0.00     0.080 C 
ATOM      2  C11 <0> d           8.700  -2.421  -2.913  0.00  0.00     0.080 C 
ENDROOT
BRANCH   1   3
ATOM      3  C9  <0> d           6.989  -2.247  -4.647  0.00  0.00     0.245 C 
ATOM      4  N1  <0> d           6.470  -2.715  -5.800  0.00  0.00    -0.323 N 
ATOM      5  H9  <0> d           6.916  -3.433  -6.276  0.00  0.00     0.169 HD
ATOM      6  O1  <0> d           6.474  -1.298  -4.090  0.00  0.00    -0.268 OA
BRANCH   4   7
ATOM      7  C5  <0> d           5.290  -2.166  -6.308  0.00  0.00     0.046 A 
ATOM      8  C4  <0> d           4.197  -2.984  -6.567  0.00  0.00    -0.034 A 
ATOM      9  C3  <0> d           3.032  -2.438  -7.069  0.00  0.00     0.015 A 
ATOM     10  C22 <0> d           4.282  -4.464  -6.298  0.00  0.00     0.050 C 
ATOM     11  C2  <0> d           2.953  -1.080  -7.316  0.00  0.00    -0.061 A 
ATOM     12  C1  <0> d           1.678  -0.487  -7.859  0.00  0.00     0.048 C 
ATOM     13  C7  <0> d           4.039  -0.263  -7.060  0.00  0.00     0.015 A 
ATOM     14  C6  <0> d           5.207  -0.802  -6.557  0.00  0.00    -0.034 A 
ATOM     15  C8  <0> d           6.390   0.089  -6.278  0.00  0.00     0.050 C 
ENDBRANCH   4   7
ENDBRANCH   1   3
BRANCH   2  16
ATOM     16  C12 <0> d           9.893  -3.062  -2.328  0.00  0.00     0.245 C 
ATOM     17  O2  <0> d          10.408  -4.011  -2.885  0.00  0.00    -0.268 OA
ATOM     18  N2  <0> d          10.412  -2.594  -1.175  0.00  0.00    -0.323 N 
ATOM     19  H12 <0> d           9.968  -1.873  -0.701  0.00  0.00     0.169 HD
BRANCH  18  20
ATOM     20  C13 <0> d          11.589  -3.147  -0.664  0.00  0.00     0.046 A 
ATOM     21  C18 <0> d          12.823  -2.710  -1.129  0.00  0.00    -0.034 A 
ATOM     22  C17 <0> d          13.984  -3.259  -0.621  0.00  0.00     0.015 A 
ATOM     23  C19 <0> d          12.894  -1.639  -2.187  0.00  0.00     0.050 C 
ATOM     24  C16 <0> d          13.919  -4.242   0.349  0.00  0.00    -0.061 A 
ATOM     25  C15 <0> d          12.693  -4.678   0.815  0.00  0.00     0.015 A 
ATOM     26  C20 <0> d          15.189  -4.838   0.901  0.00  0.00     0.048 C 
ATOM     27  C14 <0> d          11.528  -4.130   0.316  0.00  0.00    -0.034 A 
ATOM     28  C21 <0> d          10.191  -4.602   0.828  0.00  0.00     0.050 C 
ENDBRANCH  18  20
ENDBRANCH   2  16
TORSDOF 4
