REMARK  4 active torsions:
REMARK  status: ('A' for Active; 'I' for Inactive)
REMARK    1  A    between atoms: C5_6  and  S1_10 
REMARK    2  A    between atoms: S1_10  and  C8_11 
REMARK    3  A    between atoms: C8_11  and  C9_12 
REMARK       I    between atoms: C9_12  and  N3_14 
REMARK    4  A    between atoms: N3_14  and  C10_15 
ROOT
ATOM      1  C1  <0> d          -0.018   1.503   0.010  0.00  0.00     0.050 C 
ATOM      2  C2  <0> d           0.002  -0.004   0.002  0.00  0.00    -0.030 A 
ATOM      3  C3  <0> d           0.006  -0.705  -1.193  0.00  0.00    -0.026 A 
ATOM      4  C4  <0> d           0.026  -2.088  -1.176  0.00  0.00     0.042 A 
ATOM      5  N1  <0> d           0.041  -2.749  -0.028  0.00  0.00    -0.244 NA
ATOM      6  C5  <0> d           0.038  -2.130   1.140  0.00  0.00     0.115 A 
ATOM      7  C6  <0> d           0.023  -0.725   1.200  0.00  0.00     0.086 A 
ATOM      8  C7  <0> d           0.026  -0.046   2.462  0.00  0.00     0.103 C 
ATOM      9  N2  <0> d           0.028   0.491   3.462  0.00  0.00    -0.191 NA
ATOM     10  C14 <0> d           0.027  -2.613  -2.598  0.00  0.00     0.060 C 
ATOM     11  C15 <0> d          -0.435  -1.426  -3.468  0.00  0.00     0.011 C 
ATOM     12  C16 <0> d          -0.008  -0.208  -2.622  0.00  0.00     0.041 C 
ENDROOT
BRANCH   6  13
ATOM     13  S1  <0> d           0.058  -3.071   2.630  0.00  0.00    -0.100 SA
BRANCH  13  14
ATOM     14  C8  <0> d           0.079  -4.793   2.061  0.00  0.00     0.183 C 
BRANCH  14  15
ATOM     15  C9  <0> d           0.098  -5.715   3.253  0.00  0.00     0.227 C 
ATOM     16  O1  <0> d           0.097  -5.256   4.375  0.00  0.00    -0.273 OA
ATOM     17  N3  <0> d           0.116  -7.051   3.071  0.00  0.00    -0.355 N 
ATOM     18  H6  <0> d           0.116  -7.418   2.173  0.00  0.00     0.162 HD
BRANCH  17  19
ATOM     19  C10 <0> d           0.134  -7.947   4.229  0.00  0.00     0.099 C 
ATOM     20  C13 <0> d          -0.468  -9.327   3.836  0.00  0.00     0.165 C 
ATOM     21  S2  <0> d           0.213 -10.387   5.179  0.00  0.00     0.146 S 
ATOM     22  C12 <0> d           1.643  -9.350   5.691  0.00  0.00     0.142 C 
ATOM     23  O2  <0> d          -0.724 -10.442   6.246  0.00  0.00    -0.228 OA
ATOM     24  O3  <0> d           0.699 -11.597   4.613  0.00  0.00    -0.228 OA
ATOM     25  C11 <0> d           1.584  -8.171   4.690  0.00  0.00     0.041 C 
ENDBRANCH  17  19
ENDBRANCH  14  15
ENDBRANCH  13  14
ENDBRANCH   6  13
TORSDOF 4
