REMARK  3 active torsions:
REMARK  status: ('A' for Active; 'I' for Inactive)
REMARK    1  A    between atoms: C5_5  and  S1_16 
REMARK    2  A    between atoms: S1_16  and  N2_19 
REMARK    3  A    between atoms: N2_19  and  C13_20 
ROOT
ATOM      1  C1  <0> d          -0.017   1.385   0.010  0.00  0.00     0.002 A 
ATOM      2  C2  <0> d           1.137   2.117   0.003  0.00  0.00     0.012 A 
ATOM      3  C3  <0> d           2.382   1.466  -0.013  0.00  0.00    -0.022 A 
ATOM      4  C4  <0> d           3.597   2.174  -0.021  0.00  0.00     0.037 A 
ATOM      5  C5  <0> d           4.782   1.497  -0.037  0.00  0.00     0.083 A 
ATOM      6  C6  <0> d           4.828   0.107  -0.045  0.00  0.00     0.043 A 
ATOM      7  C7  <0> d           3.652  -0.628  -0.038  0.00  0.00     0.046 A 
ATOM      8  C8  <0> d           2.415   0.056  -0.021  0.00  0.00     0.006 A 
ATOM      9  C9  <0> d           1.211  -0.684  -0.013  0.00  0.00     0.044 A 
ATOM     10  C10 <0> d           0.002  -0.004   0.002  0.00  0.00     0.018 A 
ATOM     11  C11 <0> d           1.285  -2.153  -0.022  0.00  0.00     0.259 A 
ATOM     12  O1  <0> d           0.262  -2.810  -0.016  0.00  0.00    -0.267 OA
ATOM     13  N1  <0> d           2.480  -2.774  -0.038  0.00  0.00    -0.289 N 
ATOM     14  C12 <0> d           3.645  -2.098  -0.047  0.00  0.00     0.259 A 
ATOM     15  O2  <0> d           4.697  -2.708  -0.061  0.00  0.00    -0.267 OA
ATOM     16  H6  <0> d           2.502  -3.744  -0.044  0.00  0.00     0.172 HD
ENDROOT
BRANCH   5  17
ATOM     17  S1  <0> d           6.292   2.406  -0.048  0.00  0.00     0.285 S 
ATOM     18  O3  <0> d           7.276   1.552  -0.613  0.00  0.00    -0.198 OA
ATOM     19  O4  <0> d           5.991   3.685  -0.589  0.00  0.00    -0.198 OA
BRANCH  17  20
ATOM     20  N2  <0> d           6.727   2.650   1.531  0.00  0.00    -0.132 NA
BRANCH  20  21
ATOM     21  C13 <0> d           7.888   3.346   1.830  0.00  0.00     0.204 A 
ATOM     22  S2  <0> d           8.527   3.713   3.343  0.00  0.00    -0.060 SA
ATOM     23  C15 <0> d           9.980   4.593   2.791  0.00  0.00     0.072 A 
ATOM     24  C14 <0> d           9.823   4.522   1.448  0.00  0.00     0.127 A 
ATOM     25  N3  <0> d           8.756   3.885   1.000  0.00  0.00    -0.234 NA
ENDBRANCH  20  21
ENDBRANCH  17  20
ENDBRANCH   5  17
TORSDOF 3
