REMARK  6 active torsions:
REMARK  status: ('A' for Active; 'I' for Inactive)
REMARK       I    between atoms: N1_2  and  C3_4 
REMARK    1  A    between atoms: C3_4  and  C4_6 
REMARK    2  A    between atoms: C4_6  and  N2_7 
REMARK    3  A    between atoms: C6_9  and  N4_12 
REMARK       I    between atoms: N4_12  and  C8_13 
REMARK    4  A    between atoms: C8_13  and  C9_15 
REMARK    5  A    between atoms: C14_20  and  N5_21 
REMARK       I    between atoms: N5_21  and  C16_23 
REMARK    6  A    between atoms: C16_23  and  C17_25 
ROOT
ATOM      1  N4  <0> d          -5.259  -4.624  -1.184  0.00  0.00    -0.320 N 
ATOM      2  C8  <0> d          -6.516  -4.747  -0.715  0.00  0.00     0.258 C 
ATOM      3  O2  <0> d          -6.856  -4.136   0.281  0.00  0.00    -0.267 OA
ATOM      4  H11 <0> d          -4.987  -5.111  -1.978  0.00  0.00     0.169 HD
ENDROOT
BRANCH   2   5
ATOM      5  C9  <0> d          -7.480  -5.622  -1.409  0.00  0.00     0.059 A 
ATOM      6  C14 <0> d          -8.790  -5.753  -0.924  0.00  0.00     0.052 A 
ATOM      7  C13 <0> d          -9.689  -6.576  -1.589  0.00  0.00     0.031 A 
ATOM      8  C12 <0> d          -9.291  -7.269  -2.714  0.00  0.00     0.002 A 
ATOM      9  C11 <0> d          -7.997  -7.146  -3.192  0.00  0.00     0.001 A 
ATOM     10  C10 <0> d          -7.092  -6.329  -2.549  0.00  0.00     0.019 A 
BRANCH   6  11
ATOM     11  N5  <0> d          -9.188  -5.057   0.215  0.00  0.00    -0.321 N 
ATOM     12  C15 <0> d          -9.031  -5.667   1.538  0.00  0.00     0.159 C 
ATOM     13  C16 <0> d          -9.716  -3.822   0.101  0.00  0.00     0.228 C 
ATOM     14  O3  <0> d          -9.845  -3.317  -0.994  0.00  0.00    -0.273 OA
BRANCH  13  15
ATOM     15  C17 <0> d         -10.146  -3.070   1.333  0.00  0.00     0.078 A 
ATOM     16  C19 <0> d         -10.739  -1.673   1.137  0.00  0.00     0.015 A 
ATOM     17  C18 <0> d         -11.646  -2.840   1.533  0.00  0.00     0.015 A 
ENDBRANCH  13  15
ENDBRANCH   6  11
ENDBRANCH   2   5
BRANCH   1  18
ATOM     18  C6  <0> d          -4.340  -3.789  -0.522  0.00  0.00     0.071 A 
ATOM     19  C5  <0> d          -3.049  -3.575  -0.884  0.00  0.00     0.144 A 
ATOM     20  N2  <0> d          -2.510  -2.708   0.011  0.00  0.00    -0.270 N 
ATOM     21  N3  <0> d          -3.499  -2.389   0.951  0.00  0.00    -0.182 NA
ATOM     22  C7  <0> d          -4.594  -3.029   0.630  0.00  0.00     0.169 A 
BRANCH  20  23
ATOM     23  C4  <0> d          -1.135  -2.201   0.001  0.00  0.00     0.253 C 
BRANCH  23  24
ATOM     24  C3  <0> d          -1.156  -0.694   0.009  0.00  0.00     0.238 C 
ATOM     25  N1  <0> d           0.002  -0.004   0.002  0.00  0.00    -0.359 N 
ATOM     26  C1  <0> d          -0.018   1.461   0.010  0.00  0.00     0.152 C 
ATOM     27  C2  <0> d           1.281  -0.719  -0.014  0.00  0.00     0.152 C 
ATOM     28  O1  <0> d          -2.214  -0.102   0.023  0.00  0.00    -0.271 OA
ENDBRANCH  23  24
ENDBRANCH  20  23
ENDBRANCH   1  18
TORSDOF 6
