REMARK  3 active torsions:
REMARK  status: ('A' for Active; 'I' for Inactive)
REMARK    1  A    between atoms: N1_4  and  C6_11 
REMARK    2  A    between atoms: C8_13  and  O4_18 
REMARK    3  A    between atoms: C9_14  and  C10_16 
ROOT
ATOM      1  C1  <0> d           3.676   2.092  -0.021  0.00  0.00     0.056 C 
ATOM      2  C2  <0> d           2.370   1.339  -0.013  0.00  0.00     0.022 A 
ATOM      3  C3  <0> d           2.360  -0.012  -0.021  0.00  0.00     0.110 A 
ATOM      4  N1  <0> d           1.165  -0.680  -0.013  0.00  0.00    -0.282 N 
ATOM      5  C4  <0> d           0.002  -0.004   0.002  0.00  0.00     0.331 A 
ATOM      6  O1  <0> d          -1.048  -0.618   0.009  0.00  0.00    -0.246 OA
ATOM      7  N2  <0> d          -0.016   1.342   0.009  0.00  0.00    -0.275 N 
ATOM      8  H1  <0> d          -0.890   1.828   0.020  0.00  0.00     0.173 HD
ATOM      9  C5  <0> d           1.139   2.037   0.002  0.00  0.00     0.256 A 
ATOM     10  O2  <0> d           1.123   3.255   0.009  0.00  0.00    -0.267 OA
ENDROOT
BRANCH   4  11
ATOM     11  C6  <0> d           1.153  -2.145  -0.020  0.00  0.00     0.235 C 
ATOM     12  O3  <0> d           0.322  -2.622  -1.092  0.00  0.00    -0.356 OA
ATOM     13  C9  <0> d          -0.304  -3.838  -0.630  0.00  0.00     0.181 C 
ATOM     14  C8  <0> d          -0.660  -3.524   0.845  0.00  0.00     0.153 C 
ATOM     15  C7  <0> d           0.550  -2.670   1.297  0.00  0.00     0.088 C 
BRANCH  13  16
ATOM     16  C10 <0> d          -1.568  -4.133  -1.439  0.00  0.00     0.256 C 
ATOM     17  F1  <0> d          -1.213  -4.524  -2.735  0.00  0.00    -0.253 F 
ENDBRANCH  13  16
BRANCH  14  18
ATOM     18  O4  <0> d          -0.753  -4.724   1.615  0.00  0.00    -0.393 OA
ATOM     19  H13 <0> d          -0.886  -4.576   2.561  0.00  0.00     0.210 HD
ENDBRANCH  14  18
ENDBRANCH   4  11
TORSDOF 3
