REMARK  5 active torsions:
REMARK  status: ('A' for Active; 'I' for Inactive)
REMARK    1  A    between atoms: C7_7  and  N1_8 
REMARK       I    between atoms: N1_8  and  C8_9 
REMARK    2  A    between atoms: C8_9  and  C9_11 
REMARK    3  A    between atoms: C9_11  and  C10_12 
REMARK    4  A    between atoms: N3_17  and  C13_18 
REMARK    5  A    between atoms: C16_21  and  O3_24 
ROOT
ATOM      1  C10 <0> d          -0.245  -0.948   6.037  0.00  0.00     0.156 A 
ATOM      2  C11 <0> d          -0.329  -0.235   7.378  0.00  0.00     0.238 A 
ATOM      3  O2  <0> d           0.558   0.487   7.781  0.00  0.00    -0.272 OA
ATOM      4  N2  <0> d          -1.430  -0.453   8.077  0.00  0.00    -0.305 N 
ATOM      5  C12 <0> d          -2.444  -1.273   7.626  0.00  0.00     0.170 A 
ATOM      6  N3  <0> d          -3.575  -1.565   8.222  0.00  0.00    -0.225 NA
ATOM      7  S1  <0> d          -1.852  -1.844   6.038  0.00  0.00    -0.077 SA
ATOM      8  H12 <0> d          -1.529  -0.019   8.939  0.00  0.00     0.171 HD
ENDROOT
BRANCH   1   9
ATOM      9  C9  <0> d          -0.168   0.052   4.882  0.00  0.00     0.128 C 
BRANCH   9  10
ATOM     10  C8  <0> d          -0.056  -0.694   3.578  0.00  0.00     0.223 C 
ATOM     11  N1  <0> d           0.025  -0.015   2.417  0.00  0.00    -0.327 N 
ATOM     12  H9  <0> d           0.078   0.954   2.425  0.00  0.00     0.169 HD
ATOM     13  O1  <0> d          -0.040  -1.907   3.573  0.00  0.00    -0.273 OA
BRANCH  11  14
ATOM     14  C7  <0> d           0.034  -0.706   1.201  0.00  0.00     0.040 A 
ATOM     15  C2  <0> d          -0.584  -0.158   0.084  0.00  0.00    -0.035 A 
ATOM     16  C1  <0> d          -1.264   1.184   0.181  0.00  0.00     0.050 C 
ATOM     17  C3  <0> d          -0.568  -0.840  -1.117  0.00  0.00     0.009 A 
ATOM     18  C4  <0> d           0.055  -2.071  -1.206  0.00  0.00     0.001 A 
ATOM     19  C5  <0> d           0.666  -2.622  -0.095  0.00  0.00     0.002 A 
ATOM     20  C6  <0> d           0.655  -1.945   1.108  0.00  0.00     0.030 A 
ENDBRANCH  11  14
ENDBRANCH   9  10
ENDBRANCH   1   9
BRANCH   6  21
ATOM     21  C13 <0> d          -3.861  -1.029   9.450  0.00  0.00     0.059 A 
ATOM     22  C18 <0> d          -5.127  -0.499   9.705  0.00  0.00     0.034 A 
ATOM     23  C17 <0> d          -5.412   0.034  10.945  0.00  0.00     0.039 A 
ATOM     24  C16 <0> d          -4.439   0.055  11.935  0.00  0.00     0.065 A 
ATOM     25  C15 <0> d          -3.178  -0.466  11.684  0.00  0.00     0.039 A 
ATOM     26  C14 <0> d          -2.885  -1.006  10.448  0.00  0.00     0.034 A 
BRANCH  24  27
ATOM     27  O3  <0> d          -4.723   0.586  13.154  0.00  0.00    -0.361 OA
ATOM     28  H17 <0> d          -4.535   1.532  13.224  0.00  0.00     0.217 HD
ENDBRANCH  24  27
ENDBRANCH   6  21
TORSDOF 5
