REMARK  7 active torsions:
REMARK  status: ('A' for Active; 'I' for Inactive)
REMARK    1  A    between atoms: O1_2  and  C2_3 
REMARK    2  A    between atoms: C5_6  and  C8_9 
REMARK    3  A    between atoms: C8_9  and  C9_10 
REMARK    4  A    between atoms: C8_9  and  O2_20 
REMARK    5  A    between atoms: C9_10  and  N1_11 
REMARK    6  A    between atoms: N1_11  and  C10_12 
REMARK    7  A    between atoms: C10_12  and  C11_13 
ROOT
ATOM      1  C8  <0> d           2.587  -2.550   4.310  0.00  0.00     0.179 C 
ENDROOT
BRANCH   1   2
ATOM      2  C5  <0> d           1.895  -1.869   3.158  0.00  0.00    -0.028 A 
ATOM      3  C4  <0> d           1.835  -0.488   3.107  0.00  0.00     0.012 A 
ATOM      4  C3  <0> d           1.202   0.138   2.051  0.00  0.00     0.037 A 
ATOM      5  C2  <0> d           0.626  -0.618   1.042  0.00  0.00     0.068 A 
ATOM      6  C7  <0> d           0.682  -2.003   1.098  0.00  0.00     0.037 A 
ATOM      7  C6  <0> d           1.322  -2.625   2.152  0.00  0.00     0.012 A 
BRANCH   5   8
ATOM      8  O1  <0> d           0.002  -0.004   0.002  0.00  0.00    -0.356 OA
ATOM      9  C1  <0> d          -0.017   1.425   0.010  0.00  0.00     0.210 C 
ENDBRANCH   5   8
ENDBRANCH   1   2
BRANCH   1  10
ATOM     10  C9  <0> d           4.033  -2.866   3.923  0.00  0.00     0.306 C 
BRANCH  10  11
ATOM     11  N1  <0> d           4.707  -3.530   5.046  0.00  0.00     0.090 N 
ATOM     12  H11 <0> d           4.657  -2.967   5.882  0.00  0.00     0.316 HD
BRANCH  11  13
ATOM     13  C10 <0> d           6.101  -3.849   4.710  0.00  0.00     0.308 C 
BRANCH  13  14
ATOM     14  C11 <0> d           6.758  -4.527   5.884  0.00  0.00    -0.029 A 
ATOM     15  C16 <0> d           6.714  -5.904   6.000  0.00  0.00     0.028 A 
ATOM     16  C15 <0> d           7.323  -6.527   7.075  0.00  0.00     0.011 A 
ATOM     17  C14 <0> d           7.966  -5.771   8.039  0.00  0.00     0.019 A 
ATOM     18 Br1  <0> d           7.270  -8.411   7.230  0.00  0.00    -0.051 Br
ATOM     19  C13 <0> d           8.004  -4.394   7.925  0.00  0.00     0.002 A 
ATOM     20  C12 <0> d           7.401  -3.772   6.848  0.00  0.00     0.009 A 
ENDBRANCH  13  14
ENDBRANCH  11  13
ENDBRANCH  10  11
ENDBRANCH   1  10
BRANCH   1  21
ATOM     21  O2  <0> d           1.902  -3.764   4.626  0.00  0.00    -0.389 OA
ATOM     22  H18 <0> d           1.870  -4.399   3.897  0.00  0.00     0.210 HD
ENDBRANCH   1  21
TORSDOF 7
