REMARK  5 active torsions:
REMARK  status: ('A' for Active; 'I' for Inactive)
REMARK    1  A    between atoms: C2_2  and  N1_3 
REMARK    2  A    between atoms: C5_6  and  C8_9 
REMARK    3  A    between atoms: C8_9  and  N2_10 
REMARK       I    between atoms: N2_10  and  C9_11 
REMARK    4  A    between atoms: C9_11  and  C10_13 
REMARK    5  A    between atoms: C12_17  and  N5_18 
ROOT
ATOM      1  N2  <0> d          -5.066  -4.019  -0.900  0.00  0.00    -0.356 N 
ATOM      2  C9  <0> d          -6.253  -4.650  -0.798  0.00  0.00     0.257 C 
ATOM      3  O1  <0> d          -7.281  -4.003  -0.723  0.00  0.00    -0.267 OA
ATOM      4  H17 <0> d          -4.247  -4.535  -0.959  0.00  0.00     0.162 HD
ENDROOT
BRANCH   2   5
ATOM      5  C10 <0> d          -6.306  -6.119  -0.777  0.00  0.00     0.097 A 
ATOM      6  C12 <0> d          -7.449  -6.904  -0.677  0.00  0.00     0.148 A 
ATOM      7  N4  <0> d          -7.051  -8.191  -0.698  0.00  0.00    -0.257 N 
ATOM      8  N3  <0> d          -5.656  -8.222  -0.801  0.00  0.00    -0.182 NA
ATOM      9  C19 <0> d          -7.930  -9.360  -0.619  0.00  0.00     0.182 C 
ATOM     10  C11 <0> d          -5.203  -7.000  -0.849  0.00  0.00     0.160 A 
BRANCH   6  11
ATOM     11  N5  <0> d          -8.758  -6.446  -0.577  0.00  0.00    -0.304 N 
ATOM     12  C16 <0> d          -9.420  -6.172   0.587  0.00  0.00     0.014 A 
ATOM     13  C15 <0> d         -10.662  -5.750   0.275  0.00  0.00     0.027 A 
ATOM     14  C17 <0> d          -8.858  -6.313   1.978  0.00  0.00     0.068 C 
ATOM     15  C14 <0> d         -10.777  -5.772  -1.130  0.00  0.00     0.027 A 
ATOM     16  C13 <0> d          -9.599  -6.202  -1.626  0.00  0.00     0.014 A 
ATOM     17  C18 <0> d          -9.268  -6.381  -3.086  0.00  0.00     0.068 C 
ENDBRANCH   6  11
ENDBRANCH   2   5
BRANCH   1  18
ATOM     18  C8  <0> d          -5.014  -2.555  -0.920  0.00  0.00     0.127 C 
BRANCH  18  19
ATOM     19  C5  <0> d          -3.559  -2.099  -1.042  0.00  0.00     0.006 C 
ATOM     20  C4  <0> d          -3.511  -0.575  -1.189  0.00  0.00     0.034 C 
ATOM     21  C3  <0> d          -2.051  -0.118  -1.230  0.00  0.00     0.235 C 
ATOM     22  N1  <0> d          -1.376  -0.512   0.012  0.00  0.00    -0.071 N 
ATOM     23  C7  <0> d          -1.355  -1.976   0.125  0.00  0.00     0.235 C 
ATOM     24  H30 <0> d          -1.871  -0.123   0.800  0.00  0.00     0.279 HD
ATOM     25  C6  <0> d          -2.788  -2.505   0.218  0.00  0.00     0.034 C 
BRANCH  22  26
ATOM     26  C2  <0> d           0.002  -0.004   0.002  0.00  0.00     0.230 C 
ATOM     27  C1  <0> d          -0.019   1.526   0.010  0.00  0.00     0.034 C 
ENDBRANCH  22  26
ENDBRANCH  18  19
ENDBRANCH   1  18
TORSDOF 5
