REMARK  3 active torsions:
REMARK  status: ('A' for Active; 'I' for Inactive)
REMARK    1  A    between atoms: C5_5  and  N1_8 
REMARK    2  A    between atoms: N1_8  and  C8_9 
REMARK    3  A    between atoms: C8_9  and  C12_16 
REMARK       I    between atoms: C12_16  and  N2_18 
ROOT
ATOM      1  C8  <0> d           2.323  -2.358  -2.423  0.00  0.00     0.219 C 
ATOM      2  C9  <0> d           1.205  -3.170  -1.770  0.00  0.00     0.065 C 
ATOM      3  C10 <0> d           1.436  -4.689  -2.003  0.00  0.00     0.143 C 
ATOM      4  S1  <0> d           2.042  -4.645  -3.747  0.00  0.00     0.147 S 
ATOM      5  O1  <0> d           0.929  -4.546  -4.625  0.00  0.00    -0.228 OA
ATOM      6  O2  <0> d           2.997  -5.681  -3.936  0.00  0.00    -0.228 OA
ATOM      7  C11 <0> d           2.910  -3.023  -3.683  0.00  0.00     0.189 C 
ENDROOT
BRANCH   1   8
ATOM      8  N1  <0> d           1.793  -1.038  -2.790  0.00  0.00    -0.052 N 
ATOM      9  H14 <0> d           1.146  -1.137  -3.558  0.00  0.00     0.279 HD
ATOM     10  H23 <0> d           2.554  -0.436  -3.067  0.00  0.00     0.279 HD
BRANCH   8  11
ATOM     11  C5  <0> d           1.099  -0.451  -1.637  0.00  0.00     0.187 C 
ATOM     12  C4  <0> d          -0.241  -1.113  -1.463  0.00  0.00     0.033 C 
ATOM     13  C3  <0> d          -1.314  -0.142  -0.933  0.00  0.00     0.002 C 
ATOM     14  C2  <0> d          -0.784   0.785   0.178  0.00  0.00     0.000 C 
ATOM     15  C1  <0> d           0.099   0.063   1.158  0.00  0.00     0.000 C 
ATOM     16  C7  <0> d           1.566   0.232   0.714  0.00  0.00     0.002 C 
ATOM     17  C6  <0> d           1.930  -0.683  -0.358  0.00  0.00     0.033 C 
ENDBRANCH   8  11
ENDBRANCH   1   8
BRANCH   1  18
ATOM     18  C12 <0> d           3.429  -2.170  -1.416  0.00  0.00     0.253 C 
ATOM     19  O3  <0> d           3.518  -2.919  -0.466  0.00  0.00    -0.271 OA
ATOM     20  N2  <0> d           4.318  -1.169  -1.571  0.00  0.00    -0.368 N 
ATOM     21  H21 <0> d           4.291  -0.616  -2.367  0.00  0.00     0.159 HD
ATOM     22  H22 <0> d           4.985  -1.002  -0.887  0.00  0.00     0.159 HD
ENDBRANCH   1  18
TORSDOF 3
