REMARK  5 active torsions:
REMARK  status: ('A' for Active; 'I' for Inactive)
REMARK    1  A    between atoms: C5_5  and  N1_9 
REMARK    2  A    between atoms: N1_9  and  C9_10 
REMARK    3  A    between atoms: C9_10  and  C10_11 
REMARK    4  A    between atoms: N5_15  and  C11_16 
REMARK    5  A    between atoms: C14_19  and  S1_22 
ROOT
ATOM      1  C10 <0> d          -2.459  -5.674   1.082  0.00  0.00     0.171 A 
ATOM      2  N2  <0> d          -3.740  -5.669   1.344  0.00  0.00    -0.112 NA
ATOM      3  N3  <0> d          -4.259  -6.816   1.089  0.00  0.00    -0.023 NA
ATOM      4  N4  <0> d          -3.356  -7.625   0.652  0.00  0.00    -0.039 NA
ATOM      5  N5  <0> d          -2.148  -6.907   0.626  0.00  0.00    -0.197 N 
ENDROOT
BRANCH   1   6
ATOM      6  C9  <0> d          -1.508  -4.517   1.252  0.00  0.00     0.202 C 
BRANCH   6   7
ATOM      7  N1  <0> d          -1.468  -3.733   0.015  0.00  0.00    -0.382 N 
ATOM      8  H9  <0> d          -2.099  -3.918  -0.698  0.00  0.00     0.160 HD
BRANCH   7   9
ATOM      9  C5  <0> d          -0.521  -2.717  -0.138  0.00  0.00     0.040 A 
ATOM     10  C4  <0> d           0.001  -2.079   0.980  0.00  0.00    -0.035 A 
ATOM     11  C3  <0> d           0.938  -1.076   0.826  0.00  0.00     0.015 A 
ATOM     12  C18 <0> d          -0.454  -2.480   2.360  0.00  0.00     0.050 C 
ATOM     13  C2  <0> d           1.356  -0.707  -0.440  0.00  0.00    -0.061 A 
ATOM     14  C1  <0> d           2.378   0.388  -0.605  0.00  0.00     0.048 C 
ATOM     15  C7  <0> d           0.834  -1.337  -1.555  0.00  0.00     0.015 A 
ATOM     16  C6  <0> d          -0.099  -2.345  -1.407  0.00  0.00    -0.035 A 
ATOM     17  C8  <0> d          -0.662  -3.035  -2.623  0.00  0.00     0.050 C 
ENDBRANCH   7   9
ENDBRANCH   6   7
ENDBRANCH   1   6
BRANCH   5  18
ATOM     18  C11 <0> d          -0.889  -7.371   0.218  0.00  0.00     0.062 A 
ATOM     19  C16 <0> d          -0.521  -8.687   0.460  0.00  0.00     0.033 A 
ATOM     20  C15 <0> d           0.717  -9.143   0.051  0.00  0.00     0.026 A 
ATOM     21  C14 <0> d           1.594  -8.287  -0.589  0.00  0.00     0.059 A 
ATOM     22  C13 <0> d           1.232  -6.973  -0.826  0.00  0.00     0.026 A 
ATOM     23  C12 <0> d          -0.007  -6.513  -0.425  0.00  0.00     0.033 A 
BRANCH  21  24
ATOM     24  S1  <0> d           3.175  -8.870  -1.103  0.00  0.00     0.171 S 
ATOM     25  O1  <0> d           3.003 -10.268  -1.289  0.00  0.00    -0.223 OA
ATOM     26  O2  <0> d           3.533  -8.033  -2.194  0.00  0.00    -0.223 OA
ATOM     27  C17 <0> d           4.269  -8.558   0.310  0.00  0.00     0.167 C 
ENDBRANCH  21  24
ENDBRANCH   5  18
TORSDOF 5
