REMARK  5 active torsions:
REMARK  status: ('A' for Active; 'I' for Inactive)
REMARK    1  A    between atoms: C6_6  and  C8_9 
REMARK       I    between atoms: C8_9  and  N1_11 
REMARK    2  A    between atoms: C10_13  and  C17_21 
REMARK       I    between atoms: C17_21  and  N3_23 
REMARK    3  A    between atoms: N3_23  and  C18_24 
REMARK    4  A    between atoms: C18_24  and  C19_25 
REMARK    5  A    between atoms: C19_25  and  S1_26 
ROOT
ATOM      1  C8  <0> d           0.088  -2.900   2.609  0.00  0.00     0.258 C 
ATOM      2  O1  <0> d           1.132  -3.257   3.121  0.00  0.00    -0.267 OA
ATOM      3  N1  <0> d          -1.089  -3.273   3.149  0.00  0.00    -0.346 N 
ATOM      4  C9  <0> d          -2.452  -2.946   2.668  0.00  0.00     0.141 C 
ATOM      5  C10 <0> d          -3.264  -4.243   2.884  0.00  0.00     0.106 C 
ATOM      6  C11 <0> d          -2.512  -4.996   3.994  0.00  0.00    -0.007 C 
ATOM      7  C12 <0> d          -1.313  -4.107   4.354  0.00  0.00     0.136 C 
ATOM      8  C13 <0> d          -2.024  -6.347   3.480  0.00  0.00     0.039 C 
ATOM      9  C14 <0> d          -1.330  -7.101   4.617  0.00  0.00     0.233 C 
ATOM     10  N2  <0> d          -2.271  -7.289   5.728  0.00  0.00    -0.075 N 
ATOM     11  C15 <0> d          -2.664  -5.986   6.277  0.00  0.00     0.233 C 
ATOM     12  C16 <0> d          -3.415  -5.184   5.210  0.00  0.00     0.039 C 
ATOM     13  H15 <0> d          -3.091  -7.772   5.394  0.00  0.00     0.277 HD
ATOM     14  H26 <0> d          -1.831  -7.838   6.451  0.00  0.00     0.277 HD
ENDROOT
BRANCH   1  15
ATOM     15  C6  <0> d           0.111  -2.060   1.395  0.00  0.00     0.092 A 
ATOM     16  C5  <0> d           0.120  -2.653   0.130  0.00  0.00     0.052 A 
ATOM     17  C4  <0> d           0.141  -1.860  -1.000  0.00  0.00     0.026 A 
ATOM     18 Cl1  <0> d           0.105  -4.383  -0.020  0.00  0.00    -0.083 Cl
ATOM     19  C3  <0> d           0.153  -0.482  -0.883  0.00  0.00     0.011 A 
ATOM     20  C2  <0> d           0.143   0.114   0.365  0.00  0.00    -0.022 A 
ATOM     21  C1  <0> d           0.156   1.617   0.480  0.00  0.00     0.051 C 
ATOM     22  C7  <0> d           0.128  -0.665   1.506  0.00  0.00     0.139 A 
ATOM     23  F1  <0> d           0.124  -0.082   2.725  0.00  0.00    -0.204 F 
ENDBRANCH   1  15
BRANCH   5  24
ATOM     24  C17 <0> d          -4.667  -3.917   3.325  0.00  0.00     0.224 C 
ATOM     25  O2  <0> d          -4.881  -2.917   3.977  0.00  0.00    -0.273 OA
ATOM     26  N3  <0> d          -5.685  -4.737   2.994  0.00  0.00    -0.360 N 
ATOM     27  H20 <0> d          -5.514  -5.536   2.473  0.00  0.00     0.162 HD
BRANCH  26  28
ATOM     28  C18 <0> d          -7.049  -4.420   3.423  0.00  0.00     0.132 C 
BRANCH  28  29
ATOM     29  C19 <0> d          -8.006  -5.503   2.920  0.00  0.00     0.090 C 
BRANCH  29  30
ATOM     30  S1  <0> d          -9.696  -5.110   3.451  0.00  0.00    -0.181 SA
ATOM     31  H25 <0> d         -10.435  -6.119   2.957  0.00  0.00     0.101 HD
ENDBRANCH  29  30
ENDBRANCH  28  29
ENDBRANCH  26  28
ENDBRANCH   5  24
TORSDOF 5
