REMARK  6 active torsions:
REMARK  status: ('A' for Active; 'I' for Inactive)
REMARK    1  A    between atoms: N1_3  and  C5_9 
REMARK    2  A    between atoms: C4_7  and  N3_8 
REMARK    3  A    between atoms: C6_10  and  O4_17 
REMARK    4  A    between atoms: C7_11  and  O3_16 
REMARK    5  A    between atoms: C8_12  and  C9_14 
REMARK    6  A    between atoms: C9_14  and  O2_15 
ROOT
ATOM      1  C5  <0> d           1.794   3.768   1.214  0.00  0.00     0.187 C 
ATOM      2  C6  <0> d           0.933   3.553  -0.051  0.00  0.00     0.181 C 
ATOM      3  C7  <0> d           0.937   2.120  -0.561  0.00  0.00     0.165 C 
ATOM      4  C8  <0> d           1.800   1.157   0.283  0.00  0.00     0.104 C 
ATOM      5  S1  <0> d           1.869   2.054   1.895  0.00  0.00    -0.131 SA
ENDROOT
BRANCH   1   6
ATOM      6  N1  <0> d           3.131   4.255   0.865  0.00  0.00    -0.291 N 
ATOM      7  C2  <0> d           4.084   3.376   0.446  0.00  0.00     0.101 A 
ATOM      8  C1  <0> d           5.316   3.838   0.126  0.00  0.00     0.067 A 
ATOM      9  C4  <0> d           5.577   5.220   0.236  0.00  0.00     0.128 A 
ATOM     10  N2  <0> d           4.618   6.037   0.649  0.00  0.00    -0.177 NA
ATOM     11  C3  <0> d           3.409   5.569   0.954  0.00  0.00     0.351 A 
ATOM     12  O1  <0> d           2.542   6.342   1.327  0.00  0.00    -0.244 OA
BRANCH   9  13
ATOM     13  N3  <0> d           6.820   5.716  -0.083  0.00  0.00    -0.384 N 
ATOM     14  H7  <0> d           7.021   6.794   0.004  0.00  0.00     0.157 HD
ATOM     15  H8  <0> d           7.613   5.035  -0.425  0.00  0.00     0.157 HD
ENDBRANCH   9  13
ENDBRANCH   1   6
BRANCH   2  16
ATOM     16  O4  <0> d           1.423   4.407  -1.086  0.00  0.00    -0.390 OA
ATOM     17  H13 <0> d           0.941   4.404  -2.075  0.00  0.00     0.210 HD
ENDBRANCH   2  16
BRANCH   4  18
ATOM     18  C9  <0> d           1.116  -0.203   0.440  0.00  0.00     0.181 C 
BRANCH  18  19
ATOM     19  O2  <0> d           0.806  -0.731  -0.852  0.00  0.00    -0.400 OA
ATOM     20  H11 <0> d           0.308  -1.707  -0.941  0.00  0.00     0.209 HD
ENDBRANCH  18  19
ENDBRANCH   4  18
BRANCH   3  21
ATOM     21  O3  <0> d          -0.408   1.636  -0.572  0.00  0.00    -0.392 OA
ATOM     22  H12 <0> d          -0.621   0.612  -0.912  0.00  0.00     0.210 HD
ENDBRANCH   3  21
TORSDOF 6
