REMARK  5 active torsions:
REMARK  status: ('A' for Active; 'I' for Inactive)
REMARK    1  A    between atoms: C3_3  and  S1_8 
REMARK    2  A    between atoms: S1_8  and  N2_11 
REMARK    3  A    between atoms: N2_11  and  C6_12 
REMARK    4  A    between atoms: N3_15  and  C10_17 
REMARK    5  A    between atoms: C10_17  and  C12_19 
ROOT
ATOM      1  C6  <0> d           2.444  -1.263  -3.371  0.00  0.00     0.120 C 
ATOM      2  C7  <0> d           3.302  -1.389  -2.091  0.00  0.00     0.055 C 
ATOM      3  C8  <0> d           4.677  -1.846  -2.639  0.00  0.00     0.238 C 
ATOM      4  N3  <0> d           4.805  -1.089  -3.910  0.00  0.00    -0.061 N 
ATOM      5  C9  <0> d           3.455  -1.092  -4.520  0.00  0.00     0.261 C 
ATOM      6  H24 <0> d           5.101  -0.142  -3.723  0.00  0.00     0.280 HD
ENDROOT
BRANCH   1   7
ATOM      7  N2  <0> d           1.570  -0.091  -3.285  0.00  0.00    -0.309 N 
ATOM      8  H9  <0> d           1.915   0.789  -3.504  0.00  0.00     0.172 HD
BRANCH   7   9
ATOM      9  S1  <0> d          -0.008  -0.267  -2.813  0.00  0.00     0.263 S 
ATOM     10  O2  <0> d          -0.547  -1.328  -3.589  0.00  0.00    -0.200 OA
ATOM     11  O3  <0> d          -0.577   1.035  -2.802  0.00  0.00    -0.200 OA
BRANCH   9  12
ATOM     12  C3  <0> d           0.008  -0.824  -1.141  0.00  0.00     0.137 A 
ATOM     13  C2  <0> d           0.002  -0.004   0.002  0.00  0.00     0.084 A 
ATOM     14  C1  <0> d          -0.018   1.503   0.010  0.00  0.00     0.074 C 
ATOM     15  N1  <0> d           0.023  -0.775   1.052  0.00  0.00    -0.132 NA
ATOM     16  O1  <0> d           0.034  -2.119   0.606  0.00  0.00    -0.216 OA
ATOM     17  C4  <0> d           0.027  -2.108  -0.735  0.00  0.00     0.100 A 
ATOM     18  C5  <0> d           0.039  -3.320  -1.631  0.00  0.00     0.081 C 
ENDBRANCH   9  12
ENDBRANCH   7   9
ENDBRANCH   1   7
BRANCH   4  19
ATOM     19  C10 <0> d           5.764  -1.754  -4.802  0.00  0.00     0.217 C 
ATOM     20  C11 <0> d           5.857  -0.982  -6.119  0.00  0.00     0.045 C 
BRANCH  19  21
ATOM     21  C12 <0> d           7.120  -1.791  -4.144  0.00  0.00    -0.028 A 
ATOM     22  C17 <0> d           7.911  -2.919  -4.255  0.00  0.00     0.009 A 
ATOM     23  C16 <0> d           9.156  -2.951  -3.655  0.00  0.00     0.001 A 
ATOM     24  C15 <0> d           9.606  -1.859  -2.937  0.00  0.00     0.000 A 
ATOM     25  C14 <0> d           8.812  -0.733  -2.822  0.00  0.00     0.001 A 
ATOM     26  C13 <0> d           7.569  -0.699  -3.426  0.00  0.00     0.009 A 
ENDBRANCH  19  21
ENDBRANCH   4  19
TORSDOF 5
