REMARK  2 active torsions:
REMARK  status: ('A' for Active; 'I' for Inactive)
REMARK    1  A    between atoms: C4_6  and  N3_9 
REMARK    2  A    between atoms: N3_9  and  C6_10 
ROOT
ATOM      1  C1  <0> d          -0.018   1.461   0.010  0.00  0.00     0.183 C 
ATOM      2  N1  <0> d           0.002  -0.004   0.002  0.00  0.00    -0.238 N 
ATOM      3  C2  <0> d          -1.159  -0.688   0.004  0.00  0.00     0.287 A 
ATOM      4  O1  <0> d          -2.224  -0.090   0.012  0.00  0.00    -0.265 OA
ATOM      5  C3  <0> d          -1.137  -2.090  -0.004  0.00  0.00     0.131 A 
ATOM      6  C4  <0> d           0.083  -2.742  -0.014  0.00  0.00     0.075 A 
ATOM      7  C5  <0> d           1.274  -1.984  -0.016  0.00  0.00     0.170 A 
ATOM      8  N2  <0> d           1.226  -0.681  -0.013  0.00  0.00    -0.180 NA
ATOM      9 Cl1  <0> d          -2.618  -2.995  -0.002  0.00  0.00    -0.076 Cl
ENDROOT
BRANCH   6  10
ATOM     10  N3  <0> d           0.137  -4.126  -0.022  0.00  0.00    -0.382 N 
ATOM     11  H6  <0> d          -0.684  -4.643  -0.021  0.00  0.00     0.160 HD
BRANCH  10  12
ATOM     12  C6  <0> d           1.433  -4.809  -0.032  0.00  0.00     0.096 C 
ATOM     13  C9  <0> d           1.271  -6.207  -0.677  0.00  0.00     0.165 C 
ATOM     14  S1  <0> d           2.527  -7.211   0.214  0.00  0.00     0.146 S 
ATOM     15  C8  <0> d           3.144  -5.944   1.401  0.00  0.00     0.142 C 
ATOM     16  O2  <0> d           3.573  -7.549  -0.686  0.00  0.00    -0.228 OA
ATOM     17  O3  <0> d           1.868  -8.240   0.938  0.00  0.00    -0.228 OA
ATOM     18  C7  <0> d           1.945  -4.954   1.410  0.00  0.00     0.041 C 
ENDBRANCH  10  12
ENDBRANCH   6  10
TORSDOF 2
