REMARK  4 active torsions:
REMARK  status: ('A' for Active; 'I' for Inactive)
REMARK    1  A    between atoms: C3_3  and  C10_12 
REMARK    2  A    between atoms: N2_21  and  C18_22 
REMARK    3  A    between atoms: C18_22  and  C19_23 
REMARK       I    between atoms: C19_23  and  N3_25 
REMARK    4  A    between atoms: N4_28  and  C24_31 
ROOT
ATOM      1  C10 <0> d           6.382  -1.180   2.320  0.00  0.00     0.158 A 
ATOM      2  C11 <0> d           7.458  -2.102   1.804  0.00  0.00    -0.015 A 
ATOM      3  C12 <0> d           8.396  -2.896   2.423  0.00  0.00     0.011 A 
ATOM      4  C13 <0> d           9.278  -3.645   1.663  0.00  0.00     0.001 A 
ATOM      5  C14 <0> d           9.219  -3.599   0.281  0.00  0.00     0.001 A 
ATOM      6  C15 <0> d           8.283  -2.806  -0.349  0.00  0.00     0.017 A 
ATOM      7  C16 <0> d           7.390  -2.047   0.410  0.00  0.00     0.040 A 
ATOM      8  C17 <0> d           6.302  -1.125   0.036  0.00  0.00     0.255 A 
ATOM      9  O1  <0> d           5.981  -0.855  -1.105  0.00  0.00    -0.267 OA
ATOM     10  N2  <0> d           5.715  -0.624   1.137  0.00  0.00    -0.326 N 
ENDROOT
BRANCH   1  11
ATOM     11  C3  <0> d           6.994  -0.072   3.138  0.00  0.00     0.004 A 
ATOM     12  C2  <0> d           7.716   0.960   2.671  0.00  0.00     0.015 A 
ATOM     13  C1  <0> d           8.049   1.196   1.221  0.00  0.00     0.069 C 
ATOM     14  N1  <0> d           8.102   1.765   3.708  0.00  0.00    -0.359 N 
ATOM     15  C9  <0> d           7.634   1.254   4.898  0.00  0.00     0.043 A 
ATOM     16  H1  <0> d           8.631   2.573   3.619  0.00  0.00     0.166 HD
ATOM     17  C4  <0> d           6.919   0.081   4.593  0.00  0.00     0.001 A 
ATOM     18  C8  <0> d           7.739   1.662   6.223  0.00  0.00     0.030 A 
ATOM     19  C5  <0> d           6.325  -0.659   5.617  0.00  0.00     0.014 A 
ATOM     20  C6  <0> d           6.441  -0.239   6.912  0.00  0.00     0.001 A 
ATOM     21  C7  <0> d           7.145   0.917   7.218  0.00  0.00     0.002 A 
ENDBRANCH   1  11
BRANCH  10  22
ATOM     22  C18 <0> d           4.599   0.324   1.153  0.00  0.00     0.230 C 
BRANCH  22  23
ATOM     23  C19 <0> d           3.296  -0.434   1.162  0.00  0.00     0.237 C 
ATOM     24  O2  <0> d           3.300  -1.646   1.155  0.00  0.00    -0.272 OA
ATOM     25  N3  <0> d           2.127   0.236   1.177  0.00  0.00    -0.348 N 
ATOM     26  C23 <0> d           2.107   1.706   1.185  0.00  0.00     0.145 C 
ATOM     27  C20 <0> d           0.849  -0.489   1.185  0.00  0.00     0.145 C 
ATOM     28  C22 <0> d           1.260   2.191   0.002  0.00  0.00     0.145 C 
ATOM     29  N4  <0> d          -0.018   1.465   0.010  0.00  0.00    -0.356 N 
ATOM     30  C21 <0> d           0.002  -0.004   0.002  0.00  0.00     0.145 C 
BRANCH  29  31
ATOM     31  C24 <0> d          -1.187   2.135   0.019  0.00  0.00     0.350 C 
ATOM     32  O3  <0> d          -2.236   1.526   0.021  0.00  0.00    -0.284 OA
ENDBRANCH  29  31
ENDBRANCH  22  23
ENDBRANCH  10  22
TORSDOF 4
