REMARK  3 active torsions:
REMARK  status: ('A' for Active; 'I' for Inactive)
REMARK    1  A    between atoms: C3_3  and  C17_19 
REMARK    2  A    between atoms: N1_10  and  C10_11 
REMARK    3  A    between atoms: C10_11  and  C11_12 
ROOT
ATOM      1  C1  <0> d          -0.814   7.625   2.007  0.00  0.00     0.069 C 
ATOM      2  C2  <0> d          -1.674   7.056   0.908  0.00  0.00     0.019 A 
ATOM      3  C3  <0> d          -1.301   6.038   0.047  0.00  0.00    -0.000 A 
ATOM      4  C4  <0> d          -2.455   5.814  -0.847  0.00  0.00     0.003 A 
ATOM      5  C5  <0> d          -2.705   4.941  -1.902  0.00  0.00     0.014 A 
ATOM      6  C6  <0> d          -3.920   4.985  -2.551  0.00  0.00     0.001 A 
ATOM      7  C7  <0> d          -4.891   5.894  -2.155  0.00  0.00     0.002 A 
ATOM      8  C8  <0> d          -4.656   6.763  -1.112  0.00  0.00     0.030 A 
ATOM      9  C9  <0> d          -3.435   6.734  -0.446  0.00  0.00     0.046 A 
ATOM     10  N1  <0> d          -2.921   7.462   0.609  0.00  0.00    -0.345 N 
ENDROOT
BRANCH   3  11
ATOM     11  C17 <0> d          -0.070   5.350   0.032  0.00  0.00     0.037 C 
ATOM     12  C18 <0> d          -0.052   3.961   0.024  0.00  0.00     0.101 A 
ATOM     13  C21 <0> d          -1.298   3.175   0.032  0.00  0.00     0.265 A 
ATOM     14  C19 <0> d           1.215   3.210   0.008  0.00  0.00     0.265 A 
ATOM     15  N3  <0> d          -1.204   1.830   0.018  0.00  0.00    -0.275 N 
ATOM     16  O3  <0> d          -2.383   3.725   0.045  0.00  0.00    -0.267 OA
ATOM     17  C20 <0> d          -0.014   1.211   0.009  0.00  0.00     0.329 A 
ATOM     18  H16 <0> d          -2.014   1.298   0.019  0.00  0.00     0.173 HD
ATOM     19  N2  <0> d           1.157   1.862   0.001  0.00  0.00    -0.275 N 
ATOM     20  O2  <0> d           0.002  -0.004   0.002  0.00  0.00    -0.246 OA
ATOM     21  H15 <0> d           1.983   1.352  -0.009  0.00  0.00     0.173 HD
ATOM     22  O1  <0> d           2.285   3.789   0.001  0.00  0.00    -0.267 OA
ENDBRANCH   3  11
BRANCH  10  23
ATOM     23  C10 <0> d          -3.639   8.529   1.312  0.00  0.00     0.167 C 
BRANCH  23  24
ATOM     24  C11 <0> d          -4.408   7.940   2.467  0.00  0.00    -0.040 A 
ATOM     25  C16 <0> d          -3.815   7.836   3.711  0.00  0.00     0.012 A 
ATOM     26  C15 <0> d          -4.519   7.297   4.771  0.00  0.00     0.043 A 
ATOM     27  C14 <0> d          -5.820   6.861   4.586  0.00  0.00     0.116 A 
ATOM     28  C13 <0> d          -6.414   6.965   3.339  0.00  0.00     0.043 A 
ATOM     29  F1  <0> d          -6.510   6.333   5.621  0.00  0.00    -0.206 F 
ATOM     30  C12 <0> d          -5.709   7.510   2.282  0.00  0.00     0.012 A 
ENDBRANCH  23  24
ENDBRANCH  10  23
TORSDOF 3
