REMARK  2 active torsions:
REMARK  status: ('A' for Active; 'I' for Inactive)
REMARK    1  A    between atoms: C3_5  and  C12_18 
REMARK    2  A    between atoms: N2_7  and  C6_10 
ROOT
ATOM      1  C1  <0> d           1.051   1.428  -0.966  0.00  0.00     0.164 C 
ATOM      2  N1  <0> d          -0.209   1.736  -1.648  0.00  0.00    -0.270 N 
ATOM      3  C2  <0> d          -0.835   2.903  -1.400  0.00  0.00     0.264 A 
ATOM      4  O1  <0> d          -0.357   3.701  -0.613  0.00  0.00    -0.267 OA
ATOM      5  C3  <0> d          -2.044   3.195  -2.058  0.00  0.00     0.101 A 
ATOM      6  C4  <0> d          -2.558   2.286  -2.934  0.00  0.00     0.204 A 
ATOM      7  N2  <0> d          -1.887   1.109  -3.157  0.00  0.00    -0.240 N 
ATOM      8  C5  <0> d          -0.729   0.853  -2.521  0.00  0.00     0.338 A 
ATOM      9  O2  <0> d          -0.146  -0.193  -2.734  0.00  0.00    -0.246 OA
ATOM     10  O3  <0> d          -3.716   2.541  -3.578  0.00  0.00    -0.171 OA
ENDROOT
BRANCH   5  11
ATOM     11  C12 <0> d          -2.762   4.494  -1.796  0.00  0.00     0.280 C 
ATOM     12  N4  <0> d          -1.847   5.620  -2.035  0.00  0.00    -0.061 N 
ATOM     13  C22 <0> d          -2.474   6.880  -1.613  0.00  0.00     0.240 C 
ATOM     14  C23 <0> d          -1.523   5.689  -3.466  0.00  0.00     0.271 C 
ATOM     15  H21 <0> d          -0.998   5.479  -1.509  0.00  0.00     0.280 HD
ATOM     16  C21 <0> d          -2.527   6.943  -0.080  0.00  0.00     0.069 C 
ATOM     17  C14 <0> d          -3.111   5.643   0.415  0.00  0.00    -0.019 A 
ATOM     18  C13 <0> d          -3.221   4.538  -0.358  0.00  0.00     0.053 A 
ATOM     19  C15 <0> d          -3.646   5.311   1.716  0.00  0.00    -0.001 A 
ATOM     20  N3  <0> d          -3.792   3.525   0.363  0.00  0.00    -0.356 N 
ATOM     21  C20 <0> d          -4.064   3.957   1.630  0.00  0.00     0.043 A 
ATOM     22  H2  <0> d          -3.976   2.635   0.025  0.00  0.00     0.166 HD
ATOM     23  C19 <0> d          -4.633   3.319   2.730  0.00  0.00     0.030 A 
ATOM     24  C18 <0> d          -4.765   4.065   3.889  0.00  0.00     0.002 A 
ATOM     25  C17 <0> d          -4.355   5.386   3.968  0.00  0.00     0.001 A 
ATOM     26  C16 <0> d          -3.792   6.040   2.900  0.00  0.00     0.014 A 
ENDBRANCH   5  11
BRANCH   7  27
ATOM     27  C6  <0> d          -2.409   0.169  -4.057  0.00  0.00     0.046 A 
ATOM     28  C11 <0> d          -2.060   0.224  -5.400  0.00  0.00     0.032 A 
ATOM     29  C10 <0> d          -2.572  -0.706  -6.283  0.00  0.00     0.026 A 
ATOM     30  C9  <0> d          -3.440  -1.685  -5.833  0.00  0.00     0.034 A 
ATOM     31  C8  <0> d          -3.792  -1.739  -4.496  0.00  0.00     0.026 A 
ATOM     32 Cl1  <0> d          -4.087  -2.848  -6.948  0.00  0.00    -0.084 Cl
ATOM     33  C7  <0> d          -3.279  -0.815  -3.607  0.00  0.00     0.032 A 
ENDBRANCH   7  27
TORSDOF 2
