REMARK  3 active torsions:
REMARK  status: ('A' for Active; 'I' for Inactive)
REMARK    1  A    between atoms: C3_3  and  C5_6 
REMARK    2  A    between atoms: C5_6  and  C6_7 
REMARK    3  A    between atoms: C5_6  and  N1_14 
ROOT
ATOM      1  C5  <0> d           3.761   1.845  -0.024  0.00  0.00     0.258 C 
ENDROOT
BRANCH   1   2
ATOM      2  C3  <0> d           2.343   1.336  -0.013  0.00  0.00     0.017 A 
ATOM      3  C2  <0> d           1.183   2.038   0.002  0.00  0.00     0.017 A 
ATOM      4  C1  <0> d          -0.016   1.351   0.009  0.00  0.00     0.008 A 
ATOM      5  C4  <0> d           0.002  -0.004   0.002  0.00  0.00     0.050 A 
ATOM      6  S1  <0> d           1.754  -0.349  -0.017  0.00  0.00    -0.104 SA
ENDBRANCH   1   2
BRANCH   1   7
ATOM      7  C6  <0> d           4.330   1.776   1.369  0.00  0.00     0.003 A 
ATOM      8  C9  <0> d           4.035   2.734   2.282  0.00  0.00     0.061 A 
ATOM      9  S2  <0> d           4.943   2.173   3.713  0.00  0.00    -0.074 SA
ATOM     10 Br1  <0> d           2.942   4.265   2.090  0.00  0.00    -0.042 Br
ATOM     11  C8  <0> d           5.663   0.706   2.996  0.00  0.00     0.053 A 
ATOM     12  C7  <0> d           5.168   0.738   1.734  0.00  0.00     0.038 A 
ATOM     13 Br2  <0> d           6.817  -0.565   3.791  0.00  0.00    -0.043 Br
ENDBRANCH   1   7
BRANCH   1  14
ATOM     14  N1  <0> d           4.572   1.017  -0.927  0.00  0.00    -0.066 N 
ATOM     15  H6  <0> d           4.561   0.060  -0.606  0.00  0.00     0.275 HD
ATOM     16  H7  <0> d           4.190   1.063  -1.860  0.00  0.00     0.275 HD
ATOM     17  H8  <0> d           5.521   1.358  -0.934  0.00  0.00     0.275 HD
ENDBRANCH   1  14
TORSDOF 3
