REMARK  5 active torsions:
REMARK  status: ('A' for Active; 'I' for Inactive)
REMARK    1  A    between atoms: N1_2  and  C3_4 
REMARK    2  A    between atoms: C3_4  and  C4_5 
REMARK    3  A    between atoms: C3_4  and  C14_20 
REMARK    4  A    between atoms: C4_5  and  N2_6 
REMARK       I    between atoms: N2_6  and  C5_7 
REMARK       I    between atoms: C5_7  and  N3_9 
REMARK    5  A    between atoms: N3_9  and  C6_10 
ROOT
ATOM      1  N2  <0> d          -1.736   1.315  -1.382  0.00  0.00    -0.341 N 
ATOM      2  C5  <0> d          -2.114   1.934  -2.518  0.00  0.00     0.320 C 
ATOM      3  O1  <0> d          -2.722   1.319  -3.372  0.00  0.00    -0.247 OA
ATOM      4  N3  <0> d          -1.817   3.235  -2.708  0.00  0.00    -0.306 N 
ATOM      5  H10 <0> d          -1.250   1.806  -0.701  0.00  0.00     0.164 HD
ATOM      6  H11 <0> d          -1.271   3.708  -2.060  0.00  0.00     0.171 HD
ENDROOT
BRANCH   1   7
ATOM      7  C4  <0> d          -2.058  -0.099  -1.176  0.00  0.00     0.162 C 
BRANCH   7   8
ATOM      8  C3  <0> d          -1.415  -0.584   0.124  0.00  0.00     0.239 C 
BRANCH   8   9
ATOM      9  N1  <0> d          -1.812   0.301   1.227  0.00  0.00    -0.069 N 
ATOM     10  C1  <0> d          -3.278   0.366   1.300  0.00  0.00     0.270 C 
ATOM     11  C2  <0> d          -1.282  -0.225   2.492  0.00  0.00     0.270 C 
ATOM     12  H23 <0> d          -1.442   1.226   1.066  0.00  0.00     0.279 HD
ENDBRANCH   8   9
BRANCH   8  13
ATOM     13  C14 <0> d           0.085  -0.566  -0.020  0.00  0.00    -0.004 A 
ATOM     14  C19 <0> d           0.729  -1.595  -0.682  0.00  0.00     0.042 A 
ATOM     15  C18 <0> d           2.106  -1.574  -0.819  0.00  0.00     0.024 A 
ATOM     16 Cl1  <0> d          -0.190  -2.908  -1.349  0.00  0.00    -0.084 Cl
ATOM     17  C17 <0> d           2.838  -0.531  -0.284  0.00  0.00     0.002 A 
ATOM     18  C16 <0> d           2.194   0.495   0.383  0.00  0.00     0.001 A 
ATOM     19  C15 <0> d           0.818   0.477   0.515  0.00  0.00     0.011 A 
ENDBRANCH   8  13
ENDBRANCH   7   8
ENDBRANCH   1   7
BRANCH   4  20
ATOM     20  C6  <0> d          -2.298   3.906  -3.841  0.00  0.00     0.072 A 
ATOM     21  C11 <0> d          -1.544   4.923  -4.421  0.00  0.00     0.129 A 
ATOM     22  C10 <0> d          -2.020   5.578  -5.548  0.00  0.00     0.104 A 
ATOM     23  O2  <0> d          -0.344   5.261  -3.872  0.00  0.00    -0.344 OA
ATOM     24  C9  <0> d          -3.252   5.226  -6.083  0.00  0.00     0.040 A 
ATOM     25  O3  <0> d          -1.295   6.567  -6.137  0.00  0.00    -0.346 OA
ATOM     26  C8  <0> d          -4.001   4.221  -5.500  0.00  0.00     0.005 A 
ATOM     27  C7  <0> d          -3.528   3.561  -4.383  0.00  0.00     0.032 A 
ATOM     28  C13 <0> d          -0.253   7.158  -5.347  0.00  0.00     0.202 C 
ATOM     29  C12 <0> d           0.547   6.022  -4.694  0.00  0.00     0.202 C 
ENDBRANCH   4  20
TORSDOF 5
