REMARK  5 active torsions:
REMARK  status: ('A' for Active; 'I' for Inactive)
REMARK    1  A    between atoms: C2_2  and  C3_3 
REMARK    2  A    between atoms: C13_14  and  C14_16 
REMARK    3  A    between atoms: N4_22  and  C18_25 
REMARK    4  A    between atoms: C18_25  and  C19_26 
REMARK    5  A    between atoms: C22_29  and  O3_32 
ROOT
ATOM      1  C14 <0> d           0.003   0.107  -2.312  0.00  0.00     0.097 A 
ATOM      2  C15 <0> d           1.008  -0.515  -3.074  0.00  0.00     0.262 A 
ATOM      3  N3  <0> d           2.283  -0.089  -2.968  0.00  0.00    -0.275 N 
ATOM      4  H4  <0> d           2.978  -0.515  -3.492  0.00  0.00     0.173 HD
ATOM      5  C16 <0> d           2.597   0.924  -2.139  0.00  0.00     0.331 A 
ATOM      6  O1  <0> d           3.752   1.294  -2.058  0.00  0.00    -0.246 OA
ATOM      7  N4  <0> d           1.651   1.534  -1.401  0.00  0.00    -0.272 N 
ATOM      8  C17 <0> d           0.341   1.135  -1.482  0.00  0.00     0.199 A 
ATOM      9  O2  <0> d          -0.605   1.752  -0.744  0.00  0.00    -0.171 OA
ATOM     10  O4  <0> d           0.729  -1.433  -3.826  0.00  0.00    -0.267 OA
ENDROOT
BRANCH   1  11
ATOM     11  C13 <0> d          -1.428  -0.352  -2.415  0.00  0.00     0.255 C 
ATOM     12  C12 <0> d          -1.468  -1.843  -2.756  0.00  0.00     0.147 C 
ATOM     13  C5  <0> d          -0.858  -2.566  -1.558  0.00  0.00    -0.041 C 
ATOM     14  N1  <0> d          -0.624  -2.193  -3.895  0.00  0.00    -0.378 N 
ATOM     15  C4  <0> d          -1.329  -2.284  -0.152  0.00  0.00     0.070 C 
ATOM     16  C6  <0> d           0.076  -3.368  -2.045  0.00  0.00    -0.005 A 
ATOM     17  C3  <0> d          -1.362  -0.750  -0.014  0.00  0.00     0.190 C 
ATOM     18  N2  <0> d          -2.106  -0.158  -1.128  0.00  0.00    -0.060 N 
ATOM     19  H16 <0> d          -3.022  -0.580  -1.171  0.00  0.00     0.278 HD
ATOM     20  H27 <0> d          -2.210   0.832  -0.963  0.00  0.00     0.278 HD
ATOM     21  C11 <0> d           0.231  -3.095  -3.507  0.00  0.00     0.039 A 
ATOM     22  C7  <0> d           0.918  -4.396  -1.410  0.00  0.00     0.014 A 
ATOM     23  C10 <0> d           1.213  -3.813  -4.249  0.00  0.00     0.030 A 
ATOM     24  C9  <0> d           1.951  -4.735  -3.581  0.00  0.00     0.002 A 
ATOM     25  C8  <0> d           1.811  -5.023  -2.220  0.00  0.00     0.001 A 
ATOM     26  H26 <0> d          -0.688  -1.818  -4.787  0.00  0.00     0.160 HD
BRANCH  17  27
ATOM     27  C2  <0> d           0.070  -0.211  -0.018  0.00  0.00     0.029 C 
ATOM     28  C1  <0> d           0.872  -0.885   1.097  0.00  0.00     0.007 C 
ENDBRANCH  17  27
ENDBRANCH   1  11
BRANCH   7  29
ATOM     29  C18 <0> d           2.023   2.634  -0.508  0.00  0.00     0.174 C 
BRANCH  29  30
ATOM     30  C19 <0> d           1.928   3.940  -1.254  0.00  0.00    -0.040 A 
ATOM     31  C24 <0> d           0.740   4.649  -1.256  0.00  0.00     0.011 A 
ATOM     32  C23 <0> d           0.652   5.849  -1.934  0.00  0.00     0.037 A 
ATOM     33  C22 <0> d           1.753   6.338  -2.622  0.00  0.00     0.068 A 
ATOM     34  C21 <0> d           2.941   5.622  -2.623  0.00  0.00     0.037 A 
ATOM     35  C20 <0> d           3.026   4.425  -1.939  0.00  0.00     0.011 A 
BRANCH  33  36
ATOM     36  O3  <0> d           1.667   7.516  -3.294  0.00  0.00    -0.356 OA
ATOM     37  C25 <0> d           0.412   8.199  -3.249  0.00  0.00     0.210 C 
ENDBRANCH  33  36
ENDBRANCH  29  30
ENDBRANCH   7  29
TORSDOF 5
