REMARK  6 active torsions:
REMARK  status: ('A' for Active; 'I' for Inactive)
REMARK    1  A    between atoms: N1_4  and  C16_24 
REMARK    2  A    between atoms: C4_5  and  S1_7 
REMARK    3  A    between atoms: S1_7  and  C5_8 
REMARK    4  A    between atoms: C5_8  and  C7_10 
REMARK       I    between atoms: C7_10  and  N3_12 
REMARK    5  A    between atoms: N3_12  and  C8_13 
REMARK    6  A    between atoms: C9_14  and  C15_21 
REMARK       I    between atoms: C15_21  and  N4_23 
ROOT
ATOM      1  C7  <0> d          -0.751   2.305  -1.209  0.00  0.00     0.236 C 
ATOM      2  O1  <0> d          -1.576   1.601  -1.753  0.00  0.00    -0.272 OA
ATOM      3  N3  <0> d          -0.487   3.533  -1.696  0.00  0.00    -0.319 N 
ATOM      4  H8  <0> d           0.173   4.096  -1.261  0.00  0.00     0.169 HD
ENDROOT
BRANCH   1   5
ATOM      5  C5  <0> d          -0.022   1.806   0.012  0.00  0.00     0.143 C 
ATOM      6  C6  <0> d          -0.739   2.299   1.271  0.00  0.00     0.031 C 
BRANCH   5   7
ATOM      7  S1  <0> d           0.002  -0.004   0.002  0.00  0.00    -0.078 SA
BRANCH   7   8
ATOM      8  C4  <0> d           1.015  -0.304   1.412  0.00  0.00     0.170 A 
ATOM      9  N1  <0> d           1.371  -1.527   1.891  0.00  0.00    -0.323 N 
ATOM     10  C3  <0> d           2.164  -1.312   2.996  0.00  0.00     0.035 A 
ATOM     11  C2  <0> d           2.256   0.019   3.159  0.00  0.00     0.056 A 
ATOM     12  C22 <0> d           2.800  -2.368   3.863  0.00  0.00     0.070 C 
ATOM     13  C1  <0> d           3.022   0.723   4.248  0.00  0.00     0.072 C 
ATOM     14  N2  <0> d           1.549   0.614   2.183  0.00  0.00    -0.228 NA
BRANCH   9  15
ATOM     15  C16 <0> d           0.988  -2.827   1.333  0.00  0.00     0.092 C 
ATOM     16  C21 <0> d          -0.536  -2.958   1.347  0.00  0.00     0.026 C 
ATOM     17  C20 <0> d          -0.937  -4.315   0.765  0.00  0.00     0.002 C 
ATOM     18  C19 <0> d          -0.428  -4.423  -0.674  0.00  0.00     0.000 C 
ATOM     19  C18 <0> d           1.096  -4.292  -0.688  0.00  0.00     0.002 C 
ATOM     20  C17 <0> d           1.496  -2.934  -0.106  0.00  0.00     0.026 C 
ENDBRANCH   9  15
ENDBRANCH   7   8
ENDBRANCH   5   7
ENDBRANCH   1   5
BRANCH   3  21
ATOM     21  C8  <0> d          -1.157   3.993  -2.820  0.00  0.00     0.093 A 
ATOM     22  S2  <0> d          -2.364   3.182  -3.759  0.00  0.00    -0.075 SA
ATOM     23  C11 <0> d          -2.679   4.438  -4.974  0.00  0.00    -0.008 A 
ATOM     24  C10 <0> d          -1.859   5.451  -4.640  0.00  0.00    -0.026 A 
ATOM     25  C12 <0> d          -3.500   4.756  -6.194  0.00  0.00     0.047 C 
ATOM     26  C9  <0> d          -1.029   5.214  -3.459  0.00  0.00     0.072 A 
ATOM     27  C14 <0> d          -2.064   6.590  -5.639  0.00  0.00     0.041 C 
ATOM     28  C13 <0> d          -2.776   5.954  -6.849  0.00  0.00     0.010 C 
BRANCH  26  29
ATOM     29  C15 <0> d          -0.092   6.231  -2.973  0.00  0.00     0.252 C 
ATOM     30  O2  <0> d           1.053   6.252  -3.386  0.00  0.00    -0.268 OA
ATOM     31  N4  <0> d          -0.498   7.143  -2.067  0.00  0.00    -0.366 N 
ATOM     32  H15 <0> d          -1.410   7.127  -1.737  0.00  0.00     0.159 HD
ATOM     33  H16 <0> d           0.122   7.816  -1.745  0.00  0.00     0.159 HD
ENDBRANCH  26  29
ENDBRANCH   3  21
TORSDOF 6
