REMARK  5 active torsions:
REMARK  status: ('A' for Active; 'I' for Inactive)
REMARK    1  A    between atoms: C2_2  and  C3_3 
REMARK    2  A    between atoms: C3_3  and  C5_5 
REMARK    3  A    between atoms: C8_8  and  O1_11 
REMARK    4  A    between atoms: O1_11  and  S1_12 
REMARK    5  A    between atoms: S1_12  and  C11_15 
ROOT
ATOM      1  C11 <0> d          -3.957  -6.580  -0.816  0.00  0.00     0.089 A 
ATOM      2  C12 <0> d          -4.756  -5.469  -0.612  0.00  0.00     0.028 A 
ATOM      3  C13 <0> d          -5.869  -5.259  -1.400  0.00  0.00     0.033 A 
ATOM      4  C14 <0> d          -6.191  -6.165  -2.405  0.00  0.00     0.062 A 
ATOM      5  C15 <0> d          -5.385  -7.285  -2.611  0.00  0.00     0.063 A 
ATOM      6  C16 <0> d          -4.263  -7.483  -1.814  0.00  0.00     0.057 A 
ATOM      7  N1  <0> d          -5.691  -8.204  -3.611  0.00  0.00    -0.317 N 
ATOM      8  H2  <0> d          -5.124  -8.979  -3.746  0.00  0.00     0.169 HD
ATOM      9  C17 <0> d          -6.774  -8.017  -4.393  0.00  0.00     0.314 A 
ATOM     10  O4  <0> d          -7.045  -8.816  -5.266  0.00  0.00    -0.262 OA
ATOM     11  C18 <0> d          -7.635  -6.819  -4.173  0.00  0.00     0.314 A 
ATOM     12  O5  <0> d          -8.615  -6.633  -4.866  0.00  0.00    -0.262 OA
ATOM     13  N2  <0> d          -7.315  -5.946  -3.196  0.00  0.00    -0.317 N 
ATOM     14  H3  <0> d          -7.869  -5.164  -3.045  0.00  0.00     0.169 HD
ENDROOT
BRANCH   1  15
ATOM     15  S1  <0> d          -2.538  -6.840   0.197  0.00  0.00     0.303 S 
ATOM     16  O2  <0> d          -2.261  -8.233   0.159  0.00  0.00    -0.193 OA
ATOM     17  O3  <0> d          -2.775  -6.143   1.413  0.00  0.00    -0.193 OA
BRANCH  15  18
ATOM     18  O1  <0> d          -1.367  -6.144  -0.481  0.00  0.00    -0.229 OA
BRANCH  18  19
ATOM     19  C8  <0> d          -1.384  -4.790  -0.362  0.00  0.00     0.089 A 
ATOM     20  C7  <0> d          -0.755  -4.180   0.714  0.00  0.00     0.039 A 
ATOM     21  C6  <0> d          -0.773  -2.804   0.833  0.00  0.00     0.010 A 
ATOM     22  C5  <0> d          -1.416  -2.035  -0.119  0.00  0.00    -0.054 A 
ATOM     23  C10 <0> d          -2.048  -2.641  -1.189  0.00  0.00     0.010 A 
ATOM     24  C9  <0> d          -2.028  -4.016  -1.316  0.00  0.00     0.039 A 
BRANCH  22  25
ATOM     25  C3  <0> d          -1.433  -0.534   0.013  0.00  0.00     0.014 C 
ATOM     26  C4  <0> d          -2.110  -0.145   1.329  0.00  0.00     0.015 C 
BRANCH  25  27
ATOM     27  C2  <0> d           0.002  -0.004   0.002  0.00  0.00     0.004 C 
ATOM     28  C1  <0> d          -0.019   1.526   0.010  0.00  0.00     0.006 C 
ENDBRANCH  25  27
ENDBRANCH  22  25
ENDBRANCH  18  19
ENDBRANCH  15  18
ENDBRANCH   1  15
TORSDOF 5
