REMARK  8 active torsions:
REMARK  status: ('A' for Active; 'I' for Inactive)
REMARK    1  A    between atoms: C2_2  and  O1_3 
REMARK    2  A    between atoms: O1_3  and  C3_4 
REMARK    3  A    between atoms: C3_4  and  C4_6 
REMARK    4  A    between atoms: C6_8  and  C9_13 
REMARK       I    between atoms: C9_13  and  N2_15 
REMARK    5  A    between atoms: N2_15  and  C10_16 
REMARK    6  A    between atoms: C10_16  and  C11_17 
REMARK    7  A    between atoms: C11_17  and  N3_18 
REMARK    8  A    between atoms: C14_22  and  C15_23 
ROOT
ATOM      1  C9  <0> d          -6.468  -3.699   0.027  0.00  0.00     0.268 C 
ATOM      2  O3  <0> d          -6.185  -3.421  -1.123  0.00  0.00    -0.266 OA
ATOM      3  N2  <0> d          -7.619  -4.343   0.301  0.00  0.00    -0.354 N 
ATOM      4  H10 <0> d          -7.845  -4.564   1.218  0.00  0.00     0.162 HD
ENDROOT
BRANCH   3   5
ATOM      5  C10 <0> d          -8.530  -4.710  -0.786  0.00  0.00     0.143 C 
BRANCH   5   6
ATOM      6  C11 <0> d          -9.753  -5.426  -0.208  0.00  0.00     0.155 C 
BRANCH   6   7
ATOM      7  N3  <0> d         -10.664  -5.792  -1.295  0.00  0.00    -0.273 N 
ATOM      8  C21 <0> d         -10.522  -6.990  -1.898  0.00  0.00     0.294 A 
ATOM      9  S1  <0> d         -11.822  -6.988  -3.122  0.00  0.00    -0.023 SA
ATOM     10  O5  <0> d          -9.707  -7.862  -1.663  0.00  0.00    -0.259 OA
ATOM     11  C13 <0> d         -12.489  -5.368  -2.768  0.00  0.00     0.079 A 
ATOM     12  C12 <0> d         -11.603  -4.938  -1.667  0.00  0.00     0.268 A 
ATOM     13  C14 <0> d         -13.524  -4.712  -3.351  0.00  0.00     0.036 C 
ATOM     14  O4  <0> d         -11.731  -3.854  -1.129  0.00  0.00    -0.266 OA
BRANCH  13  15
ATOM     15  C15 <0> d         -13.791  -3.309  -3.008  0.00  0.00    -0.035 A 
ATOM     16  C20 <0> d         -15.109  -2.859  -2.865  0.00  0.00     0.014 A 
ATOM     17  C19 <0> d         -15.352  -1.543  -2.537  0.00  0.00     0.043 A 
ATOM     18  C18 <0> d         -14.296  -0.662  -2.361  0.00  0.00     0.116 A 
ATOM     19  C17 <0> d         -12.988  -1.100  -2.507  0.00  0.00     0.043 A 
ATOM     20  F1  <0> d         -14.542   0.628  -2.045  0.00  0.00    -0.206 F 
ATOM     21  C16 <0> d         -12.730  -2.414  -2.829  0.00  0.00     0.014 A 
ENDBRANCH  13  15
ENDBRANCH   6   7
ENDBRANCH   5   6
ENDBRANCH   3   5
BRANCH   1  22
ATOM     22  C6  <0> d          -5.555  -3.331   1.117  0.00  0.00     0.108 A 
ATOM     23  C5  <0> d          -4.365  -2.681   0.976  0.00  0.00    -0.011 A 
ATOM     24  C4  <0> d          -3.820  -2.532   2.272  0.00  0.00     0.070 A 
ATOM     25  C22 <0> d          -3.748  -2.210  -0.316  0.00  0.00     0.052 C 
ATOM     26  C7  <0> d          -4.712  -3.111   3.156  0.00  0.00     0.022 A 
ATOM     27  N1  <0> d          -5.755  -3.584   2.456  0.00  0.00    -0.354 N 
ATOM     28  C8  <0> d          -4.543  -3.193   4.651  0.00  0.00     0.069 C 
ATOM     29  H1  <0> d          -6.525  -4.037   2.834  0.00  0.00     0.166 HD
BRANCH  24  30
ATOM     30  C3  <0> d          -2.541  -1.887   2.615  0.00  0.00     0.295 C 
ATOM     31  O2  <0> d          -1.520  -2.544   2.650  0.00  0.00    -0.259 OA
BRANCH  30  32
ATOM     32  O1  <0> d          -2.504  -0.568   2.889  0.00  0.00    -0.318 OA
BRANCH  32  33
ATOM     33  C2  <0> d          -1.230  -0.009   3.213  0.00  0.00     0.174 C 
ATOM     34  C1  <0> d          -1.386   1.488   3.492  0.00  0.00     0.034 C 
ENDBRANCH  32  33
ENDBRANCH  30  32
ENDBRANCH  24  30
ENDBRANCH   1  22
TORSDOF 8
