REMARK  2 active torsions:
REMARK  status: ('A' for Active; 'I' for Inactive)
REMARK    1  A    between atoms: C2_2  and  C5_7 
REMARK       I    between atoms: C5_7  and  N1_9 
REMARK    2  A    between atoms: N1_9  and  C6_10 
ROOT
ATOM      1  C6  <0> d          -2.960  -0.712  -2.241  0.00  0.00     0.036 A 
ATOM      2  C7  <0> d          -3.459  -1.909  -1.744  0.00  0.00     0.031 A 
ATOM      3  C8  <0> d          -4.532  -2.519  -2.368  0.00  0.00     0.023 A 
ATOM      4  C9  <0> d          -5.105  -1.936  -3.485  0.00  0.00     0.028 A 
ATOM      5  C10 <0> d          -4.609  -0.734  -3.994  0.00  0.00     0.053 A 
ATOM      6  C11 <0> d          -3.535  -0.123  -3.357  0.00  0.00     0.060 A 
ATOM      7  N2  <0> d          -5.165  -0.137  -5.122  0.00  0.00    -0.325 N 
ATOM      8  C12 <0> d          -6.391  -0.339  -5.598  0.00  0.00     0.231 C 
ATOM      9  O2  <0> d          -6.729   0.271  -6.590  0.00  0.00    -0.272 OA
ATOM     10  C13 <0> d          -7.381  -1.284  -4.972  0.00  0.00     0.182 C 
ATOM     11  S1  <0> d          -6.479  -2.705  -4.284  0.00  0.00    -0.118 SA
ATOM     12  H10 <0> d          -4.604   0.488  -5.608  0.00  0.00     0.169 HD
ENDROOT
BRANCH   1  13
ATOM     13  N1  <0> d          -1.874  -0.093  -1.607  0.00  0.00    -0.326 N 
ATOM     14  C5  <0> d          -0.896  -0.842  -1.061  0.00  0.00     0.233 C 
ATOM     15  O1  <0> d          -0.996  -2.050  -1.043  0.00  0.00    -0.272 OA
ATOM     16  H6  <0> d          -1.826   0.875  -1.563  0.00  0.00     0.169 HD
BRANCH  14  17
ATOM     17  C2  <0> d           0.321  -0.178  -0.471  0.00  0.00     0.075 A 
ATOM     18  C1  <0> d           0.075   1.174   0.203  0.00  0.00     0.029 C 
ATOM     19  C4  <0> d           1.397  -1.083   0.133  0.00  0.00     0.130 A 
ATOM     20  C3  <0> d           1.654  -0.372  -1.198  0.00  0.00     0.065 A 
ATOM     21 Cl1  <0> d           2.277  -0.475   1.584  0.00  0.00    -0.100 Cl
ATOM     22 Cl2  <0> d           1.111  -2.862   0.084  0.00  0.00    -0.100 Cl
ENDBRANCH  14  17
ENDBRANCH   1  13
TORSDOF 2
