REMARK  5 active torsions:
REMARK  status: ('A' for Active; 'I' for Inactive)
REMARK    1  A    between atoms: C2_2  and  N1_5 
REMARK    2  A    between atoms: N1_5  and  S1_6 
REMARK    3  A    between atoms: S1_6  and  C5_9 
REMARK    4  A    between atoms: C16_20  and  C17_22 
REMARK    5  A    between atoms: C20_25  and  N3_28 
ROOT
ATOM      1  C5  <0> d           1.629  -4.071   0.352  0.00  0.00     0.080 A 
ATOM      2  C6  <0> d           0.684  -3.203  -0.164  0.00  0.00     0.027 A 
ATOM      3  C7  <0> d           0.978  -1.862  -0.306  0.00  0.00     0.031 A 
ATOM      4  C8  <0> d           2.225  -1.375   0.066  0.00  0.00     0.035 A 
ATOM      5  C9  <0> d           3.181  -2.261   0.574  0.00  0.00    -0.022 A 
ATOM      6  C10 <0> d           2.874  -3.597   0.720  0.00  0.00     0.035 A 
ATOM      7  C11 <0> d           4.509  -1.709   0.918  0.00  0.00     0.050 C 
ATOM      8  C12 <0> d           5.381  -2.342   1.942  0.00  0.00    -0.021 C 
ATOM      9  C13 <0> d           6.102  -1.395   2.529  0.00  0.00    -0.029 C 
ATOM     10  C14 <0> d           5.735  -0.025   1.954  0.00  0.00     0.035 C 
ATOM     11  C15 <0> d           4.298  -0.268   1.472  0.00  0.00     0.028 C 
ATOM     12  C16 <0> d           3.816   0.553   0.290  0.00  0.00     0.120 C 
ATOM     13  N2  <0> d           2.495  -0.008  -0.072  0.00  0.00    -0.380 N 
ATOM     14  H21 <0> d           1.704   0.653  -0.458  0.00  0.00     0.160 HD
ENDROOT
BRANCH   1  15
ATOM     15  S1  <0> d           1.245  -5.780   0.540  0.00  0.00     0.259 S 
ATOM     16  O1  <0> d           2.257  -6.335   1.370  0.00  0.00    -0.201 OA
ATOM     17  O2  <0> d          -0.135  -5.853   0.869  0.00  0.00    -0.201 OA
BRANCH  15  18
ATOM     18  N1  <0> d           1.415  -6.487  -0.948  0.00  0.00    -0.307 N 
ATOM     19  H13 <0> d           0.516  -6.718  -1.539  0.00  0.00     0.173 HD
BRANCH  18  20
ATOM     20  C2  <0> d           2.741  -6.599  -1.559  0.00  0.00     0.029 C 
ATOM     21  C1  <0> d           3.601  -7.563  -0.738  0.00  0.00     0.038 C 
ATOM     22  C3  <0> d           2.602  -7.130  -2.987  0.00  0.00     0.038 C 
ATOM     23  C4  <0> d           3.407  -5.222  -1.590  0.00  0.00     0.038 C 
ENDBRANCH  18  20
ENDBRANCH  15  18
ENDBRANCH   1  15
BRANCH  12  24
ATOM     24  C17 <0> d           4.774   0.415  -0.865  0.00  0.00    -0.035 A 
ATOM     25  C22 <0> d           4.497  -0.473  -1.889  0.00  0.00     0.011 A 
ATOM     26  C21 <0> d           5.373  -0.601  -2.949  0.00  0.00     0.030 A 
ATOM     27  C20 <0> d           6.533   0.163  -2.986  0.00  0.00     0.029 A 
ATOM     28  C19 <0> d           6.807   1.054  -1.956  0.00  0.00     0.030 A 
ATOM     29  C18 <0> d           5.924   1.181  -0.902  0.00  0.00     0.011 A 
BRANCH  27  30
ATOM     30  N3  <0> d           7.421   0.036  -4.057  0.00  0.00    -0.390 N 
ATOM     31  C23 <0> d           7.077  -0.818  -5.196  0.00  0.00     0.149 C 
ATOM     32  C24 <0> d           8.696   0.757  -4.040  0.00  0.00     0.149 C 
ENDBRANCH  27  30
ENDBRANCH  12  24
TORSDOF 5
