REMARK  3 active torsions:
REMARK  status: ('A' for Active; 'I' for Inactive)
REMARK       I    between atoms: N1_2  and  C2_3 
REMARK    1  A    between atoms: C2_3  and  C3_5 
REMARK    2  A    between atoms: C5_7  and  N2_12 
REMARK       I    between atoms: N2_12  and  C9_13 
REMARK    3  A    between atoms: C9_13  and  C10_15 
ROOT
ATOM      1  C3  <0> d          -1.145  -2.179  -0.009  0.00  0.00     0.055 A 
ATOM      2  C4  <0> d           0.074  -2.859  -0.012  0.00  0.00     0.048 A 
ATOM      3  C5  <0> d           0.089  -4.245  -0.022  0.00  0.00     0.036 A 
ATOM      4  C6  <0> d          -1.107  -4.954  -0.030  0.00  0.00     0.031 A 
ATOM      5  C7  <0> d          -2.314  -4.282  -0.028  0.00  0.00     0.027 A 
ATOM      6  C8  <0> d          -2.341  -2.901  -0.011  0.00  0.00     0.049 A 
ATOM      7 Cl1  <0> d          -3.861  -2.062   0.001  0.00  0.00    -0.083 Cl
ENDROOT
BRANCH   3   8
ATOM      8  N2  <0> d           1.309  -4.931  -0.026  0.00  0.00    -0.323 N 
ATOM      9  C9  <0> d           1.427  -6.098   0.637  0.00  0.00     0.257 C 
ATOM     10  O2  <0> d           0.454  -6.598   1.166  0.00  0.00    -0.267 OA
ATOM     11  H8  <0> d           2.069  -4.566  -0.505  0.00  0.00     0.169 HD
BRANCH   9  12
ATOM     12  C10 <0> d           2.740  -6.771   0.719  0.00  0.00     0.051 A 
ATOM     13  C14 <0> d           3.865  -6.208   0.115  0.00  0.00     0.133 A 
ATOM     14  N3  <0> d           5.037  -6.805   0.193  0.00  0.00    -0.271 NA
ATOM     15  C13 <0> d           5.195  -7.951   0.826  0.00  0.00     0.135 A 
ATOM     16  C12 <0> d           4.127  -8.577   1.447  0.00  0.00     0.029 A 
ATOM     17  C11 <0> d           2.876  -7.988   1.399  0.00  0.00     0.039 A 
ATOM     18 Br1  <0> d           4.377 -10.220   2.350  0.00  0.00    -0.050 Br
ENDBRANCH   9  12
ENDBRANCH   3   8
BRANCH   1  19
ATOM     19  C2  <0> d          -1.170  -0.702   0.003  0.00  0.00     0.253 C 
ATOM     20  N1  <0> d          -0.014  -0.008   0.005  0.00  0.00    -0.361 N 
ATOM     21  C1  <0> d          -0.039   1.456   0.016  0.00  0.00     0.149 C 
ATOM     22  H4  <0> d           0.834  -0.479  -0.001  0.00  0.00     0.162 HD
ATOM     23  O1  <0> d          -2.233  -0.112   0.010  0.00  0.00    -0.268 OA
ENDBRANCH   1  19
TORSDOF 3
