REMARK  4 active torsions:
REMARK  status: ('A' for Active; 'I' for Inactive)
REMARK    1  A    between atoms: C5_7  and  N3_11 
REMARK       I    between atoms: N3_11  and  C9_12 
REMARK    2  A    between atoms: C9_12  and  C10_14 
REMARK       I    between atoms: C10_14  and  N4_16 
REMARK    3  A    between atoms: N4_16  and  C11_17 
REMARK    4  A    between atoms: C15_21  and  S1_23 
ROOT
ATOM      1  N3  <0> d          -0.905  -4.285  -1.112  0.00  0.00    -0.344 N 
ATOM      2  C9  <0> d          -0.511  -5.178  -0.182  0.00  0.00     0.310 C 
ATOM      3  O1  <0> d           0.625  -5.146   0.246  0.00  0.00    -0.262 OA
ATOM      4  H12 <0> d          -1.812  -4.310  -1.454  0.00  0.00     0.163 HD
ENDROOT
BRANCH   2   5
ATOM      5  C10 <0> d          -1.471  -6.205   0.322  0.00  0.00     0.314 C 
ATOM      6  O2  <0> d          -2.606  -6.236  -0.106  0.00  0.00    -0.262 OA
ATOM      7  N4  <0> d          -1.077  -7.097   1.252  0.00  0.00    -0.319 N 
ATOM      8  H13 <0> d          -0.152  -7.115   1.545  0.00  0.00     0.169 HD
BRANCH   7   9
ATOM      9  C11 <0> d          -2.000  -7.995   1.794  0.00  0.00     0.036 A 
ATOM     10  C16 <0> d          -3.016  -8.509   1.002  0.00  0.00     0.048 A 
ATOM     11  C15 <0> d          -3.928  -9.406   1.543  0.00  0.00     0.002 A 
ATOM     12  C14 <0> d          -3.826  -9.777   2.878  0.00  0.00     0.018 A 
ATOM     13  C13 <0> d          -2.816  -9.258   3.666  0.00  0.00     0.004 A 
ATOM     14  C12 <0> d          -1.904  -8.370   3.129  0.00  0.00     0.029 A 
BRANCH  11  15
ATOM     15  S1  <0> d          -5.215 -10.069   0.539  0.00  0.00    -0.134 SA
ATOM     16  C17 <0> d          -6.131 -11.159   1.663  0.00  0.00     0.095 C 
ENDBRANCH  11  15
ENDBRANCH   7   9
ENDBRANCH   2   5
BRANCH   1  17
ATOM     17  C5  <0> d           0.037  -3.278  -1.607  0.00  0.00     0.121 C 
ATOM     18  C3  <0> d           0.041  -2.088  -0.680  0.00  0.00     0.008 A 
ATOM     19  C2  <0> d           0.029  -0.797  -1.099  0.00  0.00     0.040 A 
ATOM     20  C4  <0> d           0.056  -2.088   0.713  0.00  0.00     0.150 A 
ATOM     21  N1  <0> d           0.033  -0.011  -0.009  0.00  0.00    -0.278 N 
ATOM     22  C8  <0> d           0.014  -0.378  -2.547  0.00  0.00     0.059 C 
ATOM     23  C1  <0> d           0.021   1.454  -0.002  0.00  0.00     0.179 C 
ATOM     24  N2  <0> d           0.058  -0.843   1.120  0.00  0.00    -0.184 NA
ATOM     25  C7  <0> d           0.430  -1.580  -3.403  0.00  0.00     0.008 C 
ATOM     26  C6  <0> d          -0.396  -2.805  -3.000  0.00  0.00     0.030 C 
ENDBRANCH   1  17
TORSDOF 4
