REMARK  4 active torsions:
REMARK  status: ('A' for Active; 'I' for Inactive)
REMARK    1  A    between atoms: C5_5  and  C8_8 
REMARK    2  A    between atoms: C9_11  and  S1_14 
REMARK    3  A    between atoms: S1_14  and  C11_15 
REMARK    4  A    between atoms: C11_15  and  C12_16 
ROOT
ATOM      1  C8  <0> d          -0.039  -4.322  -0.084  0.00  0.00     0.345 C 
ATOM      2  N1  <0> d          -0.942  -4.938  -1.090  0.00  0.00    -0.223 NA
ATOM      3  N2  <0> d          -1.198  -6.275  -0.533  0.00  0.00    -0.218 NA
ATOM      4  C9  <0> d          -1.297  -6.054   0.928  0.00  0.00     0.375 C 
ATOM      5  N3  <0> d          -0.553  -4.808   1.217  0.00  0.00     0.136 N 
ATOM      6  C10 <0> d          -1.427  -3.808   1.845  0.00  0.00     0.316 C 
ATOM      7  H10 <0> d          -1.799  -4.412  -1.177  0.00  0.00     0.143 HD
ATOM      8  H11 <0> d          -2.055  -6.662  -0.899  0.00  0.00     0.143 HD
ENDROOT
BRANCH   4   9
ATOM      9  S1  <0> d          -0.548  -7.445   1.819  0.00  0.00    -0.112 SA
BRANCH   9  10
ATOM     10  C11 <0> d           1.163  -7.481   1.218  0.00  0.00     0.134 C 
BRANCH  10  11
ATOM     11  C12 <0> d           1.908  -8.606   1.889  0.00  0.00     0.023 A 
ATOM     12  C20 <0> d           2.171  -9.723   1.179  0.00  0.00     0.081 A 
ATOM     13  C19 <0> d           2.872 -10.796   1.779  0.00  0.00     0.186 A 
ATOM     14  C14 <0> d           3.285 -10.646   3.185  0.00  0.00     0.044 A 
ATOM     15  O1  <0> d           3.123 -11.813   1.153  0.00  0.00    -0.287 OA
ATOM     16  C13 <0> d           2.966  -9.451   3.853  0.00  0.00     0.085 A 
ATOM     17  C15 <0> d           3.977 -11.656   3.853  0.00  0.00     0.018 A 
ATOM     18  N4  <0> d           2.283  -8.460   3.182  0.00  0.00    -0.356 N 
ATOM     19  C18 <0> d           3.348  -9.290   5.183  0.00  0.00     0.143 A 
ATOM     20  H21 <0> d           2.065  -7.637   3.648  0.00  0.00     0.166 HD
ATOM     21  C17 <0> d           4.032 -10.302   5.824  0.00  0.00     0.045 A 
ATOM     22  F1  <0> d           3.050  -8.148   5.842  0.00  0.00    -0.204 F 
ATOM     23  C16 <0> d           4.343 -11.479   5.158  0.00  0.00     0.004 A 
ENDBRANCH  10  11
ENDBRANCH   9  10
ENDBRANCH   4   9
BRANCH   1  24
ATOM     24  C5  <0> d          -0.118  -2.819  -0.153  0.00  0.00    -0.010 A 
ATOM     25  C4  <0> d          -1.338  -2.200  -0.354  0.00  0.00     0.011 A 
ATOM     26  C3  <0> d          -1.411  -0.821  -0.417  0.00  0.00     0.007 A 
ATOM     27  C2  <0> d          -0.265  -0.061  -0.279  0.00  0.00    -0.062 A 
ATOM     28  C1  <0> d          -0.344   1.443  -0.348  0.00  0.00     0.048 C 
ATOM     29  C7  <0> d           0.956  -0.680  -0.083  0.00  0.00     0.007 A 
ATOM     30  C6  <0> d           1.028  -2.059  -0.016  0.00  0.00     0.011 A 
ENDBRANCH   1  24
TORSDOF 4
