REMARK  3 active torsions:
REMARK  status: ('A' for Active; 'I' for Inactive)
REMARK    1  A    between atoms: C3_3  and  S1_8 
REMARK    2  A    between atoms: S1_8  and  N2_11 
REMARK    3  A    between atoms: C7_13  and  C9_15 
ROOT
ATOM      1  N2  <0> d           1.570  -0.091  -3.285  0.00  0.00    -0.305 N 
ATOM      2  C6  <0> d           2.569   0.988  -3.258  0.00  0.00     0.149 C 
ATOM      3  C7  <0> d           3.232   0.331  -4.476  0.00  0.00     0.092 C 
ATOM      4  C8  <0> d           2.591  -0.946  -3.909  0.00  0.00     0.149 C 
ENDROOT
BRANCH   1   5
ATOM      5  S1  <0> d          -0.008  -0.267  -2.813  0.00  0.00     0.265 S 
ATOM      6  O2  <0> d          -0.547  -1.328  -3.589  0.00  0.00    -0.200 OA
ATOM      7  O3  <0> d          -0.577   1.035  -2.802  0.00  0.00    -0.200 OA
BRANCH   5   8
ATOM      8  C3  <0> d           0.008  -0.824  -1.141  0.00  0.00     0.137 A 
ATOM      9  C2  <0> d           0.002  -0.004   0.002  0.00  0.00     0.084 A 
ATOM     10  C1  <0> d          -0.018   1.503   0.010  0.00  0.00     0.074 C 
ATOM     11  N1  <0> d           0.023  -0.775   1.052  0.00  0.00    -0.132 NA
ATOM     12  O1  <0> d           0.034  -2.119   0.606  0.00  0.00    -0.216 OA
ATOM     13  C4  <0> d           0.027  -2.108  -0.735  0.00  0.00     0.100 A 
ATOM     14  C5  <0> d           0.039  -3.320  -1.631  0.00  0.00     0.081 C 
ENDBRANCH   5   8
ENDBRANCH   1   5
BRANCH   3  15
ATOM     15  C9  <0> d           4.738   0.333  -4.436  0.00  0.00     0.112 A 
ATOM     16  N4  <0> d           5.498   1.227  -4.997  0.00  0.00    -0.233 NA
ATOM     17  C15 <0> d           6.802   0.931  -4.763  0.00  0.00     0.085 A 
ATOM     18  C10 <0> d           6.823  -0.250  -4.002  0.00  0.00     0.062 A 
ATOM     19  C14 <0> d           8.008   1.539  -5.121  0.00  0.00     0.034 A 
ATOM     20  N3  <0> d           5.502  -0.604  -3.811  0.00  0.00    -0.342 N 
ATOM     21  C11 <0> d           8.037  -0.801  -3.614  0.00  0.00     0.032 A 
ATOM     22  H1  <0> d           5.179  -1.377  -3.323  0.00  0.00     0.167 HD
ATOM     23  C12 <0> d           9.214  -0.183  -3.979  0.00  0.00     0.002 A 
ATOM     24  C13 <0> d           9.193   0.983  -4.731  0.00  0.00     0.002 A 
ENDBRANCH   3  15
TORSDOF 3
