REMARK  3 active torsions:
REMARK  status: ('A' for Active; 'I' for Inactive)
REMARK    1  A    between atoms: C2_2  and  C10_14 
REMARK    2  A    between atoms: C3_3  and  C4_4 
REMARK       I    between atoms: C4_4  and  N1_6 
REMARK    3  A    between atoms: N1_6  and  C5_7 
ROOT
ATOM      1  C4  <0> d          -0.568  -2.161   1.103  0.00  0.00     0.242 C 
ATOM      2  O1  <0> d          -0.602  -2.740   0.034  0.00  0.00    -0.269 OA
ATOM      3  N1  <0> d          -0.856  -2.826   2.239  0.00  0.00    -0.344 N 
ATOM      4  H6  <0> d          -0.829  -2.364   3.091  0.00  0.00     0.163 HD
ENDROOT
BRANCH   3   5
ATOM      5  C5  <0> d          -1.211  -4.246   2.186  0.00  0.00     0.177 C 
ATOM      6  C9  <0> d          -2.678  -4.384   1.898  0.00  0.00     0.240 C 
ATOM      7  N2  <0> d          -3.471  -5.261   2.513  0.00  0.00    -0.359 N 
ATOM      8  O2  <0> d          -3.169  -3.658   1.060  0.00  0.00    -0.271 OA
ATOM      9  C8  <0> d          -3.029  -6.159   3.572  0.00  0.00     0.122 C 
ATOM     10  H13 <0> d          -4.401  -5.303   2.238  0.00  0.00     0.162 HD
ATOM     11  C7  <0> d          -1.507  -6.303   3.551  0.00  0.00     0.022 C 
ATOM     12  C6  <0> d          -0.882  -4.902   3.530  0.00  0.00     0.036 C 
ENDBRANCH   3   5
BRANCH   1  13
ATOM     13  C3  <0> d          -0.211  -0.735   1.155  0.00  0.00     0.076 C 
ATOM     14  C2  <0> d           0.186  -0.108   0.052  0.00  0.00    -0.074 C 
ATOM     15  C1  <0> d           0.396   1.385   0.068  0.00  0.00     0.044 C 
BRANCH  14  16
ATOM     16  C10 <0> d           0.427  -0.889  -1.214  0.00  0.00     0.014 A 
ATOM     17  C12 <0> d          -0.515  -0.634  -2.392  0.00  0.00     0.010 A 
ATOM     18  C11 <0> d           0.924  -0.117  -2.438  0.00  0.00     0.010 A 
ENDBRANCH  14  16
ENDBRANCH   1  13
TORSDOF 3
