REMARK  4 active torsions:
REMARK  status: ('A' for Active; 'I' for Inactive)
REMARK    1  A    between atoms: N1_5  and  C5_7 
REMARK    2  A    between atoms: C5_7  and  C6_8 
REMARK    3  A    between atoms: C9_11  and  C12_14 
REMARK       I    between atoms: C12_14  and  N3_16 
REMARK    4  A    between atoms: N3_16  and  N4_17 
ROOT
ATOM      1  C6  <0> d           1.482  -3.682   1.773  0.00  0.00    -0.038 A 
ATOM      2  C7  <0> d           2.142  -4.559   0.930  0.00  0.00     0.010 A 
ATOM      3  C8  <0> d           3.449  -4.916   1.188  0.00  0.00     0.017 A 
ATOM      4  C9  <0> d           4.106  -4.392   2.302  0.00  0.00     0.033 A 
ATOM      5  C10 <0> d           3.435  -3.508   3.148  0.00  0.00     0.017 A 
ATOM      6  C11 <0> d           2.130  -3.154   2.876  0.00  0.00     0.010 A 
ENDROOT
BRANCH   4   7
ATOM      7  C12 <0> d           5.507  -4.771   2.585  0.00  0.00     0.270 C 
ATOM      8  O1  <0> d           6.089  -5.542   1.846  0.00  0.00    -0.266 OA
ATOM      9  N3  <0> d           6.139  -4.263   3.661  0.00  0.00    -0.259 N 
ATOM     10  H11 <0> d           5.674  -3.648   4.251  0.00  0.00     0.190 HD
BRANCH   9  11
ATOM     11  N4  <0> d           7.466  -4.623   3.929  0.00  0.00    -0.231 N 
ATOM     12  C15 <0> d           8.562  -4.190   3.281  0.00  0.00     0.344 A 
ATOM     13  N5  <0> d           9.689  -4.715   3.776  0.00  0.00    -0.276 N 
ATOM     14  O3  <0> d           8.533  -3.406   2.353  0.00  0.00    -0.245 OA
ATOM     15  C14 <0> d           9.438  -5.557   4.798  0.00  0.00     0.245 A 
ATOM     16  H14 <0> d          10.577  -4.517   3.438  0.00  0.00     0.173 HD
ATOM     17  C13 <0> d           7.932  -5.553   4.971  0.00  0.00     0.257 A 
ATOM     18  O2  <0> d          10.248  -6.187   5.443  0.00  0.00    -0.271 OA
ENDBRANCH   9  11
ENDBRANCH   4   7
BRANCH   1  19
ATOM     19  C5  <0> d           0.055  -3.295   1.485  0.00  0.00     0.189 C 
BRANCH  19  20
ATOM     20  N1  <0> d           0.034  -2.109   0.625  0.00  0.00    -0.270 N 
ATOM     21  C4  <0> d           0.028  -2.107  -0.725  0.00  0.00     0.029 A 
ATOM     22  C3  <0> d           0.008  -0.818  -1.135  0.00  0.00     0.055 A 
ATOM     23  C16 <0> d           0.040  -3.323  -1.615  0.00  0.00     0.070 C 
ATOM     24  C2  <0> d           0.002  -0.004   0.002  0.00  0.00     0.053 A 
ATOM     25  C1  <0> d          -0.018   1.503   0.010  0.00  0.00     0.072 C 
ATOM     26  N2  <0> d           0.023  -0.777   1.058  0.00  0.00    -0.177 NA
ENDBRANCH  19  20
ENDBRANCH   1  19
TORSDOF 4
