REMARK  3 active torsions:
REMARK  status: ('A' for Active; 'I' for Inactive)
REMARK    1  A    between atoms: C2_3  and  N4_6 
REMARK    2  A    between atoms: N4_6  and  C3_7 
REMARK    3  A    between atoms: C3_7  and  C4_8 
ROOT
ATOM      1  C4  <0> d           4.808  -0.174   2.333  0.00  0.00     0.090 A 
ATOM      2  C5  <0> d           5.990  -0.925   2.595  0.00  0.00     0.265 A 
ATOM      3  O1  <0> d           6.441  -1.694   1.765  0.00  0.00    -0.267 OA
ATOM      4  N5  <0> d           6.583  -0.764   3.765  0.00  0.00    -0.307 N 
ATOM      5  C6  <0> d           6.083   0.090   4.686  0.00  0.00     0.146 A 
ATOM      6  S1  <0> d           6.680   0.452   6.250  0.00  0.00    -0.052 SA
ATOM      7  S2  <0> d           4.645   0.748   3.856  0.00  0.00    -0.054 SA
ATOM      8  H5  <0> d           7.389  -1.265   3.966  0.00  0.00     0.170 HD
ENDROOT
BRANCH   1   9
ATOM      9  C3  <0> d           4.024  -0.158   1.227  0.00  0.00     0.111 C 
BRANCH   9  10
ATOM     10  N4  <0> d           2.923   0.653   1.181  0.00  0.00    -0.357 N 
ATOM     11  H3  <0> d           2.703   1.217   1.939  0.00  0.00     0.162 HD
BRANCH  10  12
ATOM     12  C2  <0> d           2.075   0.671  -0.014  0.00  0.00     0.356 A 
ATOM     13  N1  <0> d           1.181   1.842   0.001  0.00  0.00    -0.233 NA
ATOM     14  C1  <0> d          -0.016   1.355   0.009  0.00  0.00     0.255 A 
ATOM     15  N3  <0> d           0.002  -0.004   0.002  0.00  0.00    -0.145 NA
ATOM     16  N2  <0> d           1.147  -0.472  -0.011  0.00  0.00    -0.142 NA
ENDBRANCH  10  12
ENDBRANCH   9  10
ENDBRANCH   1   9
TORSDOF 3
