REMARK  3 active torsions:
REMARK  status: ('A' for Active; 'I' for Inactive)
REMARK    1  A    between atoms: C7_7  and  C10_12 
REMARK       I    between atoms: C10_12  and  N2_14 
REMARK    2  A    between atoms: N3_17  and  C15_20 
REMARK    3  A    between atoms: C15_20  and  C16_21 
ROOT
ATOM      1  C10 <0> d           1.350  -2.692   1.393  0.00  0.00     0.229 C 
ATOM      2  O2  <0> d           1.500  -1.910   2.308  0.00  0.00    -0.273 OA
ATOM      3  N2  <0> d           1.290  -4.016   1.642  0.00  0.00    -0.348 N 
ATOM      4  C11 <0> d           1.224  -4.988   0.541  0.00  0.00     0.156 C 
ATOM      5  C12 <0> d           0.048  -5.937   0.798  0.00  0.00     0.292 C 
ATOM      6  N3  <0> d           0.181  -6.524   2.138  0.00  0.00     0.097 N 
ATOM      7  C13 <0> d           0.109  -5.492   3.182  0.00  0.00     0.292 C 
ATOM      8  C14 <0> d           1.294  -4.526   3.021  0.00  0.00     0.156 C 
ENDROOT
BRANCH   1   9
ATOM      9  C7  <0> d           1.232  -2.185  -0.021  0.00  0.00     0.122 C 
ATOM     10  C5  <0> d           0.747  -0.759  -0.004  0.00  0.00    -0.018 A 
ATOM     11  C4  <0> d           1.660   0.280   0.130  0.00  0.00     0.042 A 
ATOM     12  C6  <0> d          -0.601  -0.482  -0.120  0.00  0.00     0.010 A 
ATOM     13  C3  <0> d           1.213   1.594   0.147  0.00  0.00     0.030 A 
ATOM     14  N1  <0> d           3.024  -0.001   0.248  0.00  0.00    -0.327 N 
ATOM     15  C2  <0> d          -0.136   1.865   0.030  0.00  0.00     0.002 A 
ATOM     16  C1  <0> d          -1.042   0.828  -0.103  0.00  0.00     0.001 A 
ATOM     17  C9  <0> d           3.509  -1.198  -0.129  0.00  0.00     0.223 C 
ATOM     18  H8  <0> d           3.626   0.672   0.604  0.00  0.00     0.169 HD
ATOM     19  C8  <0> d           2.600  -2.252  -0.702  0.00  0.00     0.122 C 
ATOM     20  O1  <0> d           4.693  -1.431  -0.006  0.00  0.00    -0.273 OA
ENDBRANCH   1   9
BRANCH   6  21
ATOM     21  C15 <0> d          -0.830  -7.567   2.359  0.00  0.00     0.330 C 
BRANCH  21  22
ATOM     22  C16 <0> d          -0.515  -8.310   3.631  0.00  0.00     0.055 A 
ATOM     23  N5  <0> d          -0.878  -7.938   4.861  0.00  0.00    -0.343 N 
ATOM     24  C22 <0> d          -0.432  -8.830   5.735  0.00  0.00     0.111 A 
ATOM     25  H24 <0> d          -1.389  -7.144   5.080  0.00  0.00     0.167 HD
ATOM     26  N4  <0> d           0.246  -9.800   5.043  0.00  0.00    -0.317 N 
ATOM     27  C21 <0> d          -0.536  -8.918   7.137  0.00  0.00     0.049 A 
ATOM     28  C17 <0> d           0.187  -9.461   3.718  0.00  0.00     0.124 A 
ATOM     29  C18 <0> d           0.820 -10.847   5.703  0.00  0.00     0.098 A 
ATOM     30  C19 <0> d           0.729 -10.945   7.046  0.00  0.00     0.018 A 
ATOM     31  C20 <0> d           0.041  -9.968   7.783  0.00  0.00     0.005 A 
ENDBRANCH  21  22
ENDBRANCH   6  21
TORSDOF 3
