REMARK  2 active torsions:
REMARK  status: ('A' for Active; 'I' for Inactive)
REMARK    1  A    between atoms: C6_6  and  C7_7 
REMARK    2  A    between atoms: C7_7  and  C8_8 
ROOT
ATOM      1  C1  <0> d          -0.017   1.380   0.010  0.00  0.00     0.011 A 
ATOM      2  C2  <0> d           1.166   2.092   0.002  0.00  0.00     0.032 A 
ATOM      3  C3  <0> d           2.382   1.419  -0.014  0.00  0.00     0.062 A 
ATOM      4  C4  <0> d           2.401   0.023  -0.022  0.00  0.00     0.062 A 
ATOM      5  C5  <0> d           1.204  -0.683  -0.014  0.00  0.00     0.040 A 
ATOM      6  C6  <0> d           0.002  -0.004   0.002  0.00  0.00    -0.035 A 
ATOM      7  N1  <0> d           3.609  -0.669  -0.038  0.00  0.00    -0.317 N 
ATOM      8  H3  <0> d           3.612  -1.639  -0.044  0.00  0.00     0.169 HD
ATOM      9  C12 <0> d           4.776   0.007  -0.046  0.00  0.00     0.314 A 
ATOM     10  O2  <0> d           5.832  -0.592  -0.061  0.00  0.00    -0.262 OA
ATOM     11  C13 <0> d           4.756   1.499  -0.037  0.00  0.00     0.314 A 
ATOM     12  O3  <0> d           5.795   2.126  -0.044  0.00  0.00    -0.262 OA
ATOM     13  N2  <0> d           3.571   2.143  -0.021  0.00  0.00    -0.317 N 
ATOM     14  H4  <0> d           3.547   3.113  -0.016  0.00  0.00     0.169 HD
ENDROOT
BRANCH   6  15
ATOM     15  C7  <0> d          -1.294  -0.772   0.011  0.00  0.00     0.144 C 
ATOM     16 Cl1  <0> d          -2.295  -0.248   1.416  0.00  0.00    -0.117 Cl
BRANCH  15  17
ATOM     17  C8  <0> d          -2.057  -0.501  -1.288  0.00  0.00     0.144 C 
ATOM     18  O1  <0> d          -1.284  -0.949  -2.408  0.00  0.00    -0.384 OA
ATOM     19  C11 <0> d          -1.992  -1.990  -3.104  0.00  0.00     0.168 C 
ATOM     20  C10 <0> d          -3.486  -1.761  -2.765  0.00  0.00     0.029 C 
ATOM     21  C9  <0> d          -3.385  -1.288  -1.289  0.00  0.00     0.036 C 
ENDBRANCH  15  17
ENDBRANCH   6  15
TORSDOF 2
