REMARK  7 active torsions:
REMARK  status: ('A' for Active; 'I' for Inactive)
REMARK    1  A    between atoms: N1_6  and  C7_8 
REMARK    2  A    between atoms: C7_8  and  C8_9 
REMARK    3  A    between atoms: C10_12  and  N3_14 
REMARK       I    between atoms: N3_14  and  C11_15 
REMARK    4  A    between atoms: C11_15  and  C12_17 
REMARK    5  A    between atoms: C12_17  and  C13_18 
REMARK    6  A    between atoms: C12_17  and  N4_21 
REMARK       I    between atoms: N4_21  and  C16_22 
REMARK    7  A    between atoms: C16_22  and  C17_24 
ROOT
ATOM      1  N3  <0> d           2.060   8.705  -1.591  0.00  0.00    -0.304 N 
ATOM      2  C11 <0> d           2.300   9.945  -1.121  0.00  0.00     0.246 C 
ATOM      3  O1  <0> d           2.479  10.119   0.066  0.00  0.00    -0.271 OA
ATOM      4  H17 <0> d           1.823   8.557  -2.655  0.00  0.00     0.171 HD
ENDROOT
BRANCH   2   5
ATOM      5  C12 <0> d           2.346  11.115  -2.069  0.00  0.00     0.180 C 
BRANCH   5   6
ATOM      6  C13 <0> d           3.766  11.272  -2.617  0.00  0.00     0.009 C 
ATOM      7  C14 <0> d           4.159  10.010  -3.386  0.00  0.00     0.012 C 
ATOM      8  C15 <0> d           3.820  12.479  -3.555  0.00  0.00     0.012 C 
ENDBRANCH   5   6
BRANCH   5   9
ATOM      9  N4  <0> d           1.959  12.336  -1.357  0.00  0.00    -0.343 N 
ATOM     10  C16 <0> d           1.442  13.378  -2.039  0.00  0.00     0.258 C 
ATOM     11  O2  <0> d           1.297  13.305  -3.244  0.00  0.00    -0.267 OA
ATOM     12  H25 <0> d           2.090  12.402  -0.267  0.00  0.00     0.163 HD
BRANCH  10  13
ATOM     13  C17 <0> d           1.052  14.607  -1.322  0.00  0.00     0.108 A 
ATOM     14  C22 <0> d          -0.246  14.747  -0.819  0.00  0.00     0.135 A 
ATOM     15  C21 <0> d          -0.602  15.902  -0.149  0.00  0.00     0.043 A 
ATOM     16  F1  <0> d          -1.148  13.756  -0.988  0.00  0.00    -0.205 F 
ATOM     17  C20 <0> d           0.320  16.918   0.025  0.00  0.00     0.006 A 
ATOM     18  C19 <0> d           1.605  16.788  -0.468  0.00  0.00     0.043 A 
ATOM     19  C18 <0> d           1.981  15.637  -1.136  0.00  0.00     0.135 A 
ATOM     20  F2  <0> d           3.239  15.510  -1.612  0.00  0.00    -0.205 F 
ENDBRANCH  10  13
ENDBRANCH   5   9
ENDBRANCH   2   5
BRANCH   1  21
ATOM     21  C10 <0> d           2.111   7.614  -0.732  0.00  0.00     0.173 A 
ATOM     22  S1  <0> d           2.458   7.579   0.969  0.00  0.00    -0.062 SA
ATOM     23  C9  <0> d           2.302   5.815   1.202  0.00  0.00     0.082 A 
ATOM     24  C8  <0> d           1.996   5.420  -0.058  0.00  0.00     0.069 A 
ATOM     25  N2  <0> d           1.913   6.338  -1.001  0.00  0.00    -0.227 NA
BRANCH  24  26
ATOM     26  C7  <0> d           1.762   3.965  -0.375  0.00  0.00     0.294 C 
BRANCH  26  27
ATOM     27  N1  <0> d           0.323   3.676  -0.316  0.00  0.00    -0.065 N 
ATOM     28  C5  <0> d          -0.400   4.391  -1.375  0.00  0.00     0.235 C 
ATOM     29  C4  <0> d          -1.906   4.184  -1.196  0.00  0.00     0.028 C 
ATOM     30  C3  <0> d          -2.221   2.687  -1.257  0.00  0.00     0.007 C 
ATOM     31  C2  <0> d          -1.418   1.960  -0.175  0.00  0.00     0.007 C 
ATOM     32  C1  <0> d          -1.681   0.455  -0.268  0.00  0.00     0.011 C 
ATOM     33  C6  <0> d           0.073   2.231  -0.384  0.00  0.00     0.239 C 
ATOM     34  H29 <0> d          -0.056   4.037   0.651  0.00  0.00     0.280 HD
ENDBRANCH  26  27
ENDBRANCH  24  26
ENDBRANCH   1  21
TORSDOF 7
