REMARK  1 active torsions:
REMARK  status: ('A' for Active; 'I' for Inactive)
REMARK    1  A    between atoms: C2_3  and  C4_9 
ROOT
ATOM      1  C4  <0> d          -2.516  -0.380   0.013  0.00  0.00     0.014 A 
ATOM      2  C5  <0> d          -2.817   0.978   0.122  0.00  0.00     0.018 A 
ATOM      3  C6  <0> d          -4.131   1.397   0.132  0.00  0.00     0.040 A 
ATOM      4  C7  <0> d          -5.156   0.471   0.032  0.00  0.00     0.096 A 
ATOM      5  C8  <0> d          -4.862  -0.889  -0.078  0.00  0.00     0.071 A 
ATOM      6  C9  <0> d          -3.547  -1.315  -0.093  0.00  0.00     0.048 A 
ATOM      7  N4  <0> d          -5.913  -1.812  -0.175  0.00  0.00    -0.318 N 
ATOM      8  C10 <0> d          -7.151  -1.365  -0.478  0.00  0.00     0.248 C 
ATOM      9  O1  <0> d          -8.082  -2.141  -0.539  0.00  0.00    -0.271 OA
ATOM     10  C11 <0> d          -7.372   0.103  -0.740  0.00  0.00     0.279 C 
ATOM     11  O2  <0> d          -6.455   0.874   0.040  0.00  0.00    -0.340 OA
ATOM     12  C12 <0> d          -5.672  -3.240   0.047  0.00  0.00     0.159 C 
ENDROOT
BRANCH   1  13
ATOM     13  C2  <0> d          -1.106  -0.828   0.003  0.00  0.00     0.162 A 
ATOM     14  N1  <0> d           0.002  -0.004  -0.008  0.00  0.00    -0.310 N 
ATOM     15  C1  <0> d          -0.018   1.461  -0.011  0.00  0.00     0.160 C 
ATOM     16  C3  <0> d           1.105  -0.779  -0.019  0.00  0.00     0.196 A 
ATOM     17  N3  <0> d           0.701  -2.066  -0.008  0.00  0.00    -0.251 N 
ATOM     18  S1  <0> d           2.726  -0.229  -0.040  0.00  0.00    -0.039 SA
ATOM     19  N2  <0> d          -0.701  -2.067   0.002  0.00  0.00    -0.153 NA
ATOM     20  H1  <0> d           1.275  -2.847  -0.011  0.00  0.00     0.191 HD
ENDBRANCH   1  13
TORSDOF 1
