REMARK  5 active torsions:
REMARK  status: ('A' for Active; 'I' for Inactive)
REMARK    1  A    between atoms: C3_3  and  C18_24 
REMARK    2  A    between atoms: C4_4  and  N2_13 
REMARK    3  A    between atoms: N2_13  and  C11_14 
REMARK    4  A    between atoms: C18_24  and  C19_25 
REMARK    5  A    between atoms: C19_25  and  O2_27 
ROOT
ATOM      1  C1  <0> d          -4.464  -1.112   0.045  0.00  0.00     0.068 C 
ATOM      2  C2  <0> d          -3.037  -0.680   0.266  0.00  0.00     0.014 A 
ATOM      3  C3  <0> d          -2.058  -1.110  -0.619  0.00  0.00     0.001 A 
ATOM      4  C4  <0> d          -0.741  -0.720  -0.429  0.00  0.00     0.054 A 
ATOM      5  C5  <0> d          -0.451   0.114   0.678  0.00  0.00     0.021 A 
ATOM      6  C6  <0> d           0.855   0.551   0.938  0.00  0.00     0.058 A 
ATOM      7  C7  <0> d           1.095   1.355   2.014  0.00  0.00     0.117 A 
ATOM      8  C8  <0> d           0.056   1.745   2.859  0.00  0.00     0.044 A 
ATOM      9  C9  <0> d          -1.223   1.337   2.633  0.00  0.00     0.033 A 
ATOM     10  C10 <0> d          -1.507   0.508   1.533  0.00  0.00     0.045 A 
ATOM     11  N1  <0> d          -2.756   0.097   1.286  0.00  0.00    -0.359 N 
ATOM     12  F1  <0> d           2.353   1.776   2.265  0.00  0.00    -0.206 F 
ATOM     13  H18 <0> d          -3.472   0.378   1.877  0.00  0.00     0.166 HD
ENDROOT
BRANCH   4  14
ATOM     14  N2  <0> d           0.260  -1.134  -1.295  0.00  0.00    -0.355 N 
ATOM     15  H8  <0> d           0.623  -2.031  -1.224  0.00  0.00     0.166 HD
BRANCH  14  16
ATOM     16  C11 <0> d           0.746  -0.258  -2.271  0.00  0.00     0.034 A 
ATOM     17  C16 <0> d           1.177  -0.755  -3.490  0.00  0.00     0.061 A 
ATOM     18  C15 <0> d           1.654   0.119  -4.457  0.00  0.00     0.064 A 
ATOM     19  C14 <0> d           1.708   1.498  -4.190  0.00  0.00     0.085 A 
ATOM     20  N3  <0> d           2.143  -0.041  -5.738  0.00  0.00    -0.349 N 
ATOM     21  C13 <0> d           1.273   1.978  -2.952  0.00  0.00     0.036 A 
ATOM     22  N4  <0> d           2.216   2.096  -5.300  0.00  0.00    -0.242 NA
ATOM     23  C12 <0> d           0.801   1.110  -2.010  0.00  0.00     0.032 A 
ATOM     24  C17 <0> d           2.470   1.196  -6.204  0.00  0.00     0.208 A 
ATOM     25  H1  <0> d           2.235  -0.879  -6.218  0.00  0.00     0.167 HD
ENDBRANCH  14  16
ENDBRANCH   4  14
BRANCH   3  26
ATOM     26  C18 <0> d          -2.424  -1.998  -1.781  0.00  0.00     0.154 C 
BRANCH  26  27
ATOM     27  C19 <0> d          -2.939  -1.152  -2.917  0.00  0.00     0.262 C 
ATOM     28  O1  <0> d          -2.666   0.024  -2.966  0.00  0.00    -0.265 OA
BRANCH  27  29
ATOM     29  O2  <0> d          -3.700  -1.705  -3.874  0.00  0.00    -0.326 OA
ATOM     30  C20 <0> d          -4.060  -0.873  -4.978  0.00  0.00     0.213 C 
ENDBRANCH  27  29
ENDBRANCH  26  27
ENDBRANCH   3  26
TORSDOF 5
