REMARK  5 active torsions:
REMARK  status: ('A' for Active; 'I' for Inactive)
REMARK    1  A    between atoms: C3_3  and  N1_4 
REMARK    2  A    between atoms: N1_4  and  C4_5 
REMARK       I    between atoms: N1_4  and  C8_12 
REMARK    3  A    between atoms: C8_12  and  C9_14 
REMARK    4  A    between atoms: C9_14  and  C10_15 
REMARK    5  A    between atoms: C12_18  and  N3_20 
ROOT
ATOM      1  C1  <0> d           0.018  -1.178  -0.004  0.00  0.00     0.014 C 
ATOM      2  C2  <0> d           0.002  -0.004   0.002  0.00  0.00    -0.098 C 
ATOM      3  C3  <0> d          -0.018   1.468   0.010  0.00  0.00     0.219 C 
ENDROOT
BRANCH   3   4
ATOM      4  N1  <0> d           1.357   1.975  -0.000  0.00  0.00    -0.336 N 
ATOM      5  C8  <0> d           2.000   2.202   1.162  0.00  0.00     0.226 C 
ATOM      6  O3  <0> d           3.138   2.622   1.153  0.00  0.00    -0.273 OA
BRANCH   4   7
ATOM      7  C4  <0> d           2.032   2.235  -1.274  0.00  0.00     0.102 C 
ATOM      8  C7  <0> d           2.115   0.921  -2.103  0.00  0.00     0.165 C 
ATOM      9  S1  <0> d           2.401   1.604  -3.790  0.00  0.00     0.146 S 
ATOM     10  C6  <0> d           1.746   3.305  -3.545  0.00  0.00     0.142 C 
ATOM     11  O1  <0> d           3.800   1.677  -4.028  0.00  0.00    -0.228 OA
ATOM     12  O2  <0> d           1.569   0.917  -4.714  0.00  0.00    -0.228 OA
ATOM     13  C5  <0> d           1.228   3.263  -2.087  0.00  0.00     0.041 C 
ENDBRANCH   4   7
BRANCH   5  14
ATOM     14  C9  <0> d           1.305   1.934   2.472  0.00  0.00     0.162 C 
BRANCH  14  15
ATOM     15  C10 <0> d           2.235   2.267   3.611  0.00  0.00     0.052 A 
ATOM     16  N2  <0> d           3.437   1.725   3.701  0.00  0.00    -0.228 NA
ATOM     17  C12 <0> d           4.244   2.025   4.696  0.00  0.00     0.164 A 
ATOM     18  S2  <0> d           3.340   3.112   5.609  0.00  0.00    -0.062 SA
ATOM     19  C11 <0> d           1.873   3.130   4.590  0.00  0.00     0.081 A 
BRANCH  17  20
ATOM     20  N3  <0> d           5.526   1.556   4.938  0.00  0.00    -0.378 N 
ATOM     21  H14 <0> d           6.014   1.858   5.719  0.00  0.00     0.158 HD
ATOM     22  H15 <0> d           5.935   0.925   4.324  0.00  0.00     0.158 HD
ENDBRANCH  17  20
ENDBRANCH  14  15
ENDBRANCH   5  14
ENDBRANCH   3   4
TORSDOF 5
