REMARK  6 active torsions:
REMARK  status: ('A' for Active; 'I' for Inactive)
REMARK    1  A    between atoms: C2_2  and  N1_3 
REMARK    2  A    between atoms: N1_3  and  C3_4 
REMARK       I    between atoms: N1_3  and  C5_7 
REMARK    3  A    between atoms: C3_4  and  C4_5 
REMARK    4  A    between atoms: C4_5  and  O1_6 
REMARK    5  A    between atoms: C5_7  and  C6_9 
REMARK    6  A    between atoms: C9_13  and  N3_15 
ROOT
ATOM      1  C6  <0> d          -1.185  -0.196   2.557  0.00  0.00     0.037 A 
ATOM      2  C7  <0> d          -0.222   0.817   2.468  0.00  0.00     0.036 A 
ATOM      3  C8  <0> d           0.440   1.218   3.611  0.00  0.00     0.120 A 
ATOM      4  N2  <0> d           0.178   0.661   4.778  0.00  0.00    -0.244 NA
ATOM      5  C9  <0> d          -0.723  -0.299   4.909  0.00  0.00     0.123 A 
ATOM      6  C10 <0> d          -1.439  -0.757   3.808  0.00  0.00     0.067 A 
ENDROOT
BRANCH   1   7
ATOM      7  C5  <0> d          -1.918  -0.655   1.354  0.00  0.00     0.254 C 
ATOM      8  N1  <0> d          -1.294  -0.697   0.160  0.00  0.00    -0.346 N 
ATOM      9  O2  <0> d          -3.081  -0.993   1.444  0.00  0.00    -0.267 OA
BRANCH   8  10
ATOM     10  C2  <0> d           0.126  -0.350   0.062  0.00  0.00     0.121 C 
ATOM     11  C1  <0> d           0.265   1.089  -0.440  0.00  0.00     0.026 C 
ENDBRANCH   8  10
BRANCH   8  12
ATOM     12  C3  <0> d          -2.037  -1.090  -1.040  0.00  0.00     0.152 C 
BRANCH  12  13
ATOM     13  C4  <0> d          -1.942  -2.606  -1.225  0.00  0.00     0.184 C 
BRANCH  13  14
ATOM     14  O1  <0> d          -2.603  -3.260  -0.140  0.00  0.00    -0.399 OA
ATOM     15  H10 <0> d          -2.583  -4.226  -0.192  0.00  0.00     0.209 HD
ENDBRANCH  13  14
ENDBRANCH  12  13
ENDBRANCH   8  12
ENDBRANCH   1   7
BRANCH   5  16
ATOM     16  N3  <0> d          -0.960  -0.852   6.162  0.00  0.00    -0.379 N 
ATOM     17  C11 <0> d          -1.956  -1.915   6.317  0.00  0.00     0.147 C 
ATOM     18  H14 <0> d          -0.466  -0.534   6.934  0.00  0.00     0.160 HD
ENDBRANCH   5  16
TORSDOF 6
