REMARK  4 active torsions:
REMARK  status: ('A' for Active; 'I' for Inactive)
REMARK    1  A    between atoms: C5_5  and  C7_7 
REMARK       I    between atoms: C7_7  and  N1_9 
REMARK    2  A    between atoms: N1_9  and  C8_10 
REMARK    3  A    between atoms: N2_12  and  C9_13 
REMARK    4  A    between atoms: C12_16  and  O2_19 
ROOT
ATOM      1  C8  <0> d           0.076  -4.182  -0.285  0.00  0.00     0.179 C 
ATOM      2  S1  <0> d           1.550  -4.983  -0.629  0.00  0.00    -0.040 SA
ATOM      3  N2  <0> d          -1.033  -4.899  -0.016  0.00  0.00    -0.333 N 
ATOM      4  H6  <0> d          -1.847  -4.447   0.258  0.00  0.00     0.168 HD
ENDROOT
BRANCH   1   5
ATOM      5  N1  <0> d           0.025  -2.835  -0.284  0.00  0.00    -0.299 N 
ATOM      6  C7  <0> d           1.135  -2.119  -0.554  0.00  0.00     0.259 C 
ATOM      7  O1  <0> d           2.181  -2.687  -0.798  0.00  0.00    -0.267 OA
ATOM      8  H5  <0> d          -0.810  -2.382  -0.089  0.00  0.00     0.171 HD
BRANCH   6   9
ATOM      9  C5  <0> d           1.079  -0.643  -0.552  0.00  0.00     0.049 A 
ATOM     10  C4  <0> d           2.227   0.103  -0.831  0.00  0.00     0.026 A 
ATOM     11  C3  <0> d           2.167   1.483  -0.829  0.00  0.00     0.020 A 
ATOM     12 Br1  <0> d           3.858  -0.774  -1.212  0.00  0.00    -0.050 Br
ATOM     13  C2  <0> d           0.974   2.125  -0.551  0.00  0.00     0.001 A 
ATOM     14  C1  <0> d          -0.167   1.392  -0.275  0.00  0.00     0.001 A 
ATOM     15  C6  <0> d          -0.122   0.014  -0.273  0.00  0.00     0.018 A 
ENDBRANCH   6   9
ENDBRANCH   1   5
BRANCH   3  16
ATOM     16  C9  <0> d          -1.010  -6.295  -0.130  0.00  0.00     0.034 A 
ATOM     17  C14 <0> d          -0.365  -6.893  -1.204  0.00  0.00     0.032 A 
ATOM     18  C13 <0> d          -0.338  -8.269  -1.313  0.00  0.00     0.039 A 
ATOM     19  C12 <0> d          -0.966  -9.054  -0.356  0.00  0.00     0.065 A 
ATOM     20  C11 <0> d          -1.616  -8.456   0.714  0.00  0.00     0.039 A 
ATOM     21  C10 <0> d          -1.638  -7.080   0.828  0.00  0.00     0.032 A 
BRANCH  19  22
ATOM     22  O2  <0> d          -0.944 -10.409  -0.467  0.00  0.00    -0.361 OA
ATOM     23  H11 <0> d          -1.685 -10.774  -0.968  0.00  0.00     0.217 HD
ENDBRANCH  19  22
ENDBRANCH   3  16
TORSDOF 4
