REMARK  1 active torsions:
REMARK  status: ('A' for Active; 'I' for Inactive)
REMARK    1  A    between atoms: C6_6  and  C9_13 
ROOT
ATOM      1  C1  <0> d           4.551  -0.145  -5.309  0.00  0.00     0.011 C 
ATOM      2  C2  <0> d           4.221   0.127  -3.840  0.00  0.00    -0.006 C 
ATOM      3  C3  <0> d           3.121  -0.828  -3.373  0.00  0.00     0.063 C 
ATOM      4  C4  <0> d           2.768  -0.531  -1.935  0.00  0.00     0.039 C 
ATOM      5  C5  <0> d           2.856   0.724  -1.444  0.00  0.00     0.042 C 
ATOM      6  C6  <0> d           2.485   1.057  -0.016  0.00  0.00     0.219 C 
ATOM      7  N1  <0> d           2.366  -0.166   0.767  0.00  0.00    -0.083 N 
ATOM      8  C7  <0> d           2.299  -1.403   0.214  0.00  0.00     0.725 A 
ATOM      9  N2  <0> d           2.190  -2.271   1.182  0.00  0.00    -0.054 NA
ATOM     10  C8  <0> d           2.189  -1.634   2.357  0.00  0.00     0.275 A 
ATOM     11  N3  <0> d           2.296  -0.345   2.148  0.00  0.00    -0.149 NA
ATOM     12  N4  <0> d           2.351  -1.585  -1.158  0.00  0.00    -0.191 N 
ATOM     13  C14 <0> d           3.305   1.784  -2.253  0.00  0.00     0.160 C 
ATOM     14  O1  <0> d           3.365   2.904  -1.784  0.00  0.00    -0.293 OA
ATOM     15  C15 <0> d           3.712   1.563  -3.683  0.00  0.00     0.088 C 
ATOM     16  H9  <0> d           2.101  -2.433  -1.558  0.00  0.00     0.184 HD
ENDROOT
BRANCH   6  17
ATOM     17  C9  <0> d           1.170   1.792   0.001  0.00  0.00     0.064 A 
ATOM     18  N5  <0> d           1.160   3.110   0.007  0.00  0.00    -0.263 NA
ATOM     19  C13 <0> d           0.033   3.795   0.022  0.00  0.00     0.117 A 
ATOM     20  C12 <0> d          -1.188   3.148   0.031  0.00  0.00     0.019 A 
ATOM     21  C11 <0> d          -1.217   1.761   0.017  0.00  0.00     0.003 A 
ATOM     22  C10 <0> d          -0.013   1.076   0.008  0.00  0.00     0.030 A 
ENDBRANCH   6  17
TORSDOF 1
