REMARK  3 active torsions:
REMARK  status: ('A' for Active; 'I' for Inactive)
REMARK    1  A    between atoms: C2_2  and  C3_3 
REMARK    2  A    between atoms: C10_12  and  C11_13 
REMARK    3  A    between atoms: N3_20  and  C16_23 
ROOT
ATOM      1  C11 <0> d           2.483   3.832   0.544  0.00  0.00     0.036 C 
ATOM      2  C12 <0> d           1.269   3.161   0.608  0.00  0.00     0.101 A 
ATOM      3  C13 <0> d           1.140   1.761   0.166  0.00  0.00     0.263 A 
ATOM      4  O1  <0> d           2.100   1.152  -0.269  0.00  0.00    -0.267 OA
ATOM      5  N2  <0> d          -0.070   1.172   0.257  0.00  0.00    -0.299 N 
ATOM      6  C14 <0> d          -1.136   1.833   0.730  0.00  0.00     0.188 A 
ATOM      7  S1  <0> d          -2.635   1.007   0.802  0.00  0.00    -0.040 SA
ATOM      8  N3  <0> d          -1.091   3.103   1.154  0.00  0.00    -0.254 N 
ATOM      9  C15 <0> d           0.054   3.817   1.121  0.00  0.00     0.270 A 
ATOM     10  O2  <0> d           0.081   4.971   1.504  0.00  0.00    -0.266 OA
ATOM     11  H12 <0> d          -0.172   0.251  -0.030  0.00  0.00     0.171 HD
ENDROOT
BRANCH   1  12
ATOM     12  C10 <0> d           2.529   5.225   0.754  0.00  0.00    -0.007 A 
ATOM     13  C7  <0> d           3.536   5.973   1.535  0.00  0.00     0.003 A 
ATOM     14  C6  <0> d           4.673   5.605   2.247  0.00  0.00     0.014 A 
ATOM     15  C8  <0> d           3.163   7.323   1.449  0.00  0.00     0.049 A 
ATOM     16  C5  <0> d           5.426   6.573   2.877  0.00  0.00     0.002 A 
ATOM     17  C4  <0> d           5.056   7.907   2.799  0.00  0.00     0.009 A 
ATOM     18  C3  <0> d           3.935   8.285   2.092  0.00  0.00    -0.031 A 
ATOM     19  N1  <0> d           2.015   7.394   0.684  0.00  0.00    -0.364 N 
ATOM     20  H1  <0> d           1.544   8.215   0.472  0.00  0.00     0.165 HD
ATOM     21  C9  <0> d           1.638   6.169   0.274  0.00  0.00     0.100 A 
BRANCH  18  22
ATOM     22  C2  <0> d           3.546   9.739   2.016  0.00  0.00     0.036 C 
ATOM     23  C1  <0> d           2.516  10.048   3.104  0.00  0.00     0.010 C 
ENDBRANCH  18  22
ENDBRANCH   1  12
BRANCH   8  24
ATOM     24  C16 <0> d          -2.260   3.707   1.637  0.00  0.00     0.046 A 
ATOM     25  C21 <0> d          -2.994   4.553   0.818  0.00  0.00     0.055 A 
ATOM     26  C20 <0> d          -4.150   5.143   1.295  0.00  0.00     0.058 A 
ATOM     27  C19 <0> d          -4.569   4.897   2.592  0.00  0.00     0.055 A 
ATOM     28 Cl1  <0> d          -5.074   6.196   0.271  0.00  0.00    -0.082 Cl
ATOM     29  C18 <0> d          -3.834   4.057   3.411  0.00  0.00     0.028 A 
ATOM     30 Cl2  <0> d          -6.017   5.643   3.191  0.00  0.00    -0.083 Cl
ATOM     31  C17 <0> d          -2.682   3.462   2.937  0.00  0.00     0.032 A 
ENDBRANCH   8  24
TORSDOF 3
