REMARK  4 active torsions:
REMARK  status: ('A' for Active; 'I' for Inactive)
REMARK    1  A    between atoms: C3_3  and  C6_8 
REMARK    2  A    between atoms: C6_8  and  N2_9 
REMARK    3  A    between atoms: N2_9  and  S1_10 
REMARK    4  A    between atoms: S1_10  and  C7_13 
ROOT
ATOM      1  C7  <0> d           0.930   1.479  -5.195  0.00  0.00     0.118 A 
ATOM      2  C8  <0> d           1.718   2.518  -5.656  0.00  0.00     0.037 A 
ATOM      3  C9  <0> d           1.133   3.696  -6.076  0.00  0.00    -0.029 A 
ATOM      4  C10 <0> d          -0.248   3.838  -6.037  0.00  0.00     0.044 A 
ATOM      5  C11 <0> d          -1.038   2.796  -5.574  0.00  0.00     0.074 A 
ATOM      6  C12 <0> d          -0.447   1.615  -5.159  0.00  0.00     0.141 A 
ATOM      7  F1  <0> d          -1.215   0.596  -4.713  0.00  0.00    -0.204 F 
ATOM      8  N3  <0> d          -0.839   5.032  -6.464  0.00  0.00    -0.327 N 
ATOM      9  C13 <0> d          -0.157   5.890  -7.244  0.00  0.00     0.222 C 
ATOM     10  O4  <0> d          -0.679   6.927  -7.594  0.00  0.00    -0.273 OA
ATOM     11  C14 <0> d           1.247   5.577  -7.687  0.00  0.00     0.108 C 
ATOM     12  C15 <0> d           1.989   4.829  -6.579  0.00  0.00     0.050 C 
ATOM     13  H12 <0> d          -1.747   5.242  -6.196  0.00  0.00     0.169 HD
ENDROOT
BRANCH   1  14
ATOM     14  S1  <0> d           1.681  -0.023  -4.660  0.00  0.00     0.262 S 
ATOM     15  O2  <0> d           3.084   0.155  -4.791  0.00  0.00    -0.200 OA
ATOM     16  O3  <0> d           0.983  -1.078  -5.308  0.00  0.00    -0.200 OA
BRANCH  14  17
ATOM     17  N2  <0> d           1.371  -0.174  -3.041  0.00  0.00    -0.311 N 
ATOM     18  H9  <0> d           2.102  -0.149  -2.403  0.00  0.00     0.172 HD
BRANCH  17  19
ATOM     19  C6  <0> d          -0.005  -0.348  -2.571  0.00  0.00     0.175 C 
BRANCH  19  20
ATOM     20  C3  <0> d           0.008  -0.824  -1.141  0.00  0.00     0.018 A 
ATOM     21  C2  <0> d           0.002  -0.004   0.002  0.00  0.00     0.068 A 
ATOM     22  C1  <0> d          -0.018   1.503   0.010  0.00  0.00     0.073 C 
ATOM     23  N1  <0> d           0.023  -0.775   1.052  0.00  0.00    -0.133 NA
ATOM     24  O1  <0> d           0.034  -2.119   0.606  0.00  0.00    -0.217 OA
ATOM     25  C4  <0> d           0.027  -2.108  -0.735  0.00  0.00     0.085 A 
ATOM     26  C5  <0> d           0.039  -3.320  -1.631  0.00  0.00     0.079 C 
ENDBRANCH  19  20
ENDBRANCH  17  19
ENDBRANCH  14  17
ENDBRANCH   1  14
TORSDOF 4
