REMARK  4 active torsions:
REMARK  status: ('A' for Active; 'I' for Inactive)
REMARK    1  A    between atoms: C2_2  and  C3_3 
REMARK    2  A    between atoms: C2_2  and  N4_18 
REMARK       I    between atoms: C3_3  and  N1_5 
REMARK    3  A    between atoms: N1_5  and  C4_6 
REMARK    4  A    between atoms: C9_11  and  N2_12 
ROOT
ATOM      1  C4  <0> d           2.665  -0.536   2.610  0.00  0.00     0.065 A 
ATOM      2  C5  <0> d           1.926  -0.778   3.759  0.00  0.00     0.051 A 
ATOM      3  C6  <0> d           2.566  -1.149   4.926  0.00  0.00     0.013 A 
ATOM      4  C7  <0> d           3.943  -1.281   4.953  0.00  0.00     0.021 A 
ATOM      5  C8  <0> d           4.686  -1.043   3.813  0.00  0.00     0.035 A 
ATOM      6  C9  <0> d           4.052  -0.675   2.635  0.00  0.00     0.084 A 
ATOM      7 Br1  <0> d           1.557  -1.477   6.492  0.00  0.00    -0.051 Br
ENDROOT
BRANCH   1   8
ATOM      8  N1  <0> d           2.019  -0.160   1.426  0.00  0.00    -0.323 N 
ATOM      9  C3  <0> d           0.732  -0.504   1.222  0.00  0.00     0.245 C 
ATOM     10  O1  <0> d           0.163  -1.223   2.016  0.00  0.00    -0.271 OA
ATOM     11  H5  <0> d           2.498   0.348   0.753  0.00  0.00     0.169 HD
BRANCH   9  12
ATOM     12  C2  <0> d          -0.001   0.005   0.007  0.00  0.00     0.178 C 
ATOM     13  C1  <0> d          -0.026   1.534   0.030  0.00  0.00     0.043 C 
BRANCH  12  14
ATOM     14  N4  <0> d          -1.374  -0.506   0.015  0.00  0.00    -0.338 N 
ATOM     15  C15 <0> d          -1.946  -1.281  -0.932  0.00  0.00     0.183 A 
ATOM     16  N5  <0> d          -3.175  -1.536  -0.577  0.00  0.00    -0.361 N 
ATOM     17  C14 <0> d          -3.432  -0.932   0.593  0.00  0.00     0.106 A 
ATOM     18  H15 <0> d          -3.805  -2.074  -1.081  0.00  0.00     0.166 HD
ATOM     19  C13 <0> d          -2.318  -0.283   0.980  0.00  0.00     0.109 A 
ENDBRANCH  12  14
ENDBRANCH   9  12
ENDBRANCH   1   8
BRANCH   6  20
ATOM     20  N2  <0> d           4.804  -0.439   1.476  0.00  0.00    -0.243 N 
ATOM     21  N3  <0> d           4.308   0.034   0.254  0.00  0.00    -0.180 NA
ATOM     22  C12 <0> d           5.309   0.129  -0.585  0.00  0.00     0.140 A 
ATOM     23  C11 <0> d           6.471  -0.289   0.072  0.00  0.00     0.040 A 
ATOM     24  C10 <0> d           6.135  -0.632   1.337  0.00  0.00     0.120 A 
ENDBRANCH   6  20
TORSDOF 4
