REMARK  6 active torsions:
REMARK  status: ('A' for Active; 'I' for Inactive)
REMARK    1  A    between atoms: C7_7  and  C11_13 
REMARK    2  A    between atoms: C11_13  and  C12_14 
REMARK    3  A    between atoms: C12_14  and  C13_15 
REMARK       I    between atoms: C13_15  and  N2_17 
REMARK    4  A    between atoms: N2_17  and  C14_18 
REMARK    5  A    between atoms: C14_18  and  C15_19 
REMARK    6  A    between atoms: C15_19  and  N3_20 
ROOT
ATOM      1  C13 <0> d           1.560  -8.377   1.372  0.00  0.00     0.217 C 
ATOM      2  O2  <0> d           0.522  -8.999   1.302  0.00  0.00    -0.274 OA
ATOM      3  N2  <0> d           2.732  -9.032   1.486  0.00  0.00    -0.359 N 
ATOM      4  H12 <0> d           3.563  -8.534   1.542  0.00  0.00     0.162 HD
ENDROOT
BRANCH   1   5
ATOM      5  C12 <0> d           1.539  -6.870   1.332  0.00  0.00     0.107 C 
BRANCH   5   6
ATOM      6  C11 <0> d           0.095  -6.383   1.200  0.00  0.00     0.053 C 
BRANCH   6   7
ATOM      7  C7  <0> d           0.074  -4.877   1.159  0.00  0.00     0.011 A 
ATOM      8  C6  <0> d           0.059  -4.234  -0.034  0.00  0.00     0.026 A 
ATOM      9  C5  <0> d           0.039  -2.769  -0.039  0.00  0.00    -0.009 A 
ATOM     10  C4  <0> d           0.024  -2.050  -1.238  0.00  0.00     0.014 A 
ATOM     11  C9  <0> d           0.036  -2.083   1.190  0.00  0.00     0.045 A 
ATOM     12  C3  <0> d           0.006  -0.684  -1.208  0.00  0.00     0.007 A 
ATOM     13  C2  <0> d           0.002  -0.004   0.002  0.00  0.00    -0.060 A 
ATOM     14  C1  <0> d          -0.018   1.503   0.010  0.00  0.00     0.048 C 
ATOM     15  C10 <0> d           0.023  -0.692   1.196  0.00  0.00     0.037 A 
ATOM     16  N1  <0> d           0.051  -2.797   2.370  0.00  0.00    -0.322 N 
ATOM     17  C8  <0> d           0.070  -4.142   2.364  0.00  0.00     0.252 A 
ATOM     18  H27 <0> d           0.048  -2.323   3.216  0.00  0.00     0.169 HD
ATOM     19  O1  <0> d           0.083  -4.740   3.426  0.00  0.00    -0.268 OA
ENDBRANCH   6   7
ENDBRANCH   5   6
ENDBRANCH   1   5
BRANCH   3  20
ATOM     20  C14 <0> d           2.752 -10.496   1.525  0.00  0.00     0.150 C 
BRANCH  20  21
ATOM     21  C15 <0> d           4.197 -10.983   1.657  0.00  0.00     0.254 C 
BRANCH  21  22
ATOM     22  N3  <0> d           4.217 -12.451   1.696  0.00  0.00    -0.065 N 
ATOM     23  C24 <0> d           3.746 -12.982   0.414  0.00  0.00     0.274 C 
ATOM     24  C23 <0> d           3.899 -14.480   0.372  0.00  0.00    -0.026 A 
ATOM     25  C18 <0> d           4.743 -15.146   1.235  0.00  0.00    -0.049 A 
ATOM     26  C22 <0> d           3.170 -15.195  -0.566  0.00  0.00     0.009 A 
ATOM     27  C17 <0> d           5.549 -14.408   2.273  0.00  0.00     0.067 C 
ATOM     28  C19 <0> d           4.862 -16.525   1.158  0.00  0.00     0.007 A 
ATOM     29  C16 <0> d           5.592 -12.918   1.931  0.00  0.00     0.240 C 
ATOM     30  C20 <0> d           4.138 -17.236   0.222  0.00  0.00     0.001 A 
ATOM     31  C21 <0> d           3.289 -16.569  -0.642  0.00  0.00     0.001 A 
ATOM     32  H28 <0> d           3.617 -12.777   2.438  0.00  0.00     0.280 HD
ENDBRANCH  21  22
ENDBRANCH  20  21
ENDBRANCH   3  20
TORSDOF 6
