REMARK  7 active torsions:
REMARK  status: ('A' for Active; 'I' for Inactive)
REMARK    1  A    between atoms: C2_2  and  C3_3 
REMARK    2  A    between atoms: C2_2  and  N1_5 
REMARK    3  A    between atoms: C3_3  and  O1_4 
REMARK       I    between atoms: N1_5  and  C4_6 
REMARK    4  A    between atoms: C4_6  and  C5_8 
REMARK    5  A    between atoms: C5_8  and  O3_9 
REMARK    6  A    between atoms: O3_9  and  C6_10 
REMARK    7  A    between atoms: C9_13  and  C12_16 
ROOT
ATOM      1  C6  <0> d          -2.079  -3.019   0.006  0.00  0.00     0.069 A 
ATOM      2  C7  <0> d          -3.368  -2.504   0.026  0.00  0.00     0.037 A 
ATOM      3  C8  <0> d          -4.452  -3.356   0.026  0.00  0.00     0.015 A 
ATOM      4  C9  <0> d          -4.253  -4.736   0.018  0.00  0.00    -0.020 A 
ATOM      5  C10 <0> d          -2.956  -5.250   0.003  0.00  0.00     0.015 A 
ATOM      6  C11 <0> d          -1.876  -4.392  -0.004  0.00  0.00     0.037 A 
ENDROOT
BRANCH   1   7
ATOM      7  O3  <0> d          -1.012  -2.176   0.000  0.00  0.00    -0.342 OA
BRANCH   7   8
ATOM      8  C5  <0> d          -1.293  -0.775   0.010  0.00  0.00     0.278 C 
BRANCH   8   9
ATOM      9  C4  <0> d           0.002  -0.004   0.002  0.00  0.00     0.242 C 
ATOM     10  N1  <0> d          -0.016   1.344   0.009  0.00  0.00    -0.353 N 
ATOM     11  H8  <0> d          -0.863   1.817   0.016  0.00  0.00     0.163 HD
ATOM     12  O2  <0> d           1.060  -0.596  -0.011  0.00  0.00    -0.271 OA
BRANCH  10  13
ATOM     13  C2  <0> d           1.242   2.093   0.001  0.00  0.00     0.104 C 
ATOM     14  C1  <0> d           1.731   2.254  -1.440  0.00  0.00     0.034 C 
BRANCH  13  15
ATOM     15  C3  <0> d           1.018   3.474   0.621  0.00  0.00     0.189 C 
BRANCH  15  16
ATOM     16  O1  <0> d           0.124   4.226  -0.203  0.00  0.00    -0.399 OA
ATOM     17  H7  <0> d          -0.064   5.114   0.129  0.00  0.00     0.209 HD
ENDBRANCH  15  16
ENDBRANCH  13  15
ENDBRANCH  10  13
ENDBRANCH   8   9
ENDBRANCH   7   8
ENDBRANCH   1   7
BRANCH   4  18
ATOM     18  C12 <0> d          -5.415  -5.655   0.024  0.00  0.00     0.051 A 
ATOM     19  C20 <0> d          -5.508  -6.744  -0.953  0.00  0.00     0.299 A 
ATOM     20  O4  <0> d          -6.555  -7.583  -0.949  0.00  0.00    -0.274 OA
ATOM     21  O5  <0> d          -4.622  -6.892  -1.774  0.00  0.00    -0.259 OA
ATOM     22  C19 <0> d          -7.565  -7.456  -0.062  0.00  0.00     0.089 A 
ATOM     23  C14 <0> d          -7.547  -6.431   0.900  0.00  0.00    -0.001 A 
ATOM     24  C18 <0> d          -8.637  -8.340  -0.092  0.00  0.00     0.038 A 
ATOM     25  C13 <0> d          -6.422  -5.495   0.938  0.00  0.00     0.032 A 
ATOM     26  C15 <0> d          -8.602  -6.312   1.813  0.00  0.00     0.014 A 
ATOM     27  C16 <0> d          -9.645  -7.193   1.764  0.00  0.00     0.001 A 
ATOM     28  C17 <0> d          -9.666  -8.206   0.815  0.00  0.00     0.003 A 
ENDBRANCH   4  18
TORSDOF 7
