REMARK  4 active torsions:
REMARK  status: ('A' for Active; 'I' for Inactive)
REMARK    1  A    between atoms: C2_2  and  C4_4 
REMARK    2  A    between atoms: C4_4  and  N1_5 
REMARK       I    between atoms: N1_5  and  C5_6 
REMARK    3  A    between atoms: C5_6  and  C6_8 
REMARK       I    between atoms: N2_10  and  C14_18 
REMARK    4  A    between atoms: C14_18  and  C15_20 
ROOT
ATOM      1  C6  <0> d          -3.737  -1.664  -3.409  0.00  0.00     0.106 C 
ATOM      2  C7  <0> d          -4.068  -0.164  -3.574  0.00  0.00     0.141 C 
ATOM      3  N2  <0> d          -3.807   0.122  -5.005  0.00  0.00    -0.346 N 
ATOM      4  C8  <0> d          -4.306  -1.079  -5.717  0.00  0.00     0.136 C 
ATOM      5  C9  <0> d          -3.898  -2.262  -4.817  0.00  0.00    -0.007 C 
ATOM      6  C10 <0> d          -4.990  -3.327  -4.816  0.00  0.00     0.039 C 
ATOM      7  C11 <0> d          -5.091  -3.948  -6.213  0.00  0.00     0.233 C 
ATOM      8  N3  <0> d          -3.801  -4.541  -6.582  0.00  0.00    -0.075 N 
ATOM      9  C12 <0> d          -2.775  -3.494  -6.670  0.00  0.00     0.233 C 
ATOM     10  C13 <0> d          -2.576  -2.855  -5.293  0.00  0.00     0.039 C 
ATOM     11  C14 <0> d          -3.244   1.224  -5.538  0.00  0.00     0.253 C 
ATOM     12  O2  <0> d          -2.768   2.075  -4.812  0.00  0.00    -0.267 OA
ATOM     13  H18 <0> d          -3.530  -5.217  -5.882  0.00  0.00     0.277 HD
ATOM     14  H27 <0> d          -3.887  -5.002  -7.475  0.00  0.00     0.277 HD
ENDROOT
BRANCH  11  15
ATOM     15  C15 <0> d          -3.205   1.398  -7.006  0.00  0.00     0.033 A 
ATOM     16  C20 <0> d          -2.284   2.273  -7.583  0.00  0.00     0.036 A 
ATOM     17  C19 <0> d          -2.248   2.425  -8.955  0.00  0.00     0.011 A 
ATOM     18  C18 <0> d          -3.132   1.722  -9.756  0.00  0.00     0.019 A 
ATOM     19 Br1  <0> d          -0.995   3.603  -9.741  0.00  0.00    -0.051 Br
ATOM     20  C17 <0> d          -4.052   0.858  -9.188  0.00  0.00     0.002 A 
ATOM     21  C16 <0> d          -4.093   0.692  -7.819  0.00  0.00     0.017 A 
ENDBRANCH  11  15
BRANCH   1  22
ATOM     22  C5  <0> d          -2.320  -1.838  -2.924  0.00  0.00     0.224 C 
ATOM     23  N1  <0> d          -1.965  -2.962  -2.270  0.00  0.00    -0.357 N 
ATOM     24  H9  <0> d          -2.622  -3.658  -2.111  0.00  0.00     0.162 HD
ATOM     25  O1  <0> d          -1.500  -0.967  -3.123  0.00  0.00    -0.273 OA
BRANCH  23  26
ATOM     26  C4  <0> d          -0.589  -3.131  -1.798  0.00  0.00     0.155 C 
BRANCH  26  27
ATOM     27  C2  <0> d          -0.455  -4.462  -1.104  0.00  0.00    -0.075 C 
ATOM     28  C1  <0> d          -0.817  -4.591   0.353  0.00  0.00     0.044 C 
ATOM     29  C3  <0> d          -0.025  -5.506  -1.768  0.00  0.00     0.015 C 
ENDBRANCH  26  27
ENDBRANCH  23  26
ENDBRANCH   1  22
TORSDOF 4
