REMARK  8 active torsions:
REMARK  status: ('A' for Active; 'I' for Inactive)
REMARK    1  A    between atoms: C4_4  and  C7_7 
REMARK    2  A    between atoms: C7_7  and  C8_8 
REMARK    3  A    between atoms: C7_7  and  N4_23 
REMARK    4  A    between atoms: C8_8  and  N1_9 
REMARK    5  A    between atoms: N1_9  and  C9_10 
REMARK    6  A    between atoms: C12_13  and  N3_20 
REMARK    7  A    between atoms: C14_15  and  S1_16 
REMARK    8  A    between atoms: S1_16  and  N2_19 
ROOT
ATOM      1  N1  <0> d           4.190   0.016   2.239  0.00  0.00    -0.386 N 
ATOM      2  H9  <0> d           4.211   0.904   1.849  0.00  0.00     0.159 HD
ENDROOT
BRANCH   1   3
ATOM      3  C8  <0> d           3.859  -1.142   1.405  0.00  0.00     0.158 C 
BRANCH   3   4
ATOM      4  C7  <0> d           3.488  -0.668  -0.002  0.00  0.00     0.238 C 
BRANCH   4   5
ATOM      5  C4  <0> d           2.219   0.141   0.059  0.00  0.00    -0.026 A 
ATOM      6  C3  <0> d           2.278   1.522   0.044  0.00  0.00     0.009 A 
ATOM      7  C2  <0> d           1.114   2.265   0.099  0.00  0.00     0.001 A 
ATOM      8  C1  <0> d          -0.111   1.627   0.168  0.00  0.00     0.000 A 
ATOM      9  C6  <0> d          -0.170   0.245   0.181  0.00  0.00     0.001 A 
ATOM     10  C5  <0> d           0.995  -0.497   0.128  0.00  0.00     0.009 A 
ENDBRANCH   4   5
BRANCH   4  11
ATOM     11  N4  <0> d           3.285  -1.833  -0.874  0.00  0.00    -0.061 N 
ATOM     12  C18 <0> d           4.543  -2.600  -1.002  0.00  0.00     0.236 C 
ATOM     13  C17 <0> d           4.595  -3.146  -2.441  0.00  0.00     0.029 C 
ATOM     14  C16 <0> d           3.311  -2.616  -3.120  0.00  0.00     0.029 C 
ATOM     15  C15 <0> d           2.939  -1.390  -2.249  0.00  0.00     0.236 C 
ATOM     16  H23 <0> d           2.555  -2.422  -0.503  0.00  0.00     0.280 HD
ENDBRANCH   4  11
ENDBRANCH   3   4
ENDBRANCH   1   3
BRANCH   1  17
ATOM     17  C9  <0> d           4.477  -0.159   3.594  0.00  0.00     0.051 A 
ATOM     18  C14 <0> d           4.791   0.937   4.386  0.00  0.00     0.107 A 
ATOM     19  C13 <0> d           5.069   0.761   5.728  0.00  0.00     0.063 A 
ATOM     20  C12 <0> d           5.044  -0.506   6.280  0.00  0.00     0.104 A 
ATOM     21  C11 <0> d           4.737  -1.601   5.493  0.00  0.00     0.038 A 
ATOM     22  C10 <0> d           4.453  -1.431   4.152  0.00  0.00     0.033 A 
BRANCH  18  23
ATOM     23  S1  <0> d           4.829   2.552   3.682  0.00  0.00     0.259 S 
ATOM     24  O1  <0> d           3.622   2.704   2.948  0.00  0.00    -0.201 OA
ATOM     25  O2  <0> d           5.204   3.441   4.725  0.00  0.00    -0.201 OA
BRANCH  23  26
ATOM     26  N2  <0> d           6.061   2.575   2.576  0.00  0.00    -0.324 N 
ATOM     27  H13 <0> d           6.005   3.152   1.798  0.00  0.00     0.169 HD
ATOM     28  H14 <0> d           6.840   2.011   2.706  0.00  0.00     0.169 HD
ENDBRANCH  23  26
ENDBRANCH  18  23
BRANCH  20  29
ATOM     29  N3  <0> d           5.348  -0.691   7.717  0.00  0.00    -0.116 N 
ATOM     30  O3  <0> d           5.327  -1.799   8.201  0.00  0.00    -0.532 OA
ATOM     31  O4  <0> d           5.617   0.265   8.406  0.00  0.00    -0.532 OA
ENDBRANCH  20  29
ENDBRANCH   1  17
TORSDOF 8
