REMARK  4 active torsions:
REMARK  status: ('A' for Active; 'I' for Inactive)
REMARK       I    between atoms: C2_2  and  N1_4 
REMARK    1  A    between atoms: N2_7  and  C7_10 
REMARK    2  A    between atoms: C7_10  and  C8_11 
REMARK    3  A    between atoms: C8_11  and  C9_12 
REMARK    4  A    between atoms: C12_16  and  N5_21 
ROOT
ATOM      1  C9  <0> d          -2.102  -4.540  -5.866  0.00  0.00     0.028 A 
ATOM      2  C10 <0> d          -3.333  -5.061  -5.665  0.00  0.00     0.123 A 
ATOM      3  N3  <0> d          -3.807  -5.461  -6.885  0.00  0.00    -0.315 N 
ATOM      4  C11 <0> d          -4.980  -6.046  -7.273  0.00  0.00     0.127 A 
ATOM      5  C12 <0> d          -5.201  -6.346  -8.576  0.00  0.00     0.042 A 
ATOM      6  C13 <0> d          -4.219  -6.057  -9.545  0.00  0.00     0.034 A 
ATOM      7  C14 <0> d          -3.051  -5.475  -9.166  0.00  0.00     0.051 A 
ATOM      8  C15 <0> d          -2.837  -5.169  -7.807  0.00  0.00     0.111 A 
ATOM      9  N4  <0> d          -1.819  -4.608  -7.168  0.00  0.00    -0.344 N 
ATOM     10  H22 <0> d          -0.997  -4.299  -7.582  0.00  0.00     0.167 HD
ENDROOT
BRANCH   1  11
ATOM     11  C8  <0> d          -1.203  -3.972  -4.799  0.00  0.00     0.088 C 
BRANCH  11  12
ATOM     12  C7  <0> d          -1.572  -2.509  -4.547  0.00  0.00     0.278 C 
BRANCH  12  13
ATOM     13  N2  <0> d          -0.695  -1.955  -3.506  0.00  0.00     0.091 N 
ATOM     14  C4  <0> d          -0.856  -0.498  -3.403  0.00  0.00     0.292 C 
ATOM     15  C3  <0> d           0.198   0.062  -2.442  0.00  0.00     0.156 C 
ATOM     16  N1  <0> d           0.102  -0.666  -1.167  0.00  0.00    -0.349 N 
ATOM     17  C2  <0> d           0.002  -0.004   0.002  0.00  0.00     0.215 C 
ATOM     18  C6  <0> d           0.124  -2.137  -1.203  0.00  0.00     0.156 C 
ATOM     19  C1  <0> d           0.034  -0.764   1.303  0.00  0.00     0.117 C 
ATOM     20  O1  <0> d          -0.113   1.203   0.007  0.00  0.00    -0.274 OA
ATOM     21  C5  <0> d          -0.933  -2.610  -2.214  0.00  0.00     0.292 C 
ENDBRANCH  12  13
ENDBRANCH  11  12
ENDBRANCH   1  11
BRANCH   5  22
ATOM     22  N5  <0> d          -6.408  -6.946  -8.960  0.00  0.00    -0.398 N 
ATOM     23  H20 <0> d          -7.084  -7.146  -8.294  0.00  0.00     0.156 HD
ATOM     24  H21 <0> d          -6.567  -7.162  -9.893  0.00  0.00     0.156 HD
ENDBRANCH   5  22
TORSDOF 4
