REMARK  3 active torsions:
REMARK  status: ('A' for Active; 'I' for Inactive)
REMARK    1  A    between atoms: N1_5  and  C10_14 
REMARK    2  A    between atoms: C7_9  and  N2_13 
REMARK    3  A    between atoms: C10_14  and  C11_15 
ROOT
ATOM      1  C1  <0> d          -0.019   1.526   0.010  0.00  0.00     0.050 C 
ATOM      2  C2  <0> d           0.002  -0.004   0.002  0.00  0.00     0.217 C 
ATOM      3  C3  <0> d           0.706  -0.489  -1.239  0.00  0.00     0.254 C 
ATOM      4  O1  <0> d           0.073  -0.718  -2.249  0.00  0.00    -0.270 OA
ATOM      5  N1  <0> d           2.045  -0.669  -1.223  0.00  0.00    -0.308 N 
ATOM      6  C4  <0> d           2.749  -0.430  -0.031  0.00  0.00     0.071 A 
ATOM      7  C5  <0> d           4.126  -0.288  -0.041  0.00  0.00     0.035 A 
ATOM      8  C6  <0> d           4.803  -0.055   1.142  0.00  0.00     0.031 A 
ATOM      9  C7  <0> d           4.105   0.036   2.339  0.00  0.00     0.028 A 
ATOM     10  C8  <0> d           2.723  -0.106   2.351  0.00  0.00     0.068 A 
ATOM     11  C9  <0> d           2.044  -0.338   1.169  0.00  0.00     0.099 A 
ATOM     12  O2  <0> d           0.692  -0.477   1.161  0.00  0.00    -0.335 OA
ENDROOT
BRANCH   5  13
ATOM     13  C10 <0> d           2.752  -1.105  -2.430  0.00  0.00     0.178 C 
BRANCH  13  14
ATOM     14  C11 <0> d           3.180   0.102  -3.225  0.00  0.00     0.002 A 
ATOM     15  S1  <0> d           2.299   0.971  -4.511  0.00  0.00    -0.086 SA
ATOM     16  C14 <0> d           3.527   2.219  -4.859  0.00  0.00     0.051 A 
ATOM     17  C13 <0> d           4.516   1.890  -3.990  0.00  0.00     0.028 A 
ATOM     18 Br1  <0> d           3.469   3.630  -6.117  0.00  0.00    -0.043 Br
ATOM     19  C12 <0> d           4.337   0.804  -3.153  0.00  0.00     0.018 A 
ENDBRANCH  13  14
ENDBRANCH   5  13
BRANCH   9  20
ATOM     20  N2  <0> d           4.793   0.271   3.533  0.00  0.00    -0.399 N 
ATOM     21  H8  <0> d           5.758   0.370   3.525  0.00  0.00     0.156 HD
ATOM     22  H9  <0> d           4.306   0.335   4.370  0.00  0.00     0.156 HD
ENDBRANCH   9  20
TORSDOF 3
