REMARK  4 active torsions:
REMARK  status: ('A' for Active; 'I' for Inactive)
REMARK    1  A    between atoms: C2_2  and  N1_3 
REMARK    2  A    between atoms: C9_12  and  N3_13 
REMARK    3  A    between atoms: C10_14  and  N5_19 
REMARK       I    between atoms: N5_19  and  C14_20 
REMARK    4  A    between atoms: C14_20  and  C15_22 
ROOT
ATOM      1  N3  <0> d           1.230   1.975  -0.645  0.00  0.00    -0.046 N 
ATOM      2  C10 <0> d           2.049   0.979  -0.273  0.00  0.00     0.152 A 
ATOM      3  C11 <0> d           1.334  -0.197  -0.415  0.00  0.00     0.079 A 
ATOM      4  C12 <0> d           0.077   0.191  -0.885  0.00  0.00     0.055 A 
ATOM      5  N4  <0> d           0.090   1.501  -0.998  0.00  0.00    -0.156 NA
ATOM      6  C13 <0> d          -1.078  -0.723  -1.204  0.00  0.00     0.072 C 
ENDROOT
BRANCH   1   7
ATOM      7  C9  <0> d           1.556   3.280  -0.649  0.00  0.00     0.710 A 
ATOM      8  N1  <0> d           2.794   3.771  -0.862  0.00  0.00    -0.179 N 
ATOM      9  C3  <0> d           2.732   5.158  -0.790  0.00  0.00     0.079 A 
ATOM     10  C8  <0> d           1.403   5.491  -0.516  0.00  0.00     0.076 A 
ATOM     11  C4  <0> d           3.681   6.161  -0.928  0.00  0.00     0.032 A 
ATOM     12  C7  <0> d           1.039   6.823  -0.383  0.00  0.00     0.032 A 
ATOM     13  N2  <0> d           0.697   4.297  -0.434  0.00  0.00    -0.187 N 
ATOM     14  C6  <0> d           1.990   7.813  -0.522  0.00  0.00     0.002 A 
ATOM     15  C5  <0> d           3.308   7.483  -0.794  0.00  0.00     0.002 A 
ATOM     16  H1  <0> d          -0.252   4.210  -0.254  0.00  0.00     0.184 HD
BRANCH   8  17
ATOM     17  C2  <0> d           3.997   2.979  -1.126  0.00  0.00     0.143 C 
ATOM     18  C1  <0> d           4.963   3.792  -1.990  0.00  0.00     0.027 C 
ENDBRANCH   8  17
ENDBRANCH   1   7
BRANCH   2  19
ATOM     19  N5  <0> d           3.369   1.106   0.172  0.00  0.00    -0.307 N 
ATOM     20  C14 <0> d           3.626   1.245   1.488  0.00  0.00     0.257 C 
ATOM     21  O1  <0> d           2.719   1.177   2.295  0.00  0.00    -0.267 OA
ATOM     22  H15 <0> d           4.099   1.093  -0.466  0.00  0.00     0.170 HD
BRANCH  20  23
ATOM     23  C15 <0> d           5.010   1.482   1.950  0.00  0.00     0.033 A 
ATOM     24  C20 <0> d           5.284   1.597   3.313  0.00  0.00     0.036 A 
ATOM     25  C19 <0> d           6.579   1.817   3.737  0.00  0.00     0.011 A 
ATOM     26  C18 <0> d           7.604   1.924   2.813  0.00  0.00     0.019 A 
ATOM     27 Br1  <0> d           6.953   1.974   5.584  0.00  0.00    -0.051 Br
ATOM     28  C17 <0> d           7.339   1.809   1.460  0.00  0.00     0.002 A 
ATOM     29  C16 <0> d           6.050   1.585   1.024  0.00  0.00     0.017 A 
ENDBRANCH  20  23
ENDBRANCH   2  19
TORSDOF 4
