REMARK  3 active torsions:
REMARK  status: ('A' for Active; 'I' for Inactive)
REMARK    1  A    between atoms: C6_6  and  N1_7 
REMARK    2  A    between atoms: N1_7  and  S1_8 
REMARK    3  A    between atoms: S1_8  and  C7_11 
ROOT
ATOM      1  N1  <0> d          -1.198  -0.723   0.009  0.00  0.00    -0.281 N 
ATOM      2  H4  <0> d          -1.303  -1.485   0.600  0.00  0.00     0.179 HD
ENDROOT
BRANCH   1   3
ATOM      3  C6  <0> d           0.002  -0.004   0.002  0.00  0.00     0.043 A 
ATOM      4  C1  <0> d          -0.017   1.385   0.010  0.00  0.00     0.032 A 
ATOM      5  C2  <0> d           1.165   2.095   0.002  0.00  0.00     0.032 A 
ATOM      6  C3  <0> d           2.387   1.427  -0.013  0.00  0.00     0.042 A 
ATOM      7  N3  <0> d           3.696   1.919  -0.024  0.00  0.00    -0.326 N 
ATOM      8  C4  <0> d           2.397   0.036  -0.019  0.00  0.00    -0.011 A 
ATOM      9  C20 <0> d           4.610   0.930  -0.035  0.00  0.00     0.235 A 
ATOM     10  H19 <0> d           3.920   2.863  -0.024  0.00  0.00     0.169 HD
ATOM     11  C15 <0> d           3.846  -0.368  -0.031  0.00  0.00     0.070 A 
ATOM     12  O4  <0> d           5.816   1.060  -0.047  0.00  0.00    -0.272 OA
ATOM     13  C19 <0> d           4.197  -1.213   1.196  0.00  0.00     0.024 C 
ATOM     14  C16 <0> d           4.176  -1.205  -1.275  0.00  0.00     0.024 C 
ATOM     15  C18 <0> d           4.731  -2.559   0.658  0.00  0.00     0.002 C 
ATOM     16  C17 <0> d           5.230  -2.226  -0.771  0.00  0.00     0.002 C 
ATOM     17  C5  <0> d           1.219  -0.676  -0.012  0.00  0.00     0.040 A 
ENDBRANCH   1   3
BRANCH   1  18
ATOM     18  S1  <0> d          -2.439  -0.274  -0.991  0.00  0.00     0.263 S 
ATOM     19  O1  <0> d          -3.493  -1.201  -0.773  0.00  0.00    -0.200 OA
ATOM     20  O2  <0> d          -2.609   1.127  -0.822  0.00  0.00    -0.200 OA
BRANCH  18  21
ATOM     21  C7  <0> d          -1.888  -0.518  -2.647  0.00  0.00     0.080 A 
ATOM     22  C12 <0> d          -2.095  -1.733  -3.275  0.00  0.00     0.035 A 
ATOM     23  C11 <0> d          -1.668  -1.919  -4.570  0.00  0.00    -0.021 A 
ATOM     24  C10 <0> d          -1.018  -0.901  -5.257  0.00  0.00     0.041 A 
ATOM     25  C13 <0> d          -1.742  -3.093  -5.519  0.00  0.00     0.144 A 
ATOM     26  C9  <0> d          -0.808   0.318  -4.616  0.00  0.00     0.031 A 
ATOM     27  N2  <0> d          -0.679  -1.327  -6.542  0.00  0.00    -0.326 N 
ATOM     28  C8  <0> d          -1.241   0.503  -3.320  0.00  0.00     0.027 A 
ATOM     29  C14 <0> d          -1.065  -2.592  -6.777  0.00  0.00     0.226 A 
ATOM     30  H10 <0> d          -0.218  -0.773  -7.191  0.00  0.00     0.169 HD
ATOM     31  O3  <0> d          -0.900  -3.217  -7.804  0.00  0.00    -0.273 OA
ENDBRANCH  18  21
ENDBRANCH   1  18
TORSDOF 3
