REMARK  9 active torsions:
REMARK  status: ('A' for Active; 'I' for Inactive)
REMARK    1  A    between atoms: C5_6  and  C6_7 
REMARK    2  A    between atoms: C6_7  and  N1_8 
REMARK    3  A    between atoms: N1_8  and  C8_10 
REMARK    4  A    between atoms: C8_10  and  C10_12 
REMARK       I    between atoms: C10_12  and  N2_14 
REMARK    5  A    between atoms: N2_14  and  C11_15 
REMARK    6  A    between atoms: C11_15  and  C12_16 
REMARK    7  A    between atoms: C12_16  and  C13_17 
REMARK    8  A    between atoms: C16_20  and  S2_23 
REMARK    9  A    between atoms: S2_23  and  N3_26 
ROOT
ATOM      1  C10 <0> d          -2.782   0.582   4.911  0.00  0.00     0.248 C 
ATOM      2  O1  <0> d          -3.669   0.053   4.276  0.00  0.00    -0.271 OA
ATOM      3  N2  <0> d          -3.060   1.182   6.086  0.00  0.00    -0.359 N 
ATOM      4  H15 <0> d          -2.350   1.605   6.594  0.00  0.00     0.162 HD
ENDROOT
BRANCH   3   5
ATOM      5  C11 <0> d          -4.434   1.194   6.595  0.00  0.00     0.127 C 
BRANCH   5   6
ATOM      6  C12 <0> d          -4.474   1.932   7.935  0.00  0.00     0.058 C 
BRANCH   6   7
ATOM      7  C13 <0> d          -5.887   1.944   8.459  0.00  0.00    -0.057 A 
ATOM      8  C18 <0> d          -6.331   0.919   9.273  0.00  0.00     0.009 A 
ATOM      9  C17 <0> d          -7.626   0.933   9.757  0.00  0.00     0.026 A 
ATOM     10  C16 <0> d          -8.479   1.966   9.419  0.00  0.00     0.079 A 
ATOM     11  C15 <0> d          -8.037   2.989   8.601  0.00  0.00     0.026 A 
ATOM     12  C14 <0> d          -6.741   2.977   8.120  0.00  0.00     0.009 A 
BRANCH  10  13
ATOM     13  S2  <0> d         -10.131   1.981  10.033  0.00  0.00     0.256 S 
ATOM     14  O2  <0> d         -10.131   1.198  11.218  0.00  0.00    -0.201 OA
ATOM     15  O3  <0> d         -10.559   3.336  10.016  0.00  0.00    -0.201 OA
BRANCH  13  16
ATOM     16  N3  <0> d         -11.070   1.175   8.932  0.00  0.00    -0.324 N 
ATOM     17  H24 <0> d         -11.859   0.694   9.227  0.00  0.00     0.169 HD
ATOM     18  H25 <0> d         -10.830   1.184   7.992  0.00  0.00     0.169 HD
ENDBRANCH  13  16
ENDBRANCH  10  13
ENDBRANCH   6   7
ENDBRANCH   5   6
ENDBRANCH   3   5
BRANCH   1  19
ATOM     19  C8  <0> d          -1.369   0.570   4.387  0.00  0.00     0.275 C 
ATOM     20  C9  <0> d          -1.119   1.835   3.564  0.00  0.00     0.050 C 
BRANCH  19  21
ATOM     21  N1  <0> d          -1.171  -0.613   3.539  0.00  0.00    -0.058 N 
ATOM     22  C7  <0> d          -1.486  -1.825   4.308  0.00  0.00     0.271 C 
ATOM     23  H26 <0> d          -1.780  -0.557   2.737  0.00  0.00     0.280 HD
BRANCH  21  24
ATOM     24  C6  <0> d           0.227  -0.667   3.091  0.00  0.00     0.282 C 
BRANCH  24  25
ATOM     25  C5  <0> d           0.401  -1.809   2.124  0.00  0.00     0.014 A 
ATOM     26  C2  <0> d           0.267  -1.814   0.775  0.00  0.00    -0.047 A 
ATOM     27  C1  <0> d          -0.106  -0.552   0.039  0.00  0.00     0.049 C 
ATOM     28  C3  <0> d           0.484  -2.991   0.084  0.00  0.00     0.015 A 
ATOM     29  C4  <0> d           0.818  -4.107   0.776  0.00  0.00     0.051 A 
ATOM     30  S1  <0> d           0.835  -3.508   2.458  0.00  0.00    -0.104 SA
ENDBRANCH  24  25
ENDBRANCH  21  24
ENDBRANCH  19  21
ENDBRANCH   1  19
TORSDOF 9
