REMARK  3 active torsions:
REMARK  status: ('A' for Active; 'I' for Inactive)
REMARK    1  A    between atoms: N1_10  and  C10_13 
REMARK    2  A    between atoms: C10_13  and  C11_14 
REMARK    3  A    between atoms: C11_14  and  C12_16 
ROOT
ATOM      1  C11 <0> d          -1.326  -5.350   3.937  0.00  0.00     0.186 C 
ATOM      2  O2  <0> d          -2.258  -4.924   3.284  0.00  0.00    -0.290 OA
ENDROOT
BRANCH   1   3
ATOM      3  C10 <0> d           0.089  -5.022   3.534  0.00  0.00     0.217 C 
BRANCH   3   4
ATOM      4  N1  <0> d           0.072  -4.185   2.332  0.00  0.00    -0.301 N 
ATOM      5  C8  <0> d           0.034  -2.837   2.455  0.00  0.00     0.261 A 
ATOM      6  C6  <0> d           0.019  -2.045   1.216  0.00  0.00     0.061 A 
ATOM      7  O1  <0> d           0.011  -2.302   3.548  0.00  0.00    -0.267 OA
ATOM      8  C5  <0> d           0.046  -2.738  -0.014  0.00  0.00     0.073 A 
ATOM      9  C7  <0> d          -0.016  -0.652   1.232  0.00  0.00     0.026 A 
ATOM     10  C4  <0> d           0.033  -2.014  -1.208  0.00  0.00     0.033 A 
ATOM     11  N2  <0> d           0.085  -4.094  -0.005  0.00  0.00    -0.243 NA
ATOM     12  C3  <0> d          -0.007  -0.638  -1.170  0.00  0.00     0.009 A 
ATOM     13  C2  <0> d          -0.034   0.040   0.041  0.00  0.00    -0.061 A 
ATOM     14  C1  <0> d          -0.077   1.546   0.053  0.00  0.00     0.048 C 
ATOM     15  C9  <0> d           0.097  -4.767   1.105  0.00  0.00     0.213 A 
ENDBRANCH   3   4
ENDBRANCH   1   3
BRANCH   1  16
ATOM     16  C12 <0> d          -1.569  -6.151   5.074  0.00  0.00     0.123 A 
ATOM     17  C15 <0> d          -0.464  -6.787   5.802  0.00  0.00     0.267 A 
ATOM     18  N4  <0> d          -0.751  -7.538   6.886  0.00  0.00    -0.274 N 
ATOM     19  O4  <0> d           0.689  -6.635   5.440  0.00  0.00    -0.267 OA
ATOM     20  C14 <0> d          -2.022  -7.711   7.285  0.00  0.00     0.330 A 
ATOM     21  H1  <0> d          -0.032  -7.961   7.380  0.00  0.00     0.173 HD
ATOM     22  N3  <0> d          -3.060  -7.153   6.645  0.00  0.00    -0.289 N 
ATOM     23  O3  <0> d          -2.238  -8.400   8.263  0.00  0.00    -0.246 OA
ATOM     24  C13 <0> d          -2.876  -6.370   5.541  0.00  0.00     0.124 A 
ATOM     25  C16 <0> d          -4.419  -7.388   7.140  0.00  0.00     0.163 C 
ATOM     26  N5  <0> d          -3.941  -5.811   4.904  0.00  0.00    -0.384 N 
ATOM     27  H14 <0> d          -3.809  -5.321   4.078  0.00  0.00     0.157 HD
ATOM     28  H15 <0> d          -4.831  -5.902   5.277  0.00  0.00     0.157 HD
ENDBRANCH   1  16
TORSDOF 3
