REMARK  3 active torsions:
REMARK  status: ('A' for Active; 'I' for Inactive)
REMARK    1  A    between atoms: C5_6  and  C13_15 
REMARK    2  A    between atoms: C13_15  and  N3_18 
REMARK    3  A    between atoms: N2_16  and  O1_17 
ROOT
ATOM      1  C1  <0> d           0.082   1.276  -0.481  0.00  0.00     0.021 A 
ATOM      2  C2  <0> d           1.202   2.028  -0.444  0.00  0.00     0.031 A 
ATOM      3  C3  <0> d           2.478   1.416  -0.314  0.00  0.00     0.039 A 
ATOM      4  N1  <0> d           3.687   1.925  -0.234  0.00  0.00    -0.380 N 
ATOM      5  C4  <0> d           4.650   0.828  -0.194  0.00  0.00     0.123 A 
ATOM      6  C5  <0> d           5.551   0.892   1.042  0.00  0.00     0.084 C 
ATOM      7  C6  <0> d           6.320  -0.428   1.153  0.00  0.00     0.015 C 
ATOM      8  C7  <0> d           5.372  -1.596   1.422  0.00  0.00     0.005 C 
ATOM      9  C8  <0> d           4.421  -1.786   0.228  0.00  0.00     0.037 C 
ATOM     10  C9  <0> d           3.815  -0.438  -0.086  0.00  0.00    -0.044 A 
ATOM     11  C10 <0> d           2.534  -0.064  -0.214  0.00  0.00    -0.004 A 
ATOM     12  C11 <0> d           1.269  -0.807  -0.267  0.00  0.00     0.033 A 
ATOM     13  C12 <0> d           0.109  -0.124  -0.397  0.00  0.00     0.011 A 
ATOM     14 Br1  <0> d          -1.521  -1.081  -0.465  0.00  0.00    -0.051 Br
ATOM     15  H15 <0> d           3.903   2.870  -0.207  0.00  0.00     0.160 HD
ENDROOT
BRANCH   6  16
ATOM     16  C13 <0> d           6.522   2.037   0.900  0.00  0.00     0.131 C 
ATOM     17  N2  <0> d           6.255   3.180   1.438  0.00  0.00    -0.123 NA
BRANCH  17  18
ATOM     18  O1  <0> d           5.106   3.328   2.253  0.00  0.00    -0.265 OA
ATOM     19  H12 <0> d           4.990   4.219   2.611  0.00  0.00     0.247 HD
ENDBRANCH  17  18
BRANCH  16  20
ATOM     20  N3  <0> d           7.694   1.863   0.198  0.00  0.00    -0.385 N 
ATOM     21  H13 <0> d           7.895   1.004  -0.205  0.00  0.00     0.157 HD
ATOM     22  H14 <0> d           8.319   2.599   0.107  0.00  0.00     0.157 HD
ENDBRANCH  16  20
ENDBRANCH   6  16
TORSDOF 3
