REMARK  4 active torsions:
REMARK  status: ('A' for Active; 'I' for Inactive)
REMARK    1  A    between atoms: C2_2  and  O1_3 
REMARK    2  A    between atoms: O1_3  and  C3_4 
REMARK    3  A    between atoms: C3_4  and  C4_6 
REMARK    4  A    between atoms: C7_9  and  C8_11 
ROOT
ATOM      1  C4  <0> d          -2.881  -2.427   0.017  0.00  0.00     0.222 C 
ATOM      2  C5  <0> d          -2.870  -3.793  -0.647  0.00  0.00     0.140 C 
ATOM      3  C6  <0> d          -4.360  -3.814  -1.163  0.00  0.00     0.131 C 
ATOM      4  C7  <0> d          -4.476  -2.498  -1.814  0.00  0.00     0.258 C 
ATOM      5  N1  <0> d          -3.809  -1.590  -0.803  0.00  0.00    -0.045 N 
ATOM      6  C12 <0> d          -4.549  -5.213  -1.456  0.00  0.00     0.233 C 
ATOM      7  O4  <0> d          -5.222  -5.696  -2.341  0.00  0.00    -0.272 OA
ATOM      8  N2  <0> d          -3.801  -5.878  -0.517  0.00  0.00    -0.292 N 
ATOM      9  C13 <0> d          -2.929  -5.054   0.158  0.00  0.00     0.234 C 
ATOM     10  O5  <0> d          -2.334  -5.290   1.188  0.00  0.00    -0.272 OA
ATOM     11  C14 <0> d          -3.911  -7.317  -0.263  0.00  0.00     0.162 C 
ATOM     12  C15 <0> d          -3.398  -2.538   1.452  0.00  0.00     0.058 C 
ATOM     13  H9  <0> d          -4.502  -1.164  -0.207  0.00  0.00     0.279 HD
ATOM     14  H19 <0> d          -3.287  -0.874  -1.286  0.00  0.00     0.279 HD
ENDROOT
BRANCH   1  15
ATOM     15  C3  <0> d          -1.496  -1.832   0.006  0.00  0.00     0.296 C 
ATOM     16  O2  <0> d          -0.528  -2.555  -0.007  0.00  0.00    -0.262 OA
BRANCH  15  17
ATOM     17  O1  <0> d          -1.339  -0.499   0.012  0.00  0.00    -0.320 OA
BRANCH  17  18
ATOM     18  C2  <0> d           0.002  -0.004   0.002  0.00  0.00     0.174 C 
ATOM     19  C1  <0> d          -0.019   1.526   0.010  0.00  0.00     0.034 C 
ENDBRANCH  17  18
ENDBRANCH  15  17
ENDBRANCH   1  15
BRANCH   4  20
ATOM     20  C8  <0> d          -3.752  -2.488  -3.136  0.00  0.00     0.084 A 
ATOM     21  O3  <0> d          -2.428  -2.340  -3.305  0.00  0.00    -0.325 OA
ATOM     22  C11 <0> d          -2.137  -2.385  -4.616  0.00  0.00     0.142 A 
ATOM     23  C10 <0> d          -3.283  -2.554  -5.300  0.00  0.00     0.027 A 
ATOM     24  C9  <0> d          -4.324  -2.620  -4.346  0.00  0.00     0.037 A 
ENDBRANCH   4  20
TORSDOF 4
