REMARK  10 active torsions:
REMARK  status: ('A' for Active; 'I' for Inactive)
REMARK    1  A    between atoms: C2_2  and  C3_3 
REMARK    2  A    between atoms: C3_3  and  C4_4 
REMARK    3  A    between atoms: C4_4  and  N1_5 
REMARK    4  A    between atoms: N1_5  and  C5_6 
REMARK    5  A    between atoms: C5_6  and  C6_7 
REMARK    6  A    between atoms: C8_9  and  O3_19 
REMARK    7  A    between atoms: C9_10  and  O1_14 
REMARK    8  A    between atoms: O1_14  and  C12_15 
REMARK    9  A    between atoms: C12_15  and  C13_16 
REMARK       I    between atoms: C13_16  and  N2_18 
REMARK   10  A    between atoms: O3_19  and  C14_20 
ROOT
ATOM      1  C6  <0> d           2.152  -4.456  -3.722  0.00  0.00    -0.013 A 
ATOM      2  C7  <0> d           3.434  -4.967  -3.631  0.00  0.00     0.049 A 
ATOM      3  C8  <0> d           4.083  -5.414  -4.769  0.00  0.00     0.102 A 
ATOM      4  C9  <0> d           3.443  -5.349  -6.004  0.00  0.00     0.103 A 
ATOM      5  C10 <0> d           2.159  -4.836  -6.089  0.00  0.00     0.059 A 
ATOM      6  C11 <0> d           1.514  -4.395  -4.947  0.00  0.00     0.021 A 
ATOM      7 Br1  <0> d          -0.242  -3.702  -5.064  0.00  0.00    -0.050 Br
ENDROOT
BRANCH   1   8
ATOM      8  C5  <0> d           1.446  -3.970  -2.482  0.00  0.00     0.272 C 
BRANCH   8   9
ATOM      9  N1  <0> d           1.427  -2.501  -2.474  0.00  0.00    -0.071 N 
ATOM     10  H10 <0> d           0.939  -2.167  -3.291  0.00  0.00     0.277 HD
ATOM     11  H24 <0> d           2.373  -2.152  -2.481  0.00  0.00     0.277 HD
BRANCH   9  12
ATOM     12  C4  <0> d           0.739  -2.027  -1.265  0.00  0.00     0.232 C 
BRANCH  12  13
ATOM     13  C3  <0> d           0.718  -0.497  -1.257  0.00  0.00     0.027 C 
BRANCH  13  14
ATOM     14  C2  <0> d           0.002  -0.004   0.002  0.00  0.00    -0.003 C 
ATOM     15  C1  <0> d          -0.019   1.526   0.010  0.00  0.00     0.005 C 
ENDBRANCH  13  14
ENDBRANCH  12  13
ENDBRANCH   9  12
ENDBRANCH   8   9
ENDBRANCH   1   8
BRANCH   3  16
ATOM     16  O3  <0> d           5.344  -5.917  -4.681  0.00  0.00    -0.349 OA
BRANCH  16  17
ATOM     17  C14 <0> d           5.939  -5.953  -3.383  0.00  0.00     0.171 C 
ATOM     18  C15 <0> d           7.346  -6.545  -3.482  0.00  0.00     0.034 C 
ENDBRANCH  16  17
ENDBRANCH   3  16
BRANCH   4  19
ATOM     19  O1  <0> d           4.078  -5.787  -7.124  0.00  0.00    -0.339 OA
BRANCH  19  20
ATOM     20  C12 <0> d           3.360  -5.689  -8.356  0.00  0.00     0.278 C 
BRANCH  20  21
ATOM     21  C13 <0> d           4.215  -6.217  -9.479  0.00  0.00     0.239 C 
ATOM     22  O2  <0> d           5.329  -6.637  -9.247  0.00  0.00    -0.271 OA
ATOM     23  N2  <0> d           3.742  -6.224 -10.741  0.00  0.00    -0.368 N 
ATOM     24  H17 <0> d           2.851  -5.889 -10.926  0.00  0.00     0.159 HD
ATOM     25  H18 <0> d           4.292  -6.565 -11.463  0.00  0.00     0.159 HD
ENDBRANCH  20  21
ENDBRANCH  19  20
ENDBRANCH   4  19
TORSDOF 10
