REMARK  5 active torsions:
REMARK  status: ('A' for Active; 'I' for Inactive)
REMARK    1  A    between atoms: C2_2  and  C4_4 
REMARK    2  A    between atoms: C4_4  and  C5_5 
REMARK    3  A    between atoms: C4_4  and  N1_8 
REMARK    4  A    between atoms: N1_8  and  C6_9 
REMARK    5  A    between atoms: C14_17  and  O3_19 
ROOT
ATOM      1  C6  <0> d          -3.436  -0.769  -1.157  0.00  0.00     0.220 C 
ATOM      2  C7  <0> d          -4.250  -0.371  -2.386  0.00  0.00     0.038 C 
ATOM      3  C8  <0> d          -5.542  -1.196  -2.399  0.00  0.00     0.007 C 
ATOM      4  C9  <0> d          -5.183  -2.648  -2.709  0.00  0.00     0.039 C 
ATOM      5  C10 <0> d          -4.086  -3.129  -1.797  0.00  0.00    -0.047 A 
ATOM      6  C11 <0> d          -3.280  -2.266  -1.088  0.00  0.00    -0.021 A 
ATOM      7  C12 <0> d          -2.280  -2.774  -0.268  0.00  0.00     0.012 A 
ATOM      8  C13 <0> d          -2.088  -4.134  -0.155  0.00  0.00     0.037 A 
ATOM      9  C14 <0> d          -2.900  -5.005  -0.867  0.00  0.00     0.066 A 
ATOM     10  C15 <0> d          -3.896  -4.499  -1.683  0.00  0.00     0.044 A 
ENDROOT
BRANCH   1  11
ATOM     11  N1  <0> d          -2.107  -0.147  -1.234  0.00  0.00    -0.052 N 
ATOM     12  H10 <0> d          -1.675  -0.385  -2.114  0.00  0.00     0.279 HD
ATOM     13  H21 <0> d          -1.534  -0.485  -0.476  0.00  0.00     0.279 HD
BRANCH  11  14
ATOM     14  C4  <0> d          -2.243   1.312  -1.133  0.00  0.00     0.289 C 
BRANCH  14  15
ATOM     15  C2  <0> d          -0.875   1.933  -0.842  0.00  0.00     0.019 C 
ATOM     16  C1  <0> d           0.057   1.694  -2.031  0.00  0.00     0.012 C 
ATOM     17  C3  <0> d          -1.036   3.437  -0.613  0.00  0.00     0.012 C 
ENDBRANCH  14  15
BRANCH  14  18
ATOM     18  C5  <0> d          -2.776   1.858  -2.432  0.00  0.00     0.205 C 
ATOM     19  O1  <0> d          -2.523   1.291  -3.481  0.00  0.00    -0.646 OA
ATOM     20  O2  <0> d          -3.461   2.867  -2.434  0.00  0.00    -0.646 OA
ENDBRANCH  14  18
ENDBRANCH  11  14
ENDBRANCH   1  11
BRANCH   9  21
ATOM     21  O3  <0> d          -2.720  -6.348  -0.761  0.00  0.00    -0.361 OA
ATOM     22  H20 <0> d          -3.236  -6.759  -0.054  0.00  0.00     0.217 HD
ENDBRANCH   9  21
TORSDOF 5
