REMARK  6 active torsions:
REMARK  status: ('A' for Active; 'I' for Inactive)
REMARK    1  A    between atoms: C3_3  and  C19_24 
REMARK    2  A    between atoms: C5_5  and  N1_7 
REMARK       I    between atoms: N1_7  and  C7_8 
REMARK    3  A    between atoms: C7_8  and  C8_10 
REMARK    4  A    between atoms: C11_13  and  C14_16 
REMARK    5  A    between atoms: C14_16  and  N2_17 
REMARK    6  A    between atoms: C19_24  and  N3_25 
ROOT
ATOM      1  N1  <0> d           1.238  -2.079  -0.021  0.00  0.00    -0.323 N 
ATOM      2  C7  <0> d           0.087  -2.772   0.087  0.00  0.00     0.256 C 
ATOM      3  O1  <0> d          -0.977  -2.185   0.102  0.00  0.00    -0.267 OA
ATOM      4  H5  <0> d           2.082  -2.550  -0.100  0.00  0.00     0.169 HD
ENDROOT
BRANCH   1   5
ATOM      5  C5  <0> d           1.214  -0.681  -0.021  0.00  0.00     0.035 A 
ATOM      6  C4  <0> d           2.247   0.032   0.575  0.00  0.00     0.038 A 
ATOM      7  C3  <0> d           2.221   1.413   0.574  0.00  0.00    -0.038 A 
ATOM      8  C2  <0> d           1.169   2.086  -0.021  0.00  0.00     0.009 A 
ATOM      9  C1  <0> d           0.140   1.379  -0.615  0.00  0.00     0.003 A 
ATOM     10  C6  <0> d           0.159  -0.002  -0.617  0.00  0.00     0.029 A 
BRANCH   7  11
ATOM     11  C19 <0> d           3.340   2.188   1.220  0.00  0.00     0.171 C 
BRANCH  11  12
ATOM     12  N3  <0> d           3.018   2.428   2.629  0.00  0.00    -0.304 N 
ATOM     13  C23 <0> d           3.396   1.537   3.565  0.00  0.00     0.348 A 
ATOM     14  N4  <0> d           3.118   1.738   4.856  0.00  0.00    -0.206 NA
ATOM     15  O4  <0> d           4.004   0.534   3.231  0.00  0.00    -0.244 OA
ATOM     16  C22 <0> d           2.457   2.810   5.245  0.00  0.00     0.123 A 
ATOM     17  C21 <0> d           2.044   3.754   4.300  0.00  0.00     0.037 A 
ATOM     18  C20 <0> d           2.335   3.546   2.987  0.00  0.00     0.097 A 
ENDBRANCH  11  12
ENDBRANCH   7  11
ENDBRANCH   1   5
BRANCH   2  19
ATOM     19  C8  <0> d           0.119  -4.246   0.190  0.00  0.00     0.032 A 
ATOM     20  C13 <0> d          -1.071  -4.967   0.303  0.00  0.00     0.017 A 
ATOM     21  C12 <0> d          -1.034  -6.343   0.392  0.00  0.00     0.010 A 
ATOM     22  C11 <0> d           0.179  -7.008   0.382  0.00  0.00    -0.040 A 
ATOM     23  C10 <0> d           1.363  -6.299   0.276  0.00  0.00     0.010 A 
ATOM     24  C9  <0> d           1.340  -4.923   0.180  0.00  0.00     0.017 A 
BRANCH  22  25
ATOM     25  C14 <0> d           0.212  -8.511   0.487  0.00  0.00     0.173 C 
BRANCH  25  26
ATOM     26  N2  <0> d           0.288  -8.901   1.897  0.00  0.00    -0.284 N 
ATOM     27  C18 <0> d          -0.799  -9.114   2.649  0.00  0.00     0.227 A 
ATOM     28  C17 <0> d          -0.369  -9.503   4.047  0.00  0.00     0.112 A 
ATOM     29  O3  <0> d          -1.946  -9.015   2.270  0.00  0.00    -0.273 OA
ATOM     30  C16 <0> d           1.171  -9.467   3.974  0.00  0.00     0.112 A 
ATOM     31  C15 <0> d           1.449  -9.068   2.541  0.00  0.00     0.227 A 
ATOM     32  O2  <0> d           2.550  -8.921   2.054  0.00  0.00    -0.273 OA
ENDBRANCH  25  26
ENDBRANCH  22  25
ENDBRANCH   2  19
TORSDOF 6
