REMARK  4 active torsions:
REMARK  status: ('A' for Active; 'I' for Inactive)
REMARK    1  A    between atoms: N1_6  and  C7_8 
REMARK    2  A    between atoms: C7_8  and  C8_9 
REMARK    3  A    between atoms: C15_17  and  O2_18 
REMARK    4  A    between atoms: C17_20  and  N2_21 
ROOT
ATOM      1  C8  <0> d           2.136   0.221   3.668  0.00  0.00     0.073 C 
ATOM      2  C9  <0> d           2.337   1.741   3.615  0.00  0.00     0.184 C 
ATOM      3  O1  <0> d           1.614   2.328   4.698  0.00  0.00    -0.347 OA
ATOM      4  C10 <0> d           1.787   1.798   5.938  0.00  0.00     0.110 A 
ATOM      5  C11 <0> d           2.331   0.541   6.124  0.00  0.00     0.011 A 
ATOM      6  C12 <0> d           2.482   0.038   7.407  0.00  0.00     0.012 A 
ATOM      7  C13 <0> d           2.096   0.786   8.502  0.00  0.00     0.003 A 
ATOM      8  C14 <0> d           1.554   2.045   8.323  0.00  0.00     0.039 A 
ATOM      9  C15 <0> d           1.398   2.554   7.045  0.00  0.00     0.102 A 
ATOM     10  C17 <0> d           2.774  -0.304   4.957  0.00  0.00     0.261 C 
ENDROOT
BRANCH   1  11
ATOM     11  C7  <0> d           2.808  -0.431   2.458  0.00  0.00     0.244 C 
BRANCH  11  12
ATOM     12  N1  <0> d           2.123  -0.005   1.230  0.00  0.00    -0.070 N 
ATOM     13  C5  <0> d           2.839  -0.534   0.063  0.00  0.00     0.239 C 
ATOM     14  C4  <0> d           2.177  -0.027  -1.220  0.00  0.00     0.008 C 
ATOM     15  C3  <0> d           0.721  -0.499  -1.257  0.00  0.00     0.011 C 
ATOM     16  C18 <0> d           2.924  -0.581  -2.434  0.00  0.00     0.011 C 
ATOM     17  C2  <0> d           0.002  -0.004   0.002  0.00  0.00     0.008 C 
ATOM     18  C1  <0> d          -0.019   1.526   0.010  0.00  0.00     0.011 C 
ATOM     19  C6  <0> d           0.744  -0.512   1.240  0.00  0.00     0.239 C 
ATOM     20  H29 <0> d           2.109   1.003   1.187  0.00  0.00     0.279 HD
ENDBRANCH  11  12
ENDBRANCH   1  11
BRANCH  10  21
ATOM     21  N2  <0> d           4.237  -0.244   4.838  0.00  0.00     0.087 N 
ATOM     22  H24 <0> d           4.683  -0.585   5.676  0.00  0.00     0.313 HD
ATOM     23  H25 <0> d           4.555  -0.752   4.027  0.00  0.00     0.313 HD
ENDBRANCH  10  21
BRANCH   9  24
ATOM     24  O2  <0> d           0.865   3.792   6.868  0.00  0.00    -0.353 OA
ATOM     25  C16 <0> d           0.490   4.511   8.045  0.00  0.00     0.210 C 
ENDBRANCH   9  24
TORSDOF 4
