REMARK  7 active torsions:
REMARK  status: ('A' for Active; 'I' for Inactive)
REMARK    1  A    between atoms: O1_2  and  C2_3 
REMARK    2  A    between atoms: C2_3  and  C3_4 
REMARK    3  A    between atoms: C3_4  and  C4_5 
REMARK    4  A    between atoms: C4_5  and  N1_6 
REMARK    5  A    between atoms: C7_10  and  C18_24 
REMARK    6  A    between atoms: C18_24  and  C19_25 
REMARK    7  A    between atoms: C22_28  and  O5_31 
ROOT
ATOM      1  N1  <0> d           1.063   2.048   0.003  0.00  0.00    -0.287 N 
ATOM      2  C5  <0> d           0.738   3.330   0.371  0.00  0.00     0.233 C 
ATOM      3  O2  <0> d           1.414   4.329   0.248  0.00  0.00    -0.272 OA
ATOM      4  C6  <0> d          -0.585   3.226   0.936  0.00  0.00     0.126 C 
ATOM      5  C7  <0> d          -1.761   4.068   1.222  0.00  0.00     0.206 C 
ATOM      6  C8  <0> d          -2.412   1.771   0.909  0.00  0.00     0.247 A 
ATOM      7  C9  <0> d          -1.226   2.101   0.018  0.00  0.00     0.144 C 
ATOM      8  C10 <0> d          -0.014   1.208   0.009  0.00  0.00     0.234 C 
ATOM      9  O3  <0> d           0.002  -0.004   0.002  0.00  0.00    -0.272 OA
ATOM     10  C11 <0> d          -2.091   0.729   1.943  0.00  0.00     0.015 A 
ATOM     11  C12 <0> d          -1.168   0.654   2.962  0.00  0.00     0.012 A 
ATOM     12  C13 <0> d          -1.113  -0.468   3.769  0.00  0.00     0.001 A 
ATOM     13  C14 <0> d          -1.991  -1.515   3.553  0.00  0.00     0.002 A 
ATOM     14  C15 <0> d          -2.922  -1.443   2.538  0.00  0.00     0.030 A 
ATOM     15  C16 <0> d          -2.984  -0.316   1.721  0.00  0.00     0.044 A 
ATOM     16  N2  <0> d          -3.826  -0.012   0.650  0.00  0.00    -0.324 N 
ATOM     17  C17 <0> d          -3.560   1.197   0.121  0.00  0.00     0.264 A 
ATOM     18  O4  <0> d          -4.134   1.722  -0.810  0.00  0.00    -0.270 OA
ATOM     19  H17 <0> d          -4.523  -0.604   0.324  0.00  0.00     0.169 HD
ATOM     20  N3  <0> d          -2.801   3.044   1.549  0.00  0.00    -0.047 N 
ATOM     21  H25 <0> d          -3.714   3.349   1.190  0.00  0.00     0.279 HD
ATOM     22  H26 <0> d          -2.858   2.918   2.567  0.00  0.00     0.279 HD
ENDROOT
BRANCH   5  23
ATOM     23  C18 <0> d          -1.492   4.998   2.407  0.00  0.00     0.072 C 
BRANCH  23  24
ATOM     24  C19 <0> d          -2.664   5.927   2.594  0.00  0.00    -0.056 A 
ATOM     25  C24 <0> d          -3.711   5.559   3.418  0.00  0.00     0.010 A 
ATOM     26  C23 <0> d          -4.787   6.408   3.592  0.00  0.00     0.037 A 
ATOM     27  C22 <0> d          -4.815   7.631   2.937  0.00  0.00     0.065 A 
ATOM     28  C21 <0> d          -3.763   7.998   2.111  0.00  0.00     0.037 A 
ATOM     29  C20 <0> d          -2.687   7.147   1.946  0.00  0.00     0.010 A 
BRANCH  27  30
ATOM     30  O5  <0> d          -5.872   8.468   3.106  0.00  0.00    -0.361 OA
ATOM     31  H24 <0> d          -5.771   9.088   3.841  0.00  0.00     0.217 HD
ENDBRANCH  27  30
ENDBRANCH  23  24
ENDBRANCH   5  23
BRANCH   1  32
ATOM     32  C4  <0> d           2.419   1.626  -0.356  0.00  0.00     0.137 C 
BRANCH  32  33
ATOM     33  C3  <0> d           2.628   1.807  -1.861  0.00  0.00     0.046 C 
BRANCH  33  34
ATOM     34  C2  <0> d           4.044   1.366  -2.236  0.00  0.00     0.168 C 
BRANCH  34  35
ATOM     35  O1  <0> d           4.239   1.535  -3.642  0.00  0.00    -0.396 OA
ATOM     36  C1  <0> d           5.537   1.150  -4.099  0.00  0.00     0.201 C 
ENDBRANCH  34  35
ENDBRANCH  33  34
ENDBRANCH  32  33
ENDBRANCH   1  32
TORSDOF 7
