REMARK  5 active torsions:
REMARK  status: ('A' for Active; 'I' for Inactive)
REMARK       I    between atoms: N1_2  and  C2_3 
REMARK       I    between atoms: C2_3  and  N2_5 
REMARK       I    between atoms: N2_5  and  C3_6 
REMARK    1  A    between atoms: C3_6  and  C4_8 
REMARK    2  A    between atoms: C4_8  and  C5_9 
REMARK    3  A    between atoms: C5_9  and  C6_10 
REMARK    4  A    between atoms: C6_10  and  S1_11 
REMARK    5  A    between atoms: S1_11  and  C7_14 
ROOT
ATOM      1  C5  <0> d           1.985  -4.708   3.229  0.00  0.00     0.024 C 
ENDROOT
BRANCH   1   2
ATOM      2  C4  <0> d           1.245  -4.201   1.989  0.00  0.00     0.104 C 
BRANCH   2   3
ATOM      3  C3  <0> d           1.225  -2.694   1.998  0.00  0.00     0.225 C 
ATOM      4  N2  <0> d           0.623  -2.023   0.996  0.00  0.00    -0.279 N 
ATOM      5  C2  <0> d           0.604  -0.675   1.004  0.00  0.00     0.322 C 
ATOM      6  H5  <0> d           0.202  -2.510   0.270  0.00  0.00     0.173 HD
ATOM      7  N1  <0> d           0.002  -0.004   0.002  0.00  0.00    -0.347 N 
ATOM      8  O1  <0> d           1.131  -0.066   1.913  0.00  0.00    -0.247 OA
ATOM      9  C1  <0> d          -0.018   1.461   0.010  0.00  0.00     0.151 C 
ATOM     10  H4  <0> d          -0.418  -0.491  -0.724  0.00  0.00     0.163 HD
ATOM     11  O2  <0> d           1.750  -2.086   2.905  0.00  0.00    -0.273 OA
ENDBRANCH   2   3
ENDBRANCH   1   2
BRANCH   1  12
ATOM     12  C6  <0> d           2.006  -6.238   3.220  0.00  0.00     0.146 C 
BRANCH  12  13
ATOM     13  S1  <0> d           2.884  -6.839   4.690  0.00  0.00     0.177 S 
ATOM     14  O3  <0> d           4.263  -6.506   4.607  0.00  0.00    -0.223 OA
ATOM     15  O4  <0> d           2.136  -6.542   5.862  0.00  0.00    -0.223 OA
BRANCH  13  16
ATOM     16  C7  <0> d           2.836  -8.595   4.559  0.00  0.00     0.081 A 
ATOM     17  C12 <0> d           1.625  -9.261   4.625  0.00  0.00     0.055 A 
ATOM     18  C11 <0> d           1.588 -10.640   4.517  0.00  0.00     0.025 A 
ATOM     19 Cl1  <0> d           0.152  -8.367   4.836  0.00  0.00    -0.083 Cl
ATOM     20  C10 <0> d           2.761 -11.352   4.354  0.00  0.00     0.002 A 
ATOM     21  C9  <0> d           3.971 -10.686   4.294  0.00  0.00     0.002 A 
ATOM     22  C8  <0> d           4.009  -9.308   4.396  0.00  0.00     0.025 A 
ENDBRANCH  13  16
ENDBRANCH  12  13
ENDBRANCH   1  12
TORSDOF 5
