REMARK  15 active torsions:
REMARK  status: ('A' for Active; 'I' for Inactive)
REMARK    1  A    between atoms: C2_2  and  C3_3 
REMARK    2  A    between atoms: C3_3  and  C4_4 
REMARK    3  A    between atoms: C4_4  and  C5_5 
REMARK    4  A    between atoms: C5_5  and  C6_6 
REMARK    5  A    between atoms: C6_6  and  C7_7 
REMARK    6  A    between atoms: C6_6  and  O5_25 
REMARK    7  A    between atoms: C8_8  and  C9_9 
REMARK    8  A    between atoms: C10_10  and  O4_24 
REMARK    9  A    between atoms: C12_12  and  O3_23 
REMARK   10  A    between atoms: C13_13  and  C14_14 
REMARK   11  A    between atoms: C14_14  and  C15_15 
REMARK   12  A    between atoms: C16_16  and  C17_17 
REMARK   13  A    between atoms: C17_17  and  C18_18 
REMARK   14  A    between atoms: C18_18  and  C19_19 
REMARK   15  A    between atoms: C19_19  and  C20_20 
ROOT
ATOM      1  C9  <0> d           3.939  -5.865  -5.388  0.00  0.00     0.043 C 
ATOM      2  C10 <0> d           5.398  -5.500  -5.734  0.00  0.00     0.128 C 
ATOM      3  C11 <0> d           6.202  -6.776  -5.382  0.00  0.00     0.064 C 
ATOM      4  C12 <0> d           5.249  -7.914  -5.824  0.00  0.00     0.125 C 
ATOM      5  C13 <0> d           3.844  -7.399  -5.446  0.00  0.00     0.028 C 
ENDROOT
BRANCH   1   6
ATOM      6  C8  <0> d           3.600  -5.378  -4.003  0.00  0.00    -0.021 C 
ATOM      7  C7  <0> d           2.599  -4.552  -3.825  0.00  0.00     0.001 C 
BRANCH   7   8
ATOM      8  C6  <0> d           2.260  -4.065  -2.440  0.00  0.00     0.140 C 
BRANCH   8   9
ATOM      9  C5  <0> d           2.254  -2.535  -2.424  0.00  0.00     0.036 C 
BRANCH   9  10
ATOM     10  C4  <0> d           1.789  -2.042  -1.053  0.00  0.00     0.003 C 
BRANCH  10  11
ATOM     11  C3  <0> d           1.783  -0.512  -1.037  0.00  0.00    -0.000 C 
BRANCH  11  12
ATOM     12  C2  <0> d           1.318  -0.018   0.335  0.00  0.00    -0.005 C 
ATOM     13  C1  <0> d           1.312   1.512   0.351  0.00  0.00     0.005 C 
ENDBRANCH  11  12
ENDBRANCH  10  11
ENDBRANCH   9  10
ENDBRANCH   8   9
BRANCH   8  14
ATOM     14  O5  <0> d           3.235  -4.548  -1.514  0.00  0.00    -0.392 OA
ATOM     15  H33 <0> d           4.137  -4.257  -1.705  0.00  0.00     0.210 HD
ENDBRANCH   8  14
ENDBRANCH   7   8
ENDBRANCH   1   6
BRANCH   5  16
ATOM     16  C14 <0> d           2.826  -7.821  -6.508  0.00  0.00     0.034 C 
BRANCH  16  17
ATOM     17  C15 <0> d           2.652  -9.318  -6.470  0.00  0.00    -0.030 C 
ATOM     18  C16 <0> d           1.452  -9.835  -6.371  0.00  0.00    -0.031 C 
BRANCH  18  19
ATOM     19  C17 <0> d           0.239  -8.947  -6.464  0.00  0.00     0.027 C 
BRANCH  19  20
ATOM     20  C18 <0> d          -0.705  -9.485  -7.542  0.00  0.00     0.014 C 
BRANCH  20  21
ATOM     21  C19 <0> d          -1.937  -8.583  -7.637  0.00  0.00     0.113 C 
BRANCH  21  22
ATOM     22  C20 <0> d          -2.867  -9.113  -8.698  0.00  0.00     0.172 C 
ATOM     23  O1  <0> d          -2.571 -10.119  -9.320  0.00  0.00    -0.648 OA
ATOM     24  O2  <0> d          -3.915  -8.536  -8.934  0.00  0.00    -0.648 OA
ENDBRANCH  21  22
ENDBRANCH  20  21
ENDBRANCH  19  20
ENDBRANCH  18  19
ENDBRANCH  16  17
ENDBRANCH   5  16
BRANCH   2  25
ATOM     25  O4  <0> d           5.521  -5.196  -7.125  0.00  0.00    -0.395 OA
ATOM     26  H32 <0> d           6.418  -4.959  -7.398  0.00  0.00     0.210 HD
ENDBRANCH   2  25
BRANCH   4  27
ATOM     27  O3  <0> d           5.550  -9.120  -5.120  0.00  0.00    -0.395 OA
ATOM     28  H31 <0> d           6.443  -9.456  -5.278  0.00  0.00     0.210 HD
ENDBRANCH   4  27
TORSDOF 15
