REMARK  5 active torsions:
REMARK  status: ('A' for Active; 'I' for Inactive)
REMARK    1  A    between atoms: C5_5  and  C8_9 
REMARK    2  A    between atoms: C8_9  and  C9_10 
REMARK    3  A    between atoms: C11_13  and  N2_15 
REMARK       I    between atoms: N2_15  and  C12_16 
REMARK    4  A    between atoms: C12_16  and  C13_18 
REMARK    5  A    between atoms: C15_20  and  C18_25 
ROOT
ATOM      1  N2  <0> d           5.489  -5.338  -1.195  0.00  0.00    -0.300 N 
ATOM      2  C12 <0> d           6.366  -5.827  -0.295  0.00  0.00     0.274 C 
ATOM      3  O1  <0> d           6.161  -5.682   0.895  0.00  0.00    -0.266 OA
ATOM      4  H11 <0> d           5.653  -5.454  -2.144  0.00  0.00     0.171 HD
ENDROOT
BRANCH   1   5
ATOM      5  C11 <0> d           4.352  -4.668  -0.763  0.00  0.00     0.173 A 
ATOM      6  N1  <0> d           3.970  -4.418   0.471  0.00  0.00    -0.235 NA
ATOM      7  C10 <0> d           2.850  -3.763   0.718  0.00  0.00     0.134 A 
ATOM      8  C9  <0> d           2.121  -3.363  -0.352  0.00  0.00     0.008 A 
ATOM      9  S1  <0> d           3.125  -3.985  -1.690  0.00  0.00    -0.055 SA
BRANCH   8  10
ATOM     10  C8  <0> d           0.818  -2.608  -0.399  0.00  0.00     0.086 C 
BRANCH  10  11
ATOM     11  C5  <0> d           1.097  -1.127  -0.449  0.00  0.00    -0.052 A 
ATOM     12  C4  <0> d           1.242  -0.493  -1.669  0.00  0.00     0.008 A 
ATOM     13  C3  <0> d           1.497   0.865  -1.716  0.00  0.00     0.009 A 
ATOM     14  C2  <0> d           1.608   1.589  -0.544  0.00  0.00    -0.040 A 
ATOM     15  C1  <0> d           1.886   3.069  -0.596  0.00  0.00     0.050 C 
ATOM     16  C7  <0> d           1.468   0.953   0.677  0.00  0.00     0.040 A 
ATOM     17  C6  <0> d           1.207  -0.405   0.724  0.00  0.00     0.031 A 
ATOM     18 Cl1  <0> d           1.613   1.861   2.150  0.00  0.00    -0.084 Cl
ENDBRANCH  10  11
ENDBRANCH   8  10
ENDBRANCH   1   5
BRANCH   2  19
ATOM     19  C13 <0> d           7.568  -6.535  -0.752  0.00  0.00     0.108 A 
ATOM     20  N3  <0> d           7.917  -6.767  -2.065  0.00  0.00    -0.354 N 
ATOM     21  C16 <0> d           9.078  -7.438  -2.103  0.00  0.00     0.020 A 
ATOM     22  H1  <0> d           7.405  -6.487  -2.840  0.00  0.00     0.166 HD
ATOM     23  C15 <0> d           9.497  -7.660  -0.800  0.00  0.00     0.040 A 
ATOM     24  C17 <0> d           9.802  -7.879  -3.349  0.00  0.00     0.069 C 
ATOM     25  C14 <0> d           8.525  -7.080   0.051  0.00  0.00    -0.014 A 
ATOM     26  C20 <0> d           8.546  -7.066   1.557  0.00  0.00     0.052 C 
BRANCH  23  27
ATOM     27  C18 <0> d          10.714  -8.362  -0.383  0.00  0.00     0.158 C 
ATOM     28  O2  <0> d          11.745  -7.744  -0.218  0.00  0.00    -0.293 OA
ATOM     29  C19 <0> d          10.685  -9.852  -0.158  0.00  0.00     0.097 C 
ENDBRANCH  23  27
ENDBRANCH   2  19
TORSDOF 5
