REMARK  7 active torsions:
REMARK  status: ('A' for Active; 'I' for Inactive)
REMARK    1  A    between atoms: C2_2  and  C3_3 
REMARK    2  A    between atoms: C3_3  and  C4_4 
REMARK    3  A    between atoms: C4_4  and  N1_6 
REMARK       I    between atoms: N1_6  and  C6_7 
REMARK    4  A    between atoms: C6_7  and  C7_9 
REMARK       I    between atoms: N2_11  and  C15_19 
REMARK    5  A    between atoms: C15_19  and  C16_21 
REMARK    6  A    between atoms: C20_26  and  S1_27 
REMARK    7  A    between atoms: S1_27  and  C21_28 
ROOT
ATOM      1  C7  <0> d          -2.945  -4.126   0.564  0.00  0.00     0.106 C 
ATOM      2  C8  <0> d          -3.022  -4.334   2.093  0.00  0.00     0.141 C 
ATOM      3  N2  <0> d          -3.680  -5.652   2.259  0.00  0.00    -0.346 N 
ATOM      4  C9  <0> d          -3.102  -6.490   1.182  0.00  0.00     0.136 C 
ATOM      5  C10 <0> d          -2.996  -5.544  -0.031  0.00  0.00    -0.007 C 
ATOM      6  C11 <0> d          -1.721  -5.834  -0.816  0.00  0.00     0.039 C 
ATOM      7  C12 <0> d          -1.820  -7.226  -1.446  0.00  0.00     0.233 C 
ATOM      8  N3  <0> d          -2.989  -7.282  -2.333  0.00  0.00    -0.075 N 
ATOM      9  C13 <0> d          -4.218  -7.095  -1.553  0.00  0.00     0.233 C 
ATOM     10  C14 <0> d          -4.220  -5.697  -0.928  0.00  0.00     0.039 C 
ATOM     11  C15 <0> d          -4.597  -6.007   3.180  0.00  0.00     0.256 C 
ATOM     12  O2  <0> d          -4.975  -7.161   3.248  0.00  0.00    -0.267 OA
ATOM     13  H22 <0> d          -2.917  -6.553  -3.027  0.00  0.00     0.277 HD
ATOM     14  H35 <0> d          -3.017  -8.180  -2.793  0.00  0.00     0.277 HD
ENDROOT
BRANCH  11  15
ATOM     15  C16 <0> d          -5.141  -4.997   4.106  0.00  0.00     0.068 A 
ATOM     16  C20 <0> d          -6.485  -5.052   4.515  0.00  0.00     0.113 A 
ATOM     17  N4  <0> d          -6.967  -4.144   5.351  0.00  0.00    -0.253 NA
ATOM     18  C19 <0> d          -6.220  -3.163   5.817  0.00  0.00     0.118 A 
ATOM     19  C18 <0> d          -4.890  -3.040   5.455  0.00  0.00     0.020 A 
ATOM     20  C17 <0> d          -4.331  -3.963   4.589  0.00  0.00     0.021 A 
BRANCH  16  21
ATOM     21  S1  <0> d          -7.531  -6.338   3.919  0.00  0.00    -0.070 SA
BRANCH  21  22
ATOM     22  C21 <0> d          -9.059  -6.065   4.753  0.00  0.00     0.007 A 
ATOM     23  C26 <0> d          -9.264  -6.593   6.021  0.00  0.00     0.019 A 
ATOM     24  C25 <0> d         -10.461  -6.373   6.674  0.00  0.00     0.001 A 
ATOM     25  C24 <0> d         -11.459  -5.638   6.062  0.00  0.00     0.000 A 
ATOM     26  C23 <0> d         -11.261  -5.115   4.797  0.00  0.00     0.001 A 
ATOM     27  C22 <0> d         -10.064  -5.327   4.141  0.00  0.00     0.019 A 
ENDBRANCH  21  22
ENDBRANCH  16  21
ENDBRANCH  11  15
BRANCH   1  28
ATOM     28  C6  <0> d          -1.651  -3.448   0.191  0.00  0.00     0.224 C 
ATOM     29  N1  <0> d          -1.599  -2.643  -0.889  0.00  0.00    -0.356 N 
ATOM     30  H13 <0> d          -2.394  -2.501  -1.427  0.00  0.00     0.162 HD
ATOM     31  O1  <0> d          -0.658  -3.626   0.864  0.00  0.00    -0.273 OA
BRANCH  29  32
ATOM     32  C4  <0> d          -0.342  -1.984  -1.251  0.00  0.00     0.080 C 
ATOM     33  C5  <0> d          -0.202  -0.683  -0.458  0.00  0.00     0.032 C 
BRANCH  32  34
ATOM     34  C3  <0> d          -0.343  -1.671  -2.748  0.00  0.00     0.024 C 
BRANCH  34  35
ATOM     35  C2  <0> d          -0.358  -2.978  -3.543  0.00  0.00    -0.003 C 
ATOM     36  C1  <0> d          -0.359  -2.665  -5.041  0.00  0.00     0.005 C 
ENDBRANCH  34  35
ENDBRANCH  32  34
ENDBRANCH  29  32
ENDBRANCH   1  28
TORSDOF 7
