REMARK  3 active torsions:
REMARK  status: ('A' for Active; 'I' for Inactive)
REMARK    1  A    between atoms: N1_5  and  C5_7 
REMARK    2  A    between atoms: C6_9  and  C8_13 
REMARK    3  A    between atoms: C16_23  and  C17_24 
ROOT
ATOM      1  C1  <0> d          -4.865  -0.964   0.052  0.00  0.00     0.073 C 
ATOM      2  C2  <0> d          -3.367  -1.125   0.034  0.00  0.00     0.062 A 
ATOM      3  C3  <0> d          -2.679  -2.330   0.024  0.00  0.00     0.024 A 
ATOM      4  C4  <0> d          -1.338  -2.052  -0.002  0.00  0.00     0.159 A 
ATOM      5  N1  <0> d          -1.201  -0.708   0.010  0.00  0.00    -0.041 N 
ATOM      6  N2  <0> d          -2.489  -0.149   0.025  0.00  0.00    -0.155 NA
ATOM      7  N6  <0> d          -0.378  -3.062  -0.004  0.00  0.00    -0.310 N 
ATOM      8  C14 <0> d          -0.789  -4.328  -0.227  0.00  0.00     0.224 C 
ATOM      9  O1  <0> d          -0.003  -5.238  -0.068  0.00  0.00    -0.273 OA
ATOM     10  C15 <0> d          -2.191  -4.645  -0.666  0.00  0.00     0.117 C 
ATOM     11  C16 <0> d          -3.209  -3.741   0.037  0.00  0.00     0.067 C 
ATOM     12  H11 <0> d           0.559  -2.861   0.145  0.00  0.00     0.170 HD
ENDROOT
BRANCH   5  13
ATOM     13  C5  <0> d           0.002  -0.004   0.002  0.00  0.00     0.770 A 
ATOM     14  N5  <0> d           1.149  -0.668  -0.012  0.00  0.00     0.045 NA
ATOM     15  N4  <0> d           2.281  -0.057  -0.020  0.00  0.00    -0.144 NA
ATOM     16  C7  <0> d           2.332   1.262  -0.013  0.00  0.00     0.174 A 
ATOM     17  C6  <0> d           1.136   1.989   0.002  0.00  0.00     0.105 A 
ATOM     18  N3  <0> d          -0.016   1.321   0.009  0.00  0.00    -0.057 NA
BRANCH  17  19
ATOM     19  C8  <0> d           1.151   3.472   0.009  0.00  0.00    -0.005 A 
ATOM     20  C13 <0> d           2.358   4.160  -0.104  0.00  0.00     0.014 A 
ATOM     21  C12 <0> d           2.366   5.540  -0.097  0.00  0.00     0.001 A 
ATOM     22  C11 <0> d           1.180   6.240   0.021  0.00  0.00     0.000 A 
ATOM     23  C10 <0> d          -0.021   5.563   0.134  0.00  0.00     0.001 A 
ATOM     24  C9  <0> d          -0.042   4.183   0.123  0.00  0.00     0.014 A 
ENDBRANCH  17  19
ENDBRANCH   5  13
BRANCH  11  25
ATOM     25  C17 <0> d          -3.398  -4.199   1.460  0.00  0.00    -0.042 A 
ATOM     26  C20 <0> d          -2.344  -4.253   2.311  0.00  0.00     0.057 A 
ATOM     27  S1  <0> d          -3.110  -4.841   3.812  0.00  0.00    -0.113 SA
ATOM     28  C19 <0> d          -4.782  -4.984   3.202  0.00  0.00     0.050 A 
ATOM     29  C18 <0> d          -4.647  -4.577   1.916  0.00  0.00     0.015 A 
ENDBRANCH  11  25
TORSDOF 3
