REMARK  4 active torsions:
REMARK  status: ('A' for Active; 'I' for Inactive)
REMARK       I    between atoms: C2_2  and  N1_4 
REMARK    1  A    between atoms: N1_4  and  C3_5 
REMARK    2  A    between atoms: C3_5  and  C4_6 
REMARK    3  A    between atoms: C4_6  and  N2_7 
REMARK       I    between atoms: N2_7  and  C5_8 
REMARK       I    between atoms: C5_8  and  N3_10 
REMARK    4  A    between atoms: N3_10  and  C6_11 
ROOT
ATOM      1  N2  <0> d          -2.552  -4.153  -0.012  0.00  0.00    -0.341 N 
ATOM      2  C5  <0> d          -3.710  -4.843   0.006  0.00  0.00     0.320 C 
ATOM      3  O2  <0> d          -4.771  -4.250   0.023  0.00  0.00    -0.247 OA
ATOM      4  N3  <0> d          -3.691  -6.190   0.004  0.00  0.00    -0.308 N 
ATOM      5  H9  <0> d          -1.706  -4.626  -0.026  0.00  0.00     0.164 HD
ATOM      6  H10 <0> d          -2.848  -6.663  -0.076  0.00  0.00     0.170 HD
ENDROOT
BRANCH   1   7
ATOM      7  C4  <0> d          -2.573  -2.688  -0.010  0.00  0.00     0.144 C 
BRANCH   7   8
ATOM      8  C3  <0> d          -1.138  -2.158  -0.032  0.00  0.00     0.142 C 
BRANCH   8   9
ATOM      9  N1  <0> d          -1.158  -0.693  -0.030  0.00  0.00    -0.360 N 
ATOM     10  C2  <0> d          -0.001  -0.003  -0.048  0.00  0.00     0.213 C 
ATOM     11  C1  <0> d          -0.022   1.504  -0.046  0.00  0.00     0.117 C 
ATOM     12  O1  <0> d           1.058  -0.594  -0.065  0.00  0.00    -0.274 OA
ATOM     13  H4  <0> d          -2.005  -0.220  -0.016  0.00  0.00     0.162 HD
ENDBRANCH   8   9
ENDBRANCH   7   8
ENDBRANCH   1   7
BRANCH   4  14
ATOM     14  C6  <0> d          -4.888  -6.907   0.117  0.00  0.00     0.055 A 
ATOM     15  C11 <0> d          -4.914  -8.115   0.803  0.00  0.00     0.037 A 
ATOM     16  C10 <0> d          -6.098  -8.818   0.918  0.00  0.00     0.023 A 
ATOM     17 Br1  <0> d          -3.331  -8.794   1.585  0.00  0.00    -0.049 Br
ATOM     18  C9  <0> d          -7.255  -8.326   0.341  0.00  0.00     0.020 A 
ATOM     19  C8  <0> d          -7.231  -7.125  -0.347  0.00  0.00     0.013 A 
ATOM     20  C7  <0> d          -6.051  -6.415  -0.460  0.00  0.00     0.050 A 
ATOM     21 Br2  <0> d          -8.815  -6.456  -1.133  0.00  0.00    -0.051 Br
ENDBRANCH   4  14
TORSDOF 4
