REMARK  5 active torsions:
REMARK  status: ('A' for Active; 'I' for Inactive)
REMARK    1  A    between atoms: O1_2  and  C2_3 
REMARK    2  A    between atoms: C2_3  and  C3_5 
REMARK    3  A    between atoms: C8_10  and  S1_11 
REMARK    4  A    between atoms: S1_11  and  N1_14 
REMARK    5  A    between atoms: N1_14  and  C9_15 
ROOT
ATOM      1  S1  <0> d           2.059  -1.763   3.439  0.00  0.00     0.285 S 
ATOM      2  O3  <0> d           1.089  -0.805   3.841  0.00  0.00    -0.198 OA
ATOM      3  O4  <0> d           2.644  -2.684   4.350  0.00  0.00    -0.198 OA
ENDROOT
BRANCH   1   4
ATOM      4  C8  <0> d           1.320  -2.721   2.158  0.00  0.00     0.100 A 
ATOM      5  C3  <0> d           0.680  -2.087   1.091  0.00  0.00     0.063 A 
ATOM      6  C4  <0> d           0.100  -2.853   0.076  0.00  0.00     0.022 A 
ATOM      7  C5  <0> d           0.159  -4.228   0.135  0.00  0.00     0.043 A 
ATOM      8  C6  <0> d           0.792  -4.852   1.200  0.00  0.00     0.117 A 
ATOM      9  C7  <0> d           1.368  -4.097   2.210  0.00  0.00     0.068 A 
ATOM     10  F1  <0> d           0.846  -6.201   1.254  0.00  0.00    -0.206 F 
BRANCH   5  11
ATOM     11  C2  <0> d           0.620  -0.613   1.032  0.00  0.00     0.294 C 
ATOM     12  O2  <0> d           1.129   0.051   1.914  0.00  0.00    -0.259 OA
BRANCH  11  13
ATOM     13  O1  <0> d           0.002  -0.004   0.002  0.00  0.00    -0.322 OA
ATOM     14  C1  <0> d          -0.017   1.425   0.010  0.00  0.00     0.213 C 
ENDBRANCH  11  13
ENDBRANCH   5  11
ENDBRANCH   1   4
BRANCH   1  15
ATOM     15  N1  <0> d           3.308  -0.914   2.758  0.00  0.00    -0.160 NA
BRANCH  15  16
ATOM     16  C9  <0> d           4.084  -0.058   3.546  0.00  0.00     0.072 A 
ATOM     17  C14 <0> d           5.131   0.653   2.975  0.00  0.00     0.064 A 
ATOM     18  C13 <0> d           5.893   1.503   3.758  0.00  0.00     0.070 A 
ATOM     19  C12 <0> d           5.617   1.634   5.118  0.00  0.00     0.096 A 
ATOM     20  N2  <0> d           6.949   2.236   3.199  0.00  0.00    -0.323 N 
ATOM     21  C11 <0> d           4.577   0.919   5.685  0.00  0.00     0.041 A 
ATOM     22  O6  <0> d           6.379   2.468   5.878  0.00  0.00    -0.340 OA
ATOM     23  C10 <0> d           3.812   0.075   4.902  0.00  0.00     0.035 A 
ATOM     24  C16 <0> d           7.755   2.596   5.510  0.00  0.00     0.278 C 
ATOM     25  C15 <0> d           7.864   2.797   4.020  0.00  0.00     0.246 C 
ATOM     26  O5  <0> d           8.769   3.461   3.560  0.00  0.00    -0.271 OA
ATOM     27  H10 <0> d           7.023   2.338   2.237  0.00  0.00     0.169 HD
ENDBRANCH  15  16
ENDBRANCH   1  15
TORSDOF 5
