REMARK  4 active torsions:
REMARK  status: ('A' for Active; 'I' for Inactive)
REMARK    1  A    between atoms: C5_5  and  N1_9 
REMARK       I    between atoms: N1_9  and  C8_10 
REMARK    2  A    between atoms: C8_10  and  C9_12 
REMARK    3  A    between atoms: C12_15  and  S1_17 
REMARK    4  A    between atoms: S1_17  and  N2_20 
ROOT
ATOM      1  N1  <0> d           0.057  -4.170  -0.023  0.00  0.00    -0.320 N 
ATOM      2  C8  <0> d          -0.042  -4.838  -1.189  0.00  0.00     0.280 C 
ATOM      3  O1  <0> d          -0.055  -4.227  -2.241  0.00  0.00    -0.265 OA
ATOM      4  H7  <0> d           0.149  -4.659   0.810  0.00  0.00     0.169 HD
ENDROOT
BRANCH   2   5
ATOM      5  C9  <0> d          -0.133  -6.301  -1.190  0.00  0.00     0.144 A 
ATOM      6  O2  <0> d          -0.129  -7.097  -0.100  0.00  0.00    -0.292 OA
ATOM      7  C12 <0> d          -0.232  -8.376  -0.483  0.00  0.00     0.190 A 
ATOM      8  C11 <0> d          -0.294  -8.422  -1.832  0.00  0.00     0.054 A 
ATOM      9  C10 <0> d          -0.232  -7.099  -2.294  0.00  0.00     0.046 A 
BRANCH   7  10
ATOM     10  S1  <0> d          -0.272  -9.770   0.595  0.00  0.00     0.279 S 
ATOM     11  O3  <0> d          -0.739  -9.298   1.851  0.00  0.00    -0.199 OA
ATOM     12  O4  <0> d          -0.921 -10.815  -0.117  0.00  0.00    -0.199 OA
BRANCH  10  13
ATOM     13  N2  <0> d           1.295 -10.255   0.824  0.00  0.00    -0.323 N 
ATOM     14  H10 <0> d           1.554 -10.678   1.658  0.00  0.00     0.169 HD
ATOM     15  H11 <0> d           1.953 -10.117   0.126  0.00  0.00     0.169 HD
ENDBRANCH  10  13
ENDBRANCH   7  10
ENDBRANCH   2   5
BRANCH   1  16
ATOM     16  C5  <0> d           0.028  -2.772  -0.013  0.00  0.00     0.052 A 
ATOM     17  C4  <0> d          -0.595  -2.081  -1.045  0.00  0.00     0.031 A 
ATOM     18  C3  <0> d          -0.622  -0.701  -1.033  0.00  0.00     0.009 A 
ATOM     19  C2  <0> d          -0.031  -0.005   0.006  0.00  0.00    -0.061 A 
ATOM     20  C1  <0> d          -0.063   1.502   0.016  0.00  0.00     0.048 C 
ATOM     21  C7  <0> d           0.595  -0.688   1.032  0.00  0.00     0.028 A 
ATOM     22  C6  <0> d           0.622  -2.070   1.029  0.00  0.00     0.038 A 
ATOM     23 Br1  <0> d           1.470  -3.004   2.437  0.00  0.00    -0.049 Br
ENDBRANCH   1  16
TORSDOF 4
