REMARK  4 active torsions:
REMARK  status: ('A' for Active; 'I' for Inactive)
REMARK    1  A    between atoms: C2_2  and  C3_3 
REMARK    2  A    between atoms: C2_2  and  S1_15 
REMARK       I    between atoms: C3_3  and  N1_5 
REMARK    3  A    between atoms: N1_5  and  C4_6 
REMARK    4  A    between atoms: S1_15  and  C10_16 
ROOT
ATOM      1  C3  <0> d           0.584  -0.529  -1.317  0.00  0.00     0.274 C 
ATOM      2  O1  <0> d          -0.151  -0.846  -2.234  0.00  0.00    -0.269 OA
ATOM      3  N1  <0> d           1.898  -0.640  -1.452  0.00  0.00    -0.025 NA
ENDROOT
BRANCH   1   4
ATOM      4  C2  <0> d           0.001  -0.009  -0.028  0.00  0.00     0.143 C 
ATOM      5  C1  <0> d          -0.020   1.521  -0.058  0.00  0.00     0.031 C 
BRANCH   4   6
ATOM      6  S1  <0> d          -1.692  -0.633   0.164  0.00  0.00    -0.116 SA
BRANCH   6   7
ATOM      7  C10 <0> d          -1.481  -2.361   0.434  0.00  0.00     0.001 A 
ATOM      8  C15 <0> d          -2.590  -3.196   0.502  0.00  0.00     0.020 A 
ATOM      9  C14 <0> d          -2.421  -4.550   0.710  0.00  0.00     0.020 A 
ATOM     10  C13 <0> d          -1.150  -5.075   0.860  0.00  0.00     0.011 A 
ATOM     11  C12 <0> d          -0.044  -4.246   0.799  0.00  0.00     0.020 A 
ATOM     12 Br1  <0> d          -0.924  -6.930   1.151  0.00  0.00    -0.051 Br
ATOM     13  C11 <0> d          -0.206  -2.892   0.586  0.00  0.00     0.020 A 
ENDBRANCH   6   7
ENDBRANCH   4   6
ENDBRANCH   1   4
BRANCH   3  14
ATOM     14  C4  <0> d           2.416  -1.101  -2.595  0.00  0.00     0.731 A 
ATOM     15  N4  <0> d           3.741  -1.267  -2.869  0.00  0.00    -0.136 N 
ATOM     16  C5  <0> d           3.853  -1.766  -4.151  0.00  0.00     0.170 A 
ATOM     17  C6  <0> d           4.867  -1.033  -2.122  0.00  0.00     0.117 A 
ATOM     18  N3  <0> d           2.646  -1.896  -4.654  0.00  0.00    -0.141 NA
ATOM     19  C9  <0> d           5.137  -2.035  -4.686  0.00  0.00     0.053 A 
ATOM     20  N2  <0> d           1.722  -1.480  -3.685  0.00  0.00    -0.105 N 
ATOM     21  H13 <0> d           0.757  -1.468  -3.783  0.00  0.00     0.208 HD
ATOM     22  C8  <0> d           6.236  -1.788  -3.932  0.00  0.00     0.005 A 
ATOM     23  C7  <0> d           6.090  -1.281  -2.626  0.00  0.00     0.018 A 
ENDBRANCH   3  14
TORSDOF 4
