REMARK  6 active torsions:
REMARK  status: ('A' for Active; 'I' for Inactive)
REMARK    1  A    between atoms: C4_4  and  C7_7 
REMARK    2  A    between atoms: C7_7  and  C8_9 
REMARK    3  A    between atoms: C11_13  and  N1_14 
REMARK       I    between atoms: N1_14  and  C12_15 
REMARK    4  A    between atoms: C12_15  and  C13_17 
REMARK    5  A    between atoms: C13_17  and  S2_18 
REMARK    6  A    between atoms: S2_18  and  C14_19 
ROOT
ATOM      1  C8  <0> d           3.594  -2.141   0.414  0.00  0.00     0.056 A 
ATOM      2  C9  <0> d           4.787  -2.970   0.442  0.00  0.00    -0.028 A 
ATOM      3  C10 <0> d           4.546  -4.289   0.290  0.00  0.00    -0.008 A 
ATOM      4  S1  <0> d           2.790  -4.411   0.118  0.00  0.00    -0.075 SA
ATOM      5  C11 <0> d           2.376  -2.788   0.245  0.00  0.00     0.091 A 
ATOM      6  C19 <0> d           5.560  -5.392   0.273  0.00  0.00     0.047 C 
ATOM      7  C20 <0> d           6.949  -4.767   0.076  0.00  0.00     0.005 C 
ATOM      8  C21 <0> d           7.108  -3.596   1.050  0.00  0.00     0.005 C 
ATOM      9  C22 <0> d           6.201  -2.439   0.625  0.00  0.00     0.041 C 
ENDROOT
BRANCH   5  10
ATOM     10  N1  <0> d           1.112  -2.225   0.191  0.00  0.00    -0.320 N 
ATOM     11  C12 <0> d           0.023  -3.017   0.133  0.00  0.00     0.232 C 
ATOM     12  O2  <0> d           0.150  -4.223   0.127  0.00  0.00    -0.272 OA
ATOM     13  H6  <0> d           1.010  -1.260   0.195  0.00  0.00     0.169 HD
BRANCH  11  14
ATOM     14  C13 <0> d          -1.352  -2.404   0.074  0.00  0.00     0.184 C 
BRANCH  14  15
ATOM     15  S2  <0> d          -2.598  -3.720   0.003  0.00  0.00    -0.101 SA
BRANCH  15  16
ATOM     16  C14 <0> d          -4.131  -2.854  -0.061  0.00  0.00     0.102 A 
ATOM     17  N2  <0> d          -5.261  -3.499   0.188  0.00  0.00    -0.194 N 
ATOM     18  C18 <0> d          -6.430  -2.885   0.157  0.00  0.00     0.127 A 
ATOM     19  O3  <0> d          -5.214  -4.879   0.502  0.00  0.00    -0.080 OA
ATOM     20  C17 <0> d          -6.516  -1.542  -0.151  0.00  0.00     0.020 A 
ATOM     21  C16 <0> d          -5.355  -0.831  -0.424  0.00  0.00     0.004 A 
ATOM     22  C15 <0> d          -4.144  -1.499  -0.378  0.00  0.00     0.039 A 
ENDBRANCH  15  16
ENDBRANCH  14  15
ENDBRANCH  11  14
ENDBRANCH   5  10
BRANCH   1  23
ATOM     23  C7  <0> d           3.671  -0.686   0.563  0.00  0.00     0.195 C 
ATOM     24  O1  <0> d           3.700  -0.189   1.674  0.00  0.00    -0.287 OA
BRANCH  23  25
ATOM     25  C4  <0> d           3.713   0.179  -0.635  0.00  0.00     0.015 A 
ATOM     26  C3  <0> d           3.676   1.568  -0.499  0.00  0.00     0.015 A 
ATOM     27  C2  <0> d           3.716   2.370  -1.621  0.00  0.00     0.001 A 
ATOM     28  C1  <0> d           3.793   1.800  -2.880  0.00  0.00     0.000 A 
ATOM     29  C6  <0> d           3.830   0.424  -3.022  0.00  0.00     0.001 A 
ATOM     30  C5  <0> d           3.790  -0.389  -1.908  0.00  0.00     0.015 A 
ENDBRANCH  23  25
ENDBRANCH   1  23
TORSDOF 6
