REMARK  5 active torsions:
REMARK  status: ('A' for Active; 'I' for Inactive)
REMARK    1  A    between atoms: C5_6  and  O4_24 
REMARK    2  A    between atoms: C6_7  and  C7_8 
REMARK    3  A    between atoms: C7_8  and  N2_9 
REMARK    4  A    between atoms: N2_9  and  S1_10 
REMARK    5  A    between atoms: S1_10  and  C8_13 
ROOT
ATOM      1  S1  <0> d          -1.664   0.639   4.524  0.00  0.00     0.259 S 
ATOM      2  O1  <0> d          -3.072   0.798   4.632  0.00  0.00    -0.201 OA
ATOM      3  O2  <0> d          -0.935  -0.267   5.341  0.00  0.00    -0.201 OA
ENDROOT
BRANCH   1   4
ATOM      4  N2  <0> d          -1.354   0.215   2.954  0.00  0.00    -0.311 N 
ATOM      5  H7  <0> d          -2.087   0.108   2.327  0.00  0.00     0.172 HD
BRANCH   4   6
ATOM      6  C7  <0> d           0.026   0.001   2.512  0.00  0.00     0.176 C 
BRANCH   6   7
ATOM      7  C6  <0> d           0.023  -0.718   1.187  0.00  0.00     0.019 A 
ATOM      8  C2  <0> d           0.002  -0.004   0.002  0.00  0.00    -0.048 A 
ATOM      9  C1  <0> d          -0.018   1.503   0.010  0.00  0.00     0.049 C 
ATOM     10  C3  <0> d           0.006  -0.708  -1.195  0.00  0.00     0.034 A 
ATOM     11  C4  <0> d           0.025  -2.087  -1.167  0.00  0.00     0.034 A 
ATOM     12  N1  <0> d           0.040  -2.741  -0.021  0.00  0.00    -0.229 NA
ATOM     13  C18 <0> d           0.030  -2.858  -2.462  0.00  0.00     0.070 C 
ATOM     14  C5  <0> d           0.036  -2.106   1.140  0.00  0.00     0.172 A 
BRANCH  14  15
ATOM     15  O4  <0> d           0.051  -2.818   2.295  0.00  0.00    -0.339 OA
ATOM     16  C17 <0> d           0.070  -4.242   2.179  0.00  0.00     0.211 C 
ENDBRANCH  14  15
ENDBRANCH   6   7
ENDBRANCH   4   6
ENDBRANCH   1   4
BRANCH   1  17
ATOM     17  C8  <0> d          -0.957   2.232   4.783  0.00  0.00     0.080 A 
ATOM     18  C13 <0> d          -1.708   3.368   4.543  0.00  0.00     0.034 A 
ATOM     19  C12 <0> d          -1.157   4.617   4.750  0.00  0.00    -0.029 A 
ATOM     20  C11 <0> d           0.155   4.732   5.189  0.00  0.00     0.041 A 
ATOM     21  C14 <0> d          -1.974   5.857   4.495  0.00  0.00     0.050 C 
ATOM     22  C10 <0> d           0.909   3.590   5.424  0.00  0.00     0.031 A 
ATOM     23  N3  <0> d           0.714   5.998   5.393  0.00  0.00    -0.327 N 
ATOM     24  C9  <0> d           0.351   2.343   5.220  0.00  0.00     0.027 A 
ATOM     25  C16 <0> d          -0.076   7.078   5.533  0.00  0.00     0.222 C 
ATOM     26  H15 <0> d           1.678   6.098   5.435  0.00  0.00     0.169 HD
ATOM     27  C15 <0> d          -1.575   6.946   5.491  0.00  0.00     0.108 C 
ATOM     28  O3  <0> d           0.425   8.171   5.694  0.00  0.00    -0.273 OA
ENDBRANCH   1  17
TORSDOF 5
