REMARK  3 active torsions:
REMARK  status: ('A' for Active; 'I' for Inactive)
REMARK    1  A    between atoms: C2_2  and  C3_3 
REMARK    2  A    between atoms: C3_3  and  N1_5 
REMARK       I    between atoms: N1_5  and  C5_6 
REMARK       I    between atoms: C5_6  and  N2_8 
REMARK    3  A    between atoms: N2_8  and  C6_9 
ROOT
ATOM      1  C6  <0> d           4.945   0.543   3.468  0.00  0.00     0.122 C 
ATOM      2  C7  <0> d           6.436   0.367   3.154  0.00  0.00     0.039 C 
ATOM      3  C8  <0> d           7.266   0.776   4.374  0.00  0.00    -0.040 C 
ATOM      4  C9  <0> d           7.181   2.296   4.565  0.00  0.00     0.074 C 
ATOM      5  C10 <0> d           5.727   2.700   4.530  0.00  0.00     0.062 A 
ATOM      6  C11 <0> d           4.740   1.919   4.045  0.00  0.00    -0.003 A 
ATOM      7  C12 <0> d           3.536   2.633   4.187  0.00  0.00     0.044 A 
ATOM      8  C13 <0> d           3.854   3.815   4.752  0.00  0.00     0.050 A 
ATOM      9  O2  <0> d           5.185   3.848   4.954  0.00  0.00    -0.319 OA
ATOM     10  C14 <0> d           2.883   4.915   5.097  0.00  0.00     0.076 C 
ATOM     11  C15 <0> d           8.725   0.371   4.158  0.00  0.00     0.015 C 
ATOM     12  C16 <0> d           6.721   0.075   5.620  0.00  0.00     0.015 C 
ENDROOT
BRANCH   1  13
ATOM     13  N2  <0> d           4.162   0.401   2.239  0.00  0.00    -0.334 N 
ATOM     14  C5  <0> d           2.869   0.026   2.303  0.00  0.00     0.317 C 
ATOM     15  N1  <0> d           2.148  -0.104   1.172  0.00  0.00    -0.339 N 
ATOM     16  O1  <0> d           2.352  -0.194   3.381  0.00  0.00    -0.247 OA
ATOM     17  H11 <0> d           2.559   0.072   0.311  0.00  0.00     0.164 HD
ATOM     18  H12 <0> d           4.573   0.577   1.378  0.00  0.00     0.165 HD
BRANCH  15  19
ATOM     19  C3  <0> d           0.742  -0.511   1.242  0.00  0.00     0.081 C 
ATOM     20  C4  <0> d           0.655  -2.037   1.299  0.00  0.00     0.032 C 
BRANCH  19  21
ATOM     21  C2  <0> d           0.002  -0.004   0.002  0.00  0.00     0.020 C 
ATOM     22  C1  <0> d          -0.019   1.526   0.010  0.00  0.00     0.007 C 
ENDBRANCH  19  21
ENDBRANCH  15  19
ENDBRANCH   1  13
TORSDOF 3
