REMARK  4 active torsions:
REMARK  status: ('A' for Active; 'I' for Inactive)
REMARK    1  A    between atoms: C2_2  and  C3_3 
REMARK    2  A    between atoms: C2_2  and  N2_14 
REMARK    3  A    between atoms: N2_14  and  C11_15 
REMARK    4  A    between atoms: C11_15  and  C12_16 
ROOT
ATOM      1  C3  <0> d           0.731  -0.503   1.223  0.00  0.00    -0.026 A 
ATOM      2  C4  <0> d           2.114  -0.513   1.244  0.00  0.00     0.012 A 
ATOM      3  C5  <0> d           2.790  -0.968   2.362  0.00  0.00     0.040 A 
ATOM      4  C6  <0> d           2.081  -1.417   3.462  0.00  0.00     0.096 A 
ATOM      5  C7  <0> d           0.687  -1.408   3.440  0.00  0.00     0.069 A 
ATOM      6  C8  <0> d           0.015  -0.945   2.321  0.00  0.00     0.041 A 
ATOM      7  N1  <0> d          -0.020  -1.868   4.560  0.00  0.00    -0.323 N 
ATOM      8  C9  <0> d           0.634  -2.008   5.734  0.00  0.00     0.246 C 
ATOM      9  O1  <0> d           0.051  -2.433   6.709  0.00  0.00    -0.271 OA
ATOM     10  C10 <0> d           2.091  -1.634   5.827  0.00  0.00     0.278 C 
ATOM     11  O2  <0> d           2.729  -1.867   4.569  0.00  0.00    -0.340 OA
ATOM     12  H9  <0> d          -0.964  -2.081   4.494  0.00  0.00     0.169 HD
ENDROOT
BRANCH   1  13
ATOM     13  C2  <0> d           0.002  -0.004   0.002  0.00  0.00     0.214 C 
ATOM     14  C1  <0> d          -0.019   1.526   0.010  0.00  0.00     0.045 C 
BRANCH  13  15
ATOM     15  N2  <0> d           0.690  -0.478  -1.207  0.00  0.00    -0.067 N 
ATOM     16  H12 <0> d           1.608  -0.063  -1.256  0.00  0.00     0.277 HD
ATOM     17  H23 <0> d           0.776  -1.482  -1.172  0.00  0.00     0.277 HD
BRANCH  15  18
ATOM     18  C11 <0> d          -0.086  -0.093  -2.394  0.00  0.00     0.239 C 
BRANCH  18  19
ATOM     19  C12 <0> d           0.630  -0.587  -3.652  0.00  0.00     0.035 C 
ATOM     20  C16 <0> d           0.649  -2.117  -3.664  0.00  0.00     0.173 C 
ATOM     21  O3  <0> d           1.266  -2.576  -4.869  0.00  0.00    -0.391 OA
ATOM     22  C15 <0> d           0.588  -2.175  -6.061  0.00  0.00     0.167 C 
ATOM     23  C14 <0> d           0.569  -0.646  -6.146  0.00  0.00     0.027 C 
ATOM     24  C13 <0> d          -0.111  -0.082  -4.894  0.00  0.00     0.010 C 
ENDBRANCH  18  19
ENDBRANCH  15  18
ENDBRANCH  13  15
ENDBRANCH   1  13
TORSDOF 4
