REMARK  3 active torsions:
REMARK  status: ('A' for Active; 'I' for Inactive)
REMARK    1  A    between atoms: C2_2  and  N1_3 
REMARK    2  A    between atoms: C10_12  and  C11_14 
REMARK       I    between atoms: C11_14  and  N3_16 
REMARK    3  A    between atoms: N3_16  and  C12_17 
ROOT
ATOM      1  N1  <0> d           0.791  -0.656   1.731  0.00  0.00    -0.269 N 
ATOM      2  C3  <0> d           0.214  -1.049   2.913  0.00  0.00     0.067 A 
ATOM      3  C4  <0> d          -1.149  -0.884   3.147  0.00  0.00     0.032 A 
ATOM      4  C5  <0> d          -1.689  -1.292   4.346  0.00  0.00     0.002 A 
ATOM      5  C6  <0> d          -0.892  -1.866   5.328  0.00  0.00     0.001 A 
ATOM      6  C7  <0> d           0.449  -2.039   5.120  0.00  0.00     0.018 A 
ATOM      7  C8  <0> d           1.014  -1.633   3.914  0.00  0.00     0.045 A 
ATOM      8  C9  <0> d           2.452  -1.791   3.629  0.00  0.00     0.220 A 
ATOM      9  O1  <0> d           3.219  -2.287   4.436  0.00  0.00    -0.285 OA
ATOM     10  C10 <0> d           2.909  -1.316   2.310  0.00  0.00     0.197 A 
ATOM     11  N2  <0> d           2.038  -0.796   1.476  0.00  0.00    -0.162 NA
ENDROOT
BRANCH  10  12
ATOM     12  C11 <0> d           4.333  -1.429   1.928  0.00  0.00     0.302 C 
ATOM     13  O2  <0> d           5.136  -1.918   2.705  0.00  0.00    -0.263 OA
ATOM     14  N3  <0> d           4.738  -0.998   0.734  0.00  0.00    -0.208 NA
BRANCH  14  15
ATOM     15  C12 <0> d           5.694  -0.058   0.649  0.00  0.00     0.063 A 
ATOM     16  C16 <0> d           6.222   0.323  -0.605  0.00  0.00     0.048 A 
ATOM     17  C15 <0> d           7.180   1.277  -0.658  0.00  0.00     0.090 A 
ATOM     18  N4  <0> d           7.641   1.857   0.476  0.00  0.00    -0.375 N 
ATOM     19  C14 <0> d           7.159   1.510   1.694  0.00  0.00     0.090 A 
ATOM     20  H14 <0> d           8.331   2.536   0.415  0.00  0.00     0.164 HD
ATOM     21  C13 <0> d           6.197   0.567   1.813  0.00  0.00     0.048 A 
ENDBRANCH  14  15
ENDBRANCH  10  12
BRANCH   1  22
ATOM     22  C2  <0> d          -0.064  -0.052   0.706  0.00  0.00     0.147 C 
ATOM     23  C1  <0> d          -0.102   1.465   0.904  0.00  0.00     0.028 C 
ENDBRANCH   1  22
TORSDOF 3
