REMARK  3 active torsions:
REMARK  status: ('A' for Active; 'I' for Inactive)
REMARK    1  A    between atoms: C8_9  and  C9_11 
REMARK       I    between atoms: C9_11  and  N1_13 
REMARK    2  A    between atoms: N1_13  and  C10_14 
REMARK    3  A    between atoms: C10_14  and  C11_15 
ROOT
ATOM      1  C9  <0> d           6.220  -0.141  -0.059  0.00  0.00     0.258 C 
ATOM      2  O1  <0> d           6.541  -1.314  -0.068  0.00  0.00    -0.267 OA
ATOM      3  N1  <0> d           7.168   0.817  -0.063  0.00  0.00    -0.352 N 
ATOM      4  H6  <0> d           6.912   1.753  -0.056  0.00  0.00     0.163 HD
ENDROOT
BRANCH   1   5
ATOM      5  C8  <0> d           4.798   0.233  -0.043  0.00  0.00     0.074 A 
ATOM      6  C7  <0> d           3.709  -0.581  -0.037  0.00  0.00     0.037 A 
ATOM      7  C4  <0> d           2.417  -0.024  -0.021  0.00  0.00    -0.015 A 
ATOM      8  C3  <0> d           2.367   1.390  -0.013  0.00  0.00     0.016 A 
ATOM      9  C5  <0> d           1.170  -0.700  -0.013  0.00  0.00     0.055 A 
ATOM     10  C2  <0> d           1.175   2.083   0.002  0.00  0.00     0.023 A 
ATOM     11  S1  <0> d           4.077   1.865  -0.027  0.00  0.00    -0.084 SA
ATOM     12  C1  <0> d          -0.017   1.387   0.010  0.00  0.00     0.043 A 
ATOM     13  C6  <0> d           0.002  -0.004   0.002  0.00  0.00     0.117 A 
ATOM     14  F1  <0> d          -1.168  -0.679   0.010  0.00  0.00    -0.206 F 
ENDBRANCH   1   5
BRANCH   3  15
ATOM     15  C10 <0> d           8.585   0.446  -0.078  0.00  0.00     0.164 C 
BRANCH  15  16
ATOM     16  C11 <0> d           9.432   1.692  -0.080  0.00  0.00    -0.004 A 
ATOM     17  C13 <0> d           9.904   2.368   1.050  0.00  0.00     0.148 A 
ATOM     18  N3  <0> d          10.604   3.398   0.647  0.00  0.00    -0.187 NA
ATOM     19  N2  <0> d          10.590   3.416  -0.753  0.00  0.00    -0.289 N 
ATOM     20  C12 <0> d           9.864   2.359  -1.175  0.00  0.00     0.119 A 
ATOM     21  H1  <0> d          11.024   4.072  -1.320  0.00  0.00     0.188 HD
ENDBRANCH  15  16
ENDBRANCH   3  15
TORSDOF 3
