REMARK  7 active torsions:
REMARK  status: ('A' for Active; 'I' for Inactive)
REMARK    1  A    between atoms: N1_2  and  C2_3 
REMARK    2  A    between atoms: N1_2  and  S1_6 
REMARK    3  A    between atoms: C2_3  and  C3_4 
REMARK    4  A    between atoms: C3_4  and  O1_5 
REMARK    5  A    between atoms: S1_6  and  C4_9 
REMARK    6  A    between atoms: C4_9  and  C5_10 
REMARK    7  A    between atoms: C8_13  and  C11_16 
ROOT
ATOM      1  C5  <0> d           1.870  -1.774  -3.164  0.00  0.00    -0.043 A 
ATOM      2  C6  <0> d           1.938  -3.156  -3.167  0.00  0.00     0.009 A 
ATOM      3  C7  <0> d           2.046  -3.842  -4.359  0.00  0.00     0.015 A 
ATOM      4  C8  <0> d           2.086  -3.138  -5.565  0.00  0.00     0.001 A 
ATOM      5  C9  <0> d           2.017  -1.743  -5.554  0.00  0.00     0.015 A 
ATOM      6  C10 <0> d           1.904  -1.071  -4.356  0.00  0.00     0.009 A 
ENDROOT
BRANCH   1   7
ATOM      7  C4  <0> d           1.752  -1.031  -1.858  0.00  0.00     0.201 C 
BRANCH   7   8
ATOM      8  S1  <0> d          -0.000  -0.824  -1.437  0.00  0.00     0.232 S 
ATOM      9  O2  <0> d          -0.583  -2.084  -1.135  0.00  0.00    -0.205 OA
ATOM     10  O3  <0> d          -0.624   0.060  -2.357  0.00  0.00    -0.205 OA
BRANCH   8  11
ATOM     11  N1  <0> d           0.002  -0.004   0.002  0.00  0.00    -0.313 N 
ATOM     12  C1  <0> d          -0.018   1.461   0.010  0.00  0.00     0.162 C 
BRANCH  11  13
ATOM     13  C2  <0> d           0.024  -0.743   1.267  0.00  0.00     0.160 C 
BRANCH  13  14
ATOM     14  C3  <0> d          -1.406  -0.912   1.784  0.00  0.00     0.184 C 
BRANCH  14  15
ATOM     15  O1  <0> d          -2.146  -1.733   0.879  0.00  0.00    -0.399 OA
ATOM     16  H8  <0> d          -3.064  -1.883   1.144  0.00  0.00     0.209 HD
ENDBRANCH  14  15
ENDBRANCH  13  14
ENDBRANCH  11  13
ENDBRANCH   8  11
ENDBRANCH   7   8
ENDBRANCH   1   7
BRANCH   4  17
ATOM     17  C11 <0> d           2.202  -3.865  -6.844  0.00  0.00     0.104 C 
ATOM     18  S2  <0> d           1.436  -5.384  -7.038  0.00  0.00    -0.060 SA
ATOM     19  N2  <0> d           2.910  -3.334  -7.860  0.00  0.00    -0.390 N 
ATOM     20  H15 <0> d           3.344  -2.473  -7.750  0.00  0.00     0.157 HD
ATOM     21  H16 <0> d           2.986  -3.811  -8.700  0.00  0.00     0.157 HD
ENDBRANCH   4  17
TORSDOF 7
