REMARK  3 active torsions:
REMARK  status: ('A' for Active; 'I' for Inactive)
REMARK    1  A    between atoms: C9_10  and  C10_11 
REMARK    2  A    between atoms: C10_11  and  N2_12 
REMARK    3  A    between atoms: C13_15  and  C16_18 
ROOT
ATOM      1  N2  <0> d          -1.203  -4.612   1.988  0.00  0.00    -0.070 N 
ATOM      2  C11 <0> d          -1.211  -4.157   0.593  0.00  0.00     0.235 C 
ATOM      3  C12 <0> d          -1.138  -5.366  -0.343  0.00  0.00     0.038 C 
ATOM      4  C13 <0> d          -2.347  -6.272  -0.093  0.00  0.00     0.041 C 
ATOM      5  C14 <0> d          -2.370  -6.681   1.383  0.00  0.00     0.038 C 
ATOM      6  C15 <0> d          -2.397  -5.423   2.254  0.00  0.00     0.235 C 
ATOM      7  H29 <0> d          -0.377  -5.168   2.154  0.00  0.00     0.279 HD
ENDROOT
BRANCH   1   8
ATOM      8  C10 <0> d          -1.195  -3.447   2.882  0.00  0.00     0.246 C 
BRANCH   8   9
ATOM      9  C9  <0> d           0.120  -2.683   2.712  0.00  0.00     0.069 A 
ATOM     10  C6  <0> d           0.110  -1.423   3.548  0.00  0.00    -0.024 A 
ATOM     11  C5  <0> d          -0.716  -0.317   3.510  0.00  0.00     0.010 A 
ATOM     12  C7  <0> d           1.145  -1.496   4.468  0.00  0.00     0.041 A 
ATOM     13  C4  <0> d          -0.520   0.727   4.395  0.00  0.00     0.001 A 
ATOM     14  C3  <0> d           0.505   0.662   5.320  0.00  0.00     0.009 A 
ATOM     15  C2  <0> d           1.333  -0.440   5.362  0.00  0.00    -0.035 A 
ATOM     16  C1  <0> d           2.448  -0.503   6.374  0.00  0.00     0.050 C 
ATOM     17  N1  <0> d           1.864  -2.686   4.341  0.00  0.00    -0.384 N 
ATOM     18  C8  <0> d           1.303  -3.500   3.259  0.00  0.00     0.087 A 
ATOM     19  H10 <0> d           2.624  -2.937   4.889  0.00  0.00     0.160 HD
ATOM     20  C21 <0> d           2.353  -3.730   2.170  0.00  0.00     0.033 C 
ENDBRANCH   8   9
ENDBRANCH   1   8
BRANCH   4  21
ATOM     21  C16 <0> d          -2.241  -7.503  -0.955  0.00  0.00     0.046 A 
ATOM     22  N4  <0> d          -1.194  -8.322  -0.826  0.00  0.00    -0.240 NA
ATOM     23  C19 <0> d          -1.075  -9.399  -1.555  0.00  0.00     0.103 A 
ATOM     24  N3  <0> d          -1.999  -9.729  -2.479  0.00  0.00    -0.312 N 
ATOM     25  C20 <0> d           0.124 -10.291  -1.363  0.00  0.00     0.091 C 
ATOM     26  C18 <0> d          -3.079  -8.940  -2.663  0.00  0.00     0.248 A 
ATOM     27  H3  <0> d          -1.888 -10.532  -3.012  0.00  0.00     0.170 HD
ATOM     28  C17 <0> d          -3.210  -7.780  -1.872  0.00  0.00     0.102 A 
ATOM     29  O1  <0> d          -3.924  -9.224  -3.495  0.00  0.00    -0.268 OA
ENDBRANCH   4  21
TORSDOF 3
