REMARK  4 active torsions:
REMARK  status: ('A' for Active; 'I' for Inactive)
REMARK    1  A    between atoms: C4_4  and  C7_8 
REMARK    2  A    between atoms: C7_8  and  N1_10 
REMARK    3  A    between atoms: N1_10  and  C9_11 
REMARK    4  A    between atoms: C9_11  and  C10_12 
ROOT
ATOM      1  N1  <0> d          -2.756  -3.098  -0.587  0.00  0.00    -0.067 N 
ATOM      2  H13 <0> d          -3.248  -2.450   0.009  0.00  0.00     0.277 HD
ATOM      3  H22 <0> d          -2.639  -2.691  -1.503  0.00  0.00     0.277 HD
ENDROOT
BRANCH   1   4
ATOM      4  C7  <0> d          -1.437  -3.390  -0.009  0.00  0.00     0.217 C 
ATOM      5  C8  <0> d          -1.609  -3.892   1.426  0.00  0.00     0.045 C 
BRANCH   4   6
ATOM      6  C4  <0> d          -0.601  -2.136  -0.007  0.00  0.00     0.004 A 
ATOM      7  C3  <0> d          -1.078  -0.805   0.003  0.00  0.00     0.044 A 
ATOM      8  C2  <0> d           0.002  -0.004   0.002  0.00  0.00     0.050 A 
ATOM      9  C1  <0> d          -0.018   1.503   0.010  0.00  0.00     0.076 C 
ATOM     10  O1  <0> d           1.102  -0.775  -0.013  0.00  0.00    -0.320 OA
ATOM     11  C5  <0> d           0.742  -2.069  -0.013  0.00  0.00     0.058 A 
ATOM     12  C6  <0> d           1.684  -3.245  -0.023  0.00  0.00     0.077 C 
ENDBRANCH   4   6
ENDBRANCH   1   4
BRANCH   1  13
ATOM     13  C9  <0> d          -3.527  -4.343  -0.700  0.00  0.00     0.238 C 
BRANCH  13  14
ATOM     14  C10 <0> d          -4.901  -4.039  -1.302  0.00  0.00     0.026 C 
ATOM     15  C13 <0> d          -5.674  -5.367  -1.542  0.00  0.00     0.146 C 
ATOM     16  S1  <0> d          -7.402  -4.735  -1.655  0.00  0.00     0.144 S 
ATOM     17  C12 <0> d          -7.200  -3.137  -0.769  0.00  0.00     0.141 C 
ATOM     18  O2  <0> d          -7.710  -4.473  -3.017  0.00  0.00    -0.228 OA
ATOM     19  O3  <0> d          -8.254  -5.581  -0.895  0.00  0.00    -0.228 OA
ATOM     20  C11 <0> d          -5.718  -3.180  -0.323  0.00  0.00     0.022 C 
ENDBRANCH  13  14
ENDBRANCH   1  13
TORSDOF 4
