REMARK  4 active torsions:
REMARK  status: ('A' for Active; 'I' for Inactive)
REMARK    1  A    between atoms: C5_5  and  S1_7 
REMARK    2  A    between atoms: S1_7  and  N1_10 
REMARK    3  A    between atoms: C13_17  and  S2_19 
REMARK    4  A    between atoms: S2_19  and  N2_22 
ROOT
ATOM      1  N1  <0> d          -2.363   3.684   0.059  0.00  0.00    -0.271 N 
ATOM      2  C7  <0> d          -3.149   2.465  -0.151  0.00  0.00     0.146 A 
ATOM      3  C8  <0> d          -2.136   1.312  -0.061  0.00  0.00     0.062 A 
ATOM      4  C9  <0> d          -0.810   1.991   0.197  0.00  0.00    -0.028 A 
ATOM      5  C10 <0> d          -1.020   3.360   0.259  0.00  0.00     0.051 A 
ATOM      6  C11 <0> d           0.068   4.203   0.494  0.00  0.00     0.032 A 
ATOM      7  C12 <0> d           1.331   3.676   0.667  0.00  0.00     0.027 A 
ATOM      8  C13 <0> d           1.528   2.309   0.610  0.00  0.00     0.080 A 
ATOM      9  C14 <0> d           0.456   1.468   0.377  0.00  0.00     0.034 A 
ENDROOT
BRANCH   1  10
ATOM     10  S1  <0> d          -2.978   5.221   0.060  0.00  0.00     0.267 S 
ATOM     11  O1  <0> d          -1.953   6.069  -0.438  0.00  0.00    -0.200 OA
ATOM     12  O2  <0> d          -4.264   5.145  -0.541  0.00  0.00    -0.200 OA
BRANCH  10  13
ATOM     13  C5  <0> d          -3.236   5.678   1.743  0.00  0.00     0.101 A 
ATOM     14  C4  <0> d          -4.206   5.038   2.493  0.00  0.00     0.057 A 
ATOM     15  C3  <0> d          -4.408   5.397   3.814  0.00  0.00     0.025 A 
ATOM     16 Cl1  <0> d          -5.171   3.785   1.777  0.00  0.00    -0.083 Cl
ATOM     17  C2  <0> d          -3.639   6.395   4.383  0.00  0.00     0.002 A 
ATOM     18  C1  <0> d          -2.669   7.033   3.633  0.00  0.00     0.002 A 
ATOM     19  C6  <0> d          -2.464   6.672   2.315  0.00  0.00     0.027 A 
ENDBRANCH  10  13
ENDBRANCH   1  10
BRANCH   8  20
ATOM     20  S2  <0> d           3.143   1.640   0.832  0.00  0.00     0.256 S 
ATOM     21  O3  <0> d           3.881   2.600   1.577  0.00  0.00    -0.201 OA
ATOM     22  O4  <0> d           2.971   0.301   1.275  0.00  0.00    -0.201 OA
BRANCH  20  23
ATOM     23  N2  <0> d           3.849   1.557  -0.663  0.00  0.00    -0.324 N 
ATOM     24  H12 <0> d           3.361   1.853  -1.447  0.00  0.00     0.169 HD
ATOM     25  H13 <0> d           4.751   1.212  -0.755  0.00  0.00     0.169 HD
ENDBRANCH  20  23
ENDBRANCH   8  20
TORSDOF 4
