REMARK  5 active torsions:
REMARK  status: ('A' for Active; 'I' for Inactive)
REMARK    1  A    between atoms: C2_2  and  C3_3 
REMARK    2  A    between atoms: C2_2  and  N4_16 
REMARK    3  A    between atoms: C3_3  and  C4_5 
REMARK    4  A    between atoms: N5_19  and  C14_22 
REMARK    5  A    between atoms: C19_27  and  O4_28 
ROOT
ATOM      1  C1  <0> d          -0.016   1.562   0.055  0.00  0.00     0.051 C 
ATOM      2  C2  <0> d          -0.000   0.032   0.017  0.00  0.00     0.293 C 
ENDROOT
BRANCH   2   3
ATOM      3  C3  <0> d           0.730  -0.492   1.227  0.00  0.00     0.201 C 
ATOM      4  O1  <0> d           0.107  -0.981   2.148  0.00  0.00    -0.290 OA
BRANCH   3   5
ATOM      5  C4  <0> d           2.138  -0.416   1.289  0.00  0.00     0.124 A 
ATOM      6  C7  <0> d           2.924   0.043   0.137  0.00  0.00     0.269 A 
ATOM      7  N2  <0> d           4.266   0.102   0.252  0.00  0.00    -0.270 N 
ATOM      8  O3  <0> d           2.375   0.369  -0.900  0.00  0.00    -0.267 OA
ATOM      9  C6  <0> d           4.876  -0.262   1.392  0.00  0.00     0.332 A 
ATOM     10  C8  <0> d           5.071   0.563  -0.882  0.00  0.00     0.164 C 
ATOM     11  N1  <0> d           4.196  -0.693   2.466  0.00  0.00    -0.289 N 
ATOM     12  O2  <0> d           6.088  -0.200   1.453  0.00  0.00    -0.246 OA
ATOM     13  C5  <0> d           2.833  -0.783   2.454  0.00  0.00     0.124 A 
ATOM     14  C9  <0> d           4.930  -1.073   3.675  0.00  0.00     0.163 C 
ATOM     15  N3  <0> d           2.160  -1.221   3.552  0.00  0.00    -0.384 N 
ATOM     16  H11 <0> d           1.200  -1.355   3.511  0.00  0.00     0.157 HD
ATOM     17  H12 <0> d           2.640  -1.399   4.376  0.00  0.00     0.157 HD
ENDBRANCH   3   5
ENDBRANCH   2   3
BRANCH   2  18
ATOM     18  N4  <0> d          -1.380  -0.472   0.022  0.00  0.00     0.103 N 
ATOM     19  C13 <0> d          -2.124   0.020  -1.146  0.00  0.00     0.293 C 
ATOM     20  C12 <0> d          -3.598  -0.376  -1.011  0.00  0.00     0.153 C 
ATOM     21  N5  <0> d          -3.674  -1.828  -0.792  0.00  0.00    -0.375 N 
ATOM     22  C11 <0> d          -2.849  -2.415   0.274  0.00  0.00     0.153 C 
ATOM     23  C10 <0> d          -1.404  -1.939   0.089  0.00  0.00     0.293 C 
BRANCH  21  24
ATOM     24  C14 <0> d          -4.510  -2.630  -1.578  0.00  0.00     0.063 A 
ATOM     25  C19 <0> d          -4.029  -3.197  -2.756  0.00  0.00     0.092 A 
ATOM     26  C18 <0> d          -4.859  -3.993  -3.527  0.00  0.00     0.039 A 
ATOM     27  C17 <0> d          -6.165  -4.217  -3.132  0.00  0.00     0.003 A 
ATOM     28  C16 <0> d          -6.645  -3.651  -1.966  0.00  0.00     0.002 A 
ATOM     29  C15 <0> d          -5.821  -2.859  -1.188  0.00  0.00     0.032 A 
BRANCH  25  30
ATOM     30  O4  <0> d          -2.745  -2.972  -3.146  0.00  0.00    -0.358 OA
ATOM     31  H25 <0> d          -2.112  -3.620  -2.809  0.00  0.00     0.217 HD
ENDBRANCH  25  30
ENDBRANCH  21  24
ENDBRANCH   2  18
TORSDOF 5
