REMARK  6 active torsions:
REMARK  status: ('A' for Active; 'I' for Inactive)
REMARK    1  A    between atoms: C2_2  and  C4_4 
REMARK    2  A    between atoms: C5_6  and  C7_9 
REMARK    3  A    between atoms: C7_9  and  S2_10 
REMARK    4  A    between atoms: S2_10  and  C8_13 
REMARK    5  A    between atoms: C8_13  and  C9_14 
REMARK       I    between atoms: C9_14  and  N2_16 
REMARK    6  A    between atoms: N2_16  and  C10_17 
ROOT
ATOM      1  S2  <0> d          -3.700  -4.285  -1.296  0.00  0.00     0.158 S 
ATOM      2  O1  <0> d          -2.316  -4.586  -1.405  0.00  0.00    -0.227 OA
ATOM      3  O2  <0> d          -4.367  -4.534  -0.066  0.00  0.00    -0.227 OA
ENDROOT
BRANCH   1   4
ATOM      4  C7  <0> d          -3.944  -2.542  -1.738  0.00  0.00     0.200 C 
BRANCH   4   5
ATOM      5  C5  <0> d          -3.259  -1.665  -0.722  0.00  0.00     0.056 A 
ATOM      6  N1  <0> d          -2.004  -1.288  -0.872  0.00  0.00    -0.249 NA
ATOM      7  C4  <0> d          -1.412  -0.526   0.013  0.00  0.00     0.078 A 
ATOM      8  S1  <0> d          -2.610  -0.276   1.168  0.00  0.00    -0.084 SA
ATOM      9  C6  <0> d          -3.904  -1.227   0.389  0.00  0.00     0.079 A 
BRANCH   7  10
ATOM     10  C2  <0> d           0.002  -0.004   0.002  0.00  0.00     0.037 C 
ATOM     11  C1  <0> d          -0.019   1.526   0.010  0.00  0.00     0.016 C 
ATOM     12  C3  <0> d           0.742  -0.511   1.242  0.00  0.00     0.016 C 
ENDBRANCH   7  10
ENDBRANCH   4   5
ENDBRANCH   1   4
BRANCH   1  13
ATOM     13  C8  <0> d          -4.584  -5.161  -2.615  0.00  0.00     0.243 C 
BRANCH  13  14
ATOM     14  C9  <0> d          -4.476  -6.647  -2.391  0.00  0.00     0.231 C 
ATOM     15  O3  <0> d          -3.863  -7.073  -1.436  0.00  0.00    -0.273 OA
ATOM     16  N2  <0> d          -5.061  -7.503  -3.253  0.00  0.00    -0.356 N 
ATOM     17  H13 <0> d          -5.551  -7.162  -4.017  0.00  0.00     0.162 HD
BRANCH  16  18
ATOM     18  C10 <0> d          -4.956  -8.947  -3.035  0.00  0.00     0.084 C 
ATOM     19  C16 <0> d          -6.086  -9.604  -3.676  0.00  0.00     0.025 C 
ATOM     20  C15 <0> d          -6.091 -11.128  -3.439  0.00  0.00     0.002 C 
ATOM     21  C14 <0> d          -5.119 -11.764  -4.396  0.00  0.00     0.000 C 
ATOM     22  C13 <0> d          -3.723 -11.961  -3.774  0.00  0.00     0.000 C 
ATOM     23  C12 <0> d          -3.268 -10.752  -2.933  0.00  0.00     0.002 C 
ATOM     24  C11 <0> d          -3.601  -9.438  -3.586  0.00  0.00     0.025 C 
ENDBRANCH  16  18
ENDBRANCH  13  14
ENDBRANCH   1  13
TORSDOF 6
