REMARK  3 active torsions:
REMARK  status: ('A' for Active; 'I' for Inactive)
REMARK    1  A    between atoms: C4_4  and  C7_8 
REMARK    2  A    between atoms: C7_8  and  N1_10 
REMARK       I    between atoms: N1_10  and  C9_11 
REMARK       I    between atoms: C9_11  and  N2_13 
REMARK       I    between atoms: N3_16  and  C14_19 
REMARK    3  A    between atoms: C14_19  and  C15_21 
ROOT
ATOM      1  N1  <0> d          -5.724  -6.004   0.333  0.00  0.00    -0.335 N 
ATOM      2  C9  <0> d          -6.303  -4.789   0.258  0.00  0.00     0.318 C 
ATOM      3  O2  <0> d          -6.331  -4.068   1.236  0.00  0.00    -0.247 OA
ATOM      4  N2  <0> d          -6.852  -4.375  -0.901  0.00  0.00    -0.331 N 
ATOM      5  C10 <0> d          -7.383  -3.011  -1.032  0.00  0.00     0.147 C 
ATOM      6  C11 <0> d          -6.705  -2.334  -2.230  0.00  0.00     0.146 C 
ATOM      7  N3  <0> d          -6.783  -3.238  -3.386  0.00  0.00    -0.345 N 
ATOM      8  C12 <0> d          -6.253  -4.602  -3.255  0.00  0.00     0.146 C 
ATOM      9  C13 <0> d          -6.925  -5.277  -2.059  0.00  0.00     0.147 C 
ATOM     10  C14 <0> d          -7.332  -2.824  -4.545  0.00  0.00     0.256 C 
ATOM     11  O3  <0> d          -7.478  -3.607  -5.463  0.00  0.00    -0.267 OA
ATOM     12  H12 <0> d          -5.766  -6.609  -0.424  0.00  0.00     0.165 HD
ENDROOT
BRANCH   1  13
ATOM     13  C7  <0> d          -5.030  -6.410   1.558  0.00  0.00     0.117 C 
ATOM     14  C8  <0> d          -3.593  -5.888   1.527  0.00  0.00     0.037 C 
BRANCH  13  15
ATOM     15  C4  <0> d          -5.017  -7.914   1.652  0.00  0.00    -0.004 A 
ATOM     16  C3  <0> d          -5.106  -8.826   0.575  0.00  0.00     0.044 A 
ATOM     17  C2  <0> d          -5.055 -10.061   1.106  0.00  0.00     0.050 A 
ATOM     18  C1  <0> d          -5.116 -11.355   0.335  0.00  0.00     0.076 C 
ATOM     19  O1  <0> d          -4.946  -9.946   2.440  0.00  0.00    -0.320 OA
ATOM     20  C5  <0> d          -4.917  -8.646   2.776  0.00  0.00     0.058 A 
ATOM     21  C6  <0> d          -4.798  -8.100   4.175  0.00  0.00     0.077 C 
ENDBRANCH  13  15
ENDBRANCH   1  13
BRANCH  10  22
ATOM     22  C15 <0> d          -7.755  -1.420  -4.700  0.00  0.00     0.063 A 
ATOM     23  C18 <0> d          -8.846  -0.958  -5.377  0.00  0.00     0.065 A 
ATOM     24  O4  <0> d          -8.872   0.374  -5.274  0.00  0.00    -0.319 OA
ATOM     25  C19 <0> d          -9.851  -1.805  -6.113  0.00  0.00     0.077 C 
ATOM     26  C17 <0> d          -7.829   0.820  -4.556  0.00  0.00     0.050 A 
ATOM     27  C16 <0> d          -7.087  -0.226  -4.162  0.00  0.00     0.051 A 
ATOM     28  C20 <0> d          -7.538   2.265  -4.242  0.00  0.00     0.076 C 
ENDBRANCH  10  22
TORSDOF 3
