REMARK  7 active torsions:
REMARK  status: ('A' for Active; 'I' for Inactive)
REMARK    1  A    between atoms: C2_2  and  S1_4 
REMARK    2  A    between atoms: S1_4  and  N1_7 
REMARK    3  A    between atoms: N1_7  and  C4_8 
REMARK    4  A    between atoms: C4_8  and  C5_9 
REMARK    5  A    between atoms: C11_18  and  C12_19 
REMARK    6  A    between atoms: C11_18  and  N5_28 
REMARK    7  A    between atoms: C17_24  and  O3_25 
ROOT
ATOM      1  C5  <0> d          -0.965  -0.241  -0.886  0.00  0.00     0.148 A 
ATOM      2  N2  <0> d          -1.257   1.027  -0.761  0.00  0.00    -0.133 NA
ATOM      3  N3  <0> d          -0.183   1.699  -0.526  0.00  0.00    -0.135 NA
ATOM      4  C6  <0> d           0.835   0.891  -0.485  0.00  0.00     0.131 A 
ATOM      5  N4  <0> d           0.370  -0.360  -0.726  0.00  0.00    -0.317 N 
ATOM      6  C7  <0> d           1.178  -1.577  -0.809  0.00  0.00     0.159 C 
ATOM      7  C8  <0> d           2.431  -1.409   0.055  0.00  0.00     0.255 C 
ATOM      8  C9  <0> d           3.161   0.522  -1.234  0.00  0.00     0.243 C 
ATOM      9  C10 <0> d           2.276   1.236  -0.208  0.00  0.00     0.108 C 
ATOM     10  N5  <0> d           3.520  -0.836  -0.768  0.00  0.00    -0.065 N 
ATOM     11  H26 <0> d           3.667  -1.438  -1.587  0.00  0.00     0.280 HD
ENDROOT
BRANCH  10  12
ATOM     12  C11 <0> d           4.768  -0.783   0.014  0.00  0.00     0.276 C 
BRANCH  12  13
ATOM     13  C12 <0> d           5.361  -2.168   0.057  0.00  0.00     0.001 A 
ATOM     14  C17 <0> d           5.991  -2.688  -1.065  0.00  0.00     0.073 A 
ATOM     15  C16 <0> d           6.540  -3.962  -1.021  0.00  0.00     0.037 A 
ATOM     16  C15 <0> d           6.449  -4.712   0.135  0.00  0.00     0.003 A 
ATOM     17  C14 <0> d           5.816  -4.194   1.250  0.00  0.00     0.001 A 
ATOM     18  C13 <0> d           5.272  -2.923   1.210  0.00  0.00     0.011 A 
BRANCH  14  19
ATOM     19  O3  <0> d           6.075  -1.950  -2.202  0.00  0.00    -0.360 OA
ATOM     20  H25 <0> d           6.867  -1.398  -2.256  0.00  0.00     0.217 HD
ENDBRANCH  14  19
ENDBRANCH  12  13
ENDBRANCH  10  12
BRANCH   1  21
ATOM     21  C4  <0> d          -1.936  -1.361  -1.158  0.00  0.00     0.212 C 
BRANCH  21  22
ATOM     22  N1  <0> d          -2.073  -1.548  -2.604  0.00  0.00    -0.312 N 
ATOM     23  H8  <0> d          -1.752  -0.866  -3.214  0.00  0.00     0.172 HD
BRANCH  22  24
ATOM     24  S1  <0> d          -2.775  -2.925  -3.198  0.00  0.00     0.230 S 
ATOM     25  O1  <0> d          -2.726  -2.777  -4.611  0.00  0.00    -0.206 OA
ATOM     26  O2  <0> d          -2.086  -3.990  -2.557  0.00  0.00    -0.206 OA
BRANCH  24  27
ATOM     27  C2  <0> d          -4.494  -2.857  -2.623  0.00  0.00     0.121 C 
ATOM     28  C1  <0> d          -5.156  -1.580  -3.143  0.00  0.00     0.027 C 
ATOM     29  C3  <0> d          -5.256  -4.076  -3.146  0.00  0.00     0.027 C 
ENDBRANCH  24  27
ENDBRANCH  22  24
ENDBRANCH  21  22
ENDBRANCH   1  21
TORSDOF 7
