REMARK  5 active torsions:
REMARK  status: ('A' for Active; 'I' for Inactive)
REMARK    1  A    between atoms: C2_2  and  C3_4 
REMARK    2  A    between atoms: C7_8  and  N1_10 
REMARK    3  A    between atoms: N1_10  and  C9_11 
REMARK    4  A    between atoms: N1_10  and  S1_25 
REMARK    5  A    between atoms: C9_11  and  C10_12 
REMARK       I    between atoms: C10_12  and  N2_14 
ROOT
ATOM      1  C9  <0> d           2.416  -0.579  -1.073  0.00  0.00     0.245 C 
ENDROOT
BRANCH   1   2
ATOM      2  N1  <0> d           0.975  -0.409  -1.275  0.00  0.00    -0.267 N 
BRANCH   2   3
ATOM      3  C7  <0> d           0.422  -0.590  -2.545  0.00  0.00     0.046 A 
ATOM      4  C6  <0> d           1.067  -1.395  -3.477  0.00  0.00     0.030 A 
ATOM      5  C5  <0> d           0.522  -1.581  -4.734  0.00  0.00     0.003 A 
ATOM      6  C4  <0> d          -0.660  -0.961  -5.078  0.00  0.00     0.015 A 
ATOM      7  C3  <0> d          -1.316  -0.144  -4.151  0.00  0.00     0.011 A 
ATOM      8  C8  <0> d          -0.767   0.040  -2.879  0.00  0.00     0.045 A 
BRANCH   7   9
ATOM      9  C2  <0> d          -2.578   0.521  -4.514  0.00  0.00     0.155 C 
ATOM     10  C1  <0> d          -3.167   0.321  -5.887  0.00  0.00     0.096 C 
ATOM     11  O1  <0> d          -3.144   1.229  -3.709  0.00  0.00    -0.293 OA
ENDBRANCH   7   9
ENDBRANCH   2   3
BRANCH   2  12
ATOM     12  S1  <0> d           0.002  -0.004   0.002  0.00  0.00     0.229 S 
ATOM     13  O4  <0> d           0.687  -0.491   1.148  0.00  0.00    -0.206 OA
ATOM     14  O5  <0> d          -1.280  -0.509  -0.345  0.00  0.00    -0.206 OA
ATOM     15  C19 <0> d          -0.022   1.810   0.012  0.00  0.00     0.186 C 
ENDBRANCH   2  12
ENDBRANCH   1   2
BRANCH   1  16
ATOM     16  C10 <0> d           2.723  -2.037  -0.842  0.00  0.00     0.243 C 
ATOM     17  O2  <0> d           1.826  -2.853  -0.845  0.00  0.00    -0.271 OA
ATOM     18  N2  <0> d           3.994  -2.433  -0.631  0.00  0.00    -0.306 N 
ATOM     19  C14 <0> d           4.304  -3.784  -0.413  0.00  0.00     0.064 A 
ATOM     20  C11 <0> d           5.100  -1.464  -0.628  0.00  0.00     0.235 C 
ATOM     21  C13 <0> d           5.560  -4.255  -0.802  0.00  0.00     0.061 A 
ATOM     22  C15 <0> d           3.392  -4.641   0.175  0.00  0.00     0.032 A 
ATOM     23  N3  <0> d           6.468  -3.379  -1.408  0.00  0.00    -0.324 N 
ATOM     24  C18 <0> d           5.890  -5.583  -0.591  0.00  0.00     0.032 A 
ATOM     25  C12 <0> d           6.272  -2.048  -1.367  0.00  0.00     0.240 C 
ATOM     26  H12 <0> d           7.247  -3.736  -1.863  0.00  0.00     0.169 HD
ATOM     27  O3  <0> d           7.048  -1.310  -1.936  0.00  0.00    -0.271 OA
ATOM     28  C17 <0> d           4.974  -6.435  -0.000  0.00  0.00     0.002 A 
ATOM     29  C16 <0> d           3.729  -5.967   0.381  0.00  0.00     0.002 A 
ENDBRANCH   1  16
TORSDOF 5
