REMARK  6 active torsions:
REMARK  status: ('A' for Active; 'I' for Inactive)
REMARK    1  A    between atoms: O1_2  and  C2_3 
REMARK    2  A    between atoms: C2_3  and  C3_4 
REMARK    3  A    between atoms: C3_4  and  O2_5 
REMARK    4  A    between atoms: O2_5  and  C4_6 
REMARK    5  A    between atoms: N1_9  and  C9_12 
REMARK    6  A    between atoms: C17_20  and  O3_21 
ROOT
ATOM      1  C9  <0> d           0.002  -0.004   0.002  0.00  0.00     0.251 C 
ATOM      2  C10 <0> d          -0.281   1.482   0.078  0.00  0.00    -0.018 A 
ATOM      3  C11 <0> d          -1.482   2.161   0.193  0.00  0.00     0.010 A 
ATOM      4  C12 <0> d          -1.498   3.541   0.247  0.00  0.00     0.001 A 
ATOM      5  C13 <0> d          -0.312   4.247   0.178  0.00  0.00     0.001 A 
ATOM      6  C14 <0> d           0.887   3.572   0.059  0.00  0.00     0.009 A 
ATOM      7  C15 <0> d           0.906   2.188   0.008  0.00  0.00    -0.038 A 
ATOM      8  C16 <0> d           2.062   1.225  -0.118  0.00  0.00     0.019 C 
ATOM      9  C17 <0> d           1.508  -0.146   0.314  0.00  0.00     0.166 C 
ATOM     10  C18 <0> d           2.545   1.159  -1.564  0.00  0.00     0.044 C 
ATOM     11  C19 <0> d           3.731   0.194  -1.657  0.00  0.00     0.233 C 
ATOM     12  N2  <0> d           4.806   0.652  -0.767  0.00  0.00    -0.075 N 
ATOM     13  C20 <0> d           4.370   0.659   0.636  0.00  0.00     0.233 C 
ATOM     14  C21 <0> d           3.205   1.639   0.804  0.00  0.00     0.044 C 
ATOM     15  H28 <0> d           5.671  -0.019  -0.861  0.00  0.00     0.277 HD
ATOM     16  H34 <0> d           5.102   1.674  -1.046  0.00  0.00     0.277 HD
ENDROOT
BRANCH   1  17
ATOM     17  N1  <0> d          -0.289  -0.510  -1.346  0.00  0.00    -0.060 N 
ATOM     18  C6  <0> d          -1.692  -0.270  -1.707  0.00  0.00     0.238 C 
ATOM     19  C5  <0> d          -1.922  -0.676  -3.164  0.00  0.00     0.059 C 
ATOM     20  C4  <0> d          -1.577  -2.158  -3.337  0.00  0.00     0.124 C 
ATOM     21  C8  <0> d          -0.126  -2.390  -2.908  0.00  0.00     0.059 C 
ATOM     22  C7  <0> d           0.052  -1.934  -1.458  0.00  0.00     0.238 C 
ATOM     23  H33 <0> d           0.340   0.042  -2.060  0.00  0.00     0.280 HD
BRANCH  20  24
ATOM     24  O2  <0> d          -1.736  -2.529  -4.708  0.00  0.00    -0.384 OA
BRANCH  24  25
ATOM     25  C3  <0> d          -2.109  -3.895  -4.901  0.00  0.00     0.194 C 
BRANCH  25  26
ATOM     26  C2  <0> d          -2.249  -4.178  -6.398  0.00  0.00     0.193 C 
BRANCH  26  27
ATOM     27  O1  <0> d          -0.975  -4.041  -7.030  0.00  0.00    -0.394 OA
ATOM     28  C1  <0> d          -0.996  -4.286  -8.438  0.00  0.00     0.201 C 
ENDBRANCH  26  27
ENDBRANCH  25  26
ENDBRANCH  24  25
ENDBRANCH  20  24
ENDBRANCH   1  17
BRANCH   9  29
ATOM     29  O3  <0> d           1.720  -0.363   1.710  0.00  0.00    -0.392 OA
ATOM     30  H23 <0> d           2.741  -0.484   2.099  0.00  0.00     0.210 HD
ENDBRANCH   9  29
TORSDOF 6
