REMARK  4 active torsions:
REMARK  status: ('A' for Active; 'I' for Inactive)
REMARK    1  A    between atoms: C7_7  and  C8_8 
REMARK    2  A    between atoms: C7_7  and  O2_15 
REMARK    3  A    between atoms: C8_8  and  C9_9 
REMARK    4  A    between atoms: C9_9  and  C10_10 
ROOT
ATOM      1  C1  <0> d          -0.375   1.788   0.404  0.00  0.00     0.013 C 
ATOM      2  C2  <0> d          -0.198   0.265   0.366  0.00  0.00     0.019 C 
ATOM      3  C3  <0> d          -1.578  -0.407   0.384  0.00  0.00     0.040 C 
ATOM      4  C4  <0> d          -1.383  -1.790   0.945  0.00  0.00     0.139 C 
ATOM      5  C5  <0> d          -1.055  -1.592   2.439  0.00  0.00     0.052 C 
ATOM      6  C6  <0> d           0.151  -0.752   2.718  0.00  0.00    -0.005 C 
ATOM      7  C7  <0> d           0.770  -0.169   1.462  0.00  0.00     0.069 C 
ATOM      8  C14 <0> d           1.110  -1.508   3.634  0.00  0.00     0.020 C 
ATOM      9  C15 <0> d           0.372  -2.236   4.766  0.00  0.00     0.080 C 
ATOM     10  C16 <0> d          -0.687  -3.195   4.225  0.00  0.00     0.145 C 
ATOM     11  O3  <0> d          -1.276  -3.989   4.934  0.00  0.00    -0.297 OA
ATOM     12  C17 <0> d          -0.954  -3.093   2.769  0.00  0.00     0.111 C 
ATOM     13  C18 <0> d          -2.260  -3.520   2.152  0.00  0.00     0.275 C 
ATOM     14  O4  <0> d          -3.012  -4.357   2.581  0.00  0.00    -0.264 OA
ATOM     15  O5  <0> d          -2.413  -2.761   1.006  0.00  0.00    -0.315 OA
ATOM     16  C19 <0> d           0.148  -3.836   2.023  0.00  0.00     0.035 C 
ATOM     17  C20 <0> d          -0.340   0.462   3.561  0.00  0.00     0.019 C 
ENDROOT
BRANCH   7  18
ATOM     18  C8  <0> d           1.821  -1.106   0.855  0.00  0.00     0.043 C 
BRANCH  18  19
ATOM     19  C9  <0> d           2.626  -0.350  -0.205  0.00  0.00     0.043 C 
BRANCH  19  20
ATOM     20  C10 <0> d           3.569  -1.303  -0.894  0.00  0.00    -0.034 A 
ATOM     21  C13 <0> d           3.310  -2.031  -1.995  0.00  0.00     0.148 A 
ATOM     22  O1  <0> d           4.403  -2.750  -2.295  0.00  0.00    -0.334 OA
ATOM     23  C12 <0> d           5.366  -2.500  -1.392  0.00  0.00     0.142 A 
ATOM     24  C11 <0> d           4.893  -1.608  -0.503  0.00  0.00     0.033 A 
ENDBRANCH  19  20
ENDBRANCH  18  19
ENDBRANCH   7  18
BRANCH   7  25
ATOM     25  O2  <0> d           1.488   1.025   1.871  0.00  0.00    -0.389 OA
ATOM     26  H16 <0> d           1.990   1.446   1.160  0.00  0.00     0.210 HD
ENDBRANCH   7  25
TORSDOF 4
