REMARK  5 active torsions:
REMARK  status: ('A' for Active; 'I' for Inactive)
REMARK    1  A    between atoms: C3_3  and  C13_17 
REMARK    2  A    between atoms: N3_6  and  C4_7 
REMARK       I    between atoms: C13_17  and  N5_19 
REMARK    3  A    between atoms: N5_19  and  C14_20 
REMARK    4  A    between atoms: C14_20  and  C15_21 
REMARK    5  A    between atoms: C15_21  and  N6_23 
ROOT
ATOM      1  C1  <0> d           0.296  -0.422   0.909  0.00  0.00     0.073 C 
ATOM      2  C2  <0> d           0.434  -1.845   0.431  0.00  0.00     0.070 A 
ATOM      3  C3  <0> d           0.271  -2.293  -0.850  0.00  0.00     0.172 A 
ATOM      4  N1  <0> d           0.479  -3.621  -0.866  0.00  0.00    -0.124 NA
ATOM      5  N2  <0> d           0.762  -4.028   0.323  0.00  0.00    -0.060 NA
ATOM      6  N3  <0> d           0.749  -2.921   1.184  0.00  0.00    -0.217 N 
ENDROOT
BRANCH   3   7
ATOM      7  C13 <0> d          -0.077  -1.460  -2.017  0.00  0.00     0.274 C 
ATOM      8  O1  <0> d          -0.243  -0.264  -1.882  0.00  0.00    -0.266 OA
ATOM      9  N5  <0> d          -0.209  -2.026  -3.232  0.00  0.00    -0.353 N 
ATOM     10  H11 <0> d          -0.076  -2.981  -3.340  0.00  0.00     0.162 HD
BRANCH   9  11
ATOM     11  C14 <0> d          -0.554  -1.200  -4.392  0.00  0.00     0.155 C 
BRANCH  11  12
ATOM     12  C15 <0> d          -0.705  -2.090  -5.627  0.00  0.00     0.202 C 
ATOM     13  C16 <0> d          -0.983  -1.219  -6.853  0.00  0.00     0.042 C 
BRANCH  12  14
ATOM     14  N6  <0> d           0.534  -2.850  -5.836  0.00  0.00    -0.066 N 
ATOM     15  C21 <0> d           0.337  -3.813  -6.926  0.00  0.00     0.235 C 
ATOM     16  C20 <0> d           1.598  -4.663  -7.095  0.00  0.00     0.032 C 
ATOM     17  C19 <0> d           2.782  -3.750  -7.426  0.00  0.00    -0.015 C 
ATOM     18  C18 <0> d           2.932  -2.703  -6.319  0.00  0.00     0.032 C 
ATOM     19  C22 <0> d           4.062  -4.584  -7.518  0.00  0.00     0.010 C 
ATOM     20  C17 <0> d           1.622  -1.926  -6.179  0.00  0.00     0.235 C 
ATOM     21  H29 <0> d           0.771  -3.346  -4.990  0.00  0.00     0.280 HD
ENDBRANCH  12  14
ENDBRANCH  11  12
ENDBRANCH   9  11
ENDBRANCH   3   7
BRANCH   6  22
ATOM     22  C4  <0> d           1.009  -2.931   2.558  0.00  0.00     0.072 A 
ATOM     23  C9  <0> d           0.387  -3.880   3.394  0.00  0.00     0.021 A 
ATOM     24  C8  <0> d           0.666  -3.880   4.783  0.00  0.00     0.069 A 
ATOM     25  C10 <0> d          -0.505  -4.836   2.877  0.00  0.00     0.017 A 
ATOM     26  C7  <0> d           1.553  -2.921   5.304  0.00  0.00     0.032 A 
ATOM     27  N4  <0> d           0.083  -4.782   5.579  0.00  0.00    -0.260 NA
ATOM     28  C6  <0> d           2.136  -2.012   4.476  0.00  0.00     0.005 A 
ATOM     29  C5  <0> d           1.873  -2.009   3.109  0.00  0.00     0.032 A 
ATOM     30  C12 <0> d          -0.759  -5.668   5.102  0.00  0.00     0.117 A 
ATOM     31  C11 <0> d          -1.071  -5.726   3.746  0.00  0.00     0.020 A 
ENDBRANCH   6  22
TORSDOF 5
