REMARK  7 active torsions:
REMARK  status: ('A' for Active; 'I' for Inactive)
REMARK    1  A    between atoms: C4_5  and  N2_8 
REMARK    2  A    between atoms: N2_8  and  C7_9 
REMARK    3  A    between atoms: C7_9  and  C8_10 
REMARK    4  A    between atoms: C8_10  and  C9_11 
REMARK    5  A    between atoms: C8_10  and  O2_20 
REMARK    6  A    between atoms: C9_11  and  O1_12 
REMARK    7  A    between atoms: O1_12  and  C10_13 
ROOT
ATOM      1  C7  <0> d           2.002  -4.594   1.084  0.00  0.00     0.266 C 
ENDROOT
BRANCH   1   2
ATOM      2  N2  <0> d           1.227  -4.040  -0.035  0.00  0.00    -0.068 N 
ATOM      3  H14 <0> d           0.259  -4.306   0.062  0.00  0.00     0.277 HD
ATOM      4  H25 <0> d           1.589  -4.401  -0.905  0.00  0.00     0.277 HD
BRANCH   2   5
ATOM      5  C4  <0> d           1.336  -2.575  -0.029  0.00  0.00     0.189 C 
ATOM      6  C3  <0> d           0.634  -2.005  -1.264  0.00  0.00     0.060 C 
ATOM      7  C2  <0> d           0.681  -0.476  -1.210  0.00  0.00     0.236 C 
ATOM      8  N1  <0> d           0.002  -0.004   0.002  0.00  0.00    -0.075 N 
ATOM      9  C1  <0> d          -0.018   1.465   0.010  0.00  0.00     0.269 C 
ATOM     10  C6  <0> d           0.712  -0.489   1.192  0.00  0.00     0.236 C 
ATOM     11  H24 <0> d          -0.945  -0.352   0.012  0.00  0.00     0.279 HD
ATOM     12  C5  <0> d           0.666  -2.018   1.230  0.00  0.00     0.060 C 
ENDBRANCH   2   5
ENDBRANCH   1   2
BRANCH   1  13
ATOM     13  C8  <0> d           1.889  -6.120   1.077  0.00  0.00     0.168 C 
BRANCH  13  14
ATOM     14  C9  <0> d           2.591  -6.688   2.312  0.00  0.00     0.209 C 
BRANCH  14  15
ATOM     15  O1  <0> d           2.386  -8.101   2.368  0.00  0.00    -0.349 OA
BRANCH  15  16
ATOM     16  C10 <0> d           2.948  -8.766   3.412  0.00  0.00     0.070 A 
ATOM     17  C15 <0> d           2.789 -10.139   3.528  0.00  0.00     0.055 A 
ATOM     18  C14 <0> d           3.367 -10.813   4.587  0.00  0.00     0.013 A 
ATOM     19  C13 <0> d           4.093 -10.117   5.537  0.00  0.00     0.019 A 
ATOM     20 Br1  <0> d           3.159 -12.686   4.742  0.00  0.00    -0.051 Br
ATOM     21  C12 <0> d           4.247  -8.747   5.426  0.00  0.00     0.004 A 
ATOM     22  C11 <0> d           3.677  -8.070   4.366  0.00  0.00     0.037 A 
ENDBRANCH  15  16
ENDBRANCH  14  15
ENDBRANCH  13  14
BRANCH  13  23
ATOM     23  O2  <0> d           2.506  -6.638  -0.103  0.00  0.00    -0.392 OA
ATOM     24  H23 <0> d           3.445  -6.421  -0.183  0.00  0.00     0.210 HD
ENDBRANCH  13  23
ENDBRANCH   1  13
TORSDOF 7
