REMARK  10 active torsions:
REMARK  status: ('A' for Active; 'I' for Inactive)
REMARK    1  A    between atoms: C2_2  and  C3_3 
REMARK    2  A    between atoms: C4_4  and  C12_22 
REMARK    3  A    between atoms: C5_5  and  C7_10 
REMARK    4  A    between atoms: C7_10  and  S1_11 
REMARK    5  A    between atoms: S1_11  and  C8_12 
REMARK    6  A    between atoms: C9_15  and  S3_17 
REMARK    7  A    between atoms: S3_17  and  C10_18 
REMARK    8  A    between atoms: C10_18  and  C11_19 
REMARK       I    between atoms: C11_19  and  N5_21 
REMARK    9  A    between atoms: C12_22  and  O4_24 
REMARK   10  A    between atoms: O4_24  and  C13_25 
ROOT
ATOM      1  C3  <0> d           6.493   6.019   1.119  0.00  0.00     0.127 A 
ATOM      2  C4  <0> d           5.850   4.647   1.128  0.00  0.00     0.063 A 
ATOM      3  C5  <0> d           5.502   4.107  -0.060  0.00  0.00     0.037 A 
ATOM      4  N1  <0> d           5.728   4.774  -1.230  0.00  0.00    -0.311 N 
ATOM      5  C6  <0> d           6.288   5.989  -1.296  0.00  0.00     0.321 A 
ATOM      6  O1  <0> d           6.444   6.505  -2.385  0.00  0.00    -0.247 OA
ATOM      7  N2  <0> d           6.688   6.655  -0.195  0.00  0.00    -0.334 N 
ATOM      8  H7  <0> d           5.446   4.314  -2.188  0.00  0.00     0.170 HD
ATOM      9  H8  <0> d           7.151   7.651  -0.261  0.00  0.00     0.165 HD
ENDROOT
BRANCH   3  10
ATOM     10  C7  <0> d           4.859   2.745  -0.095  0.00  0.00     0.139 C 
BRANCH  10  11
ATOM     11  S1  <0> d           3.063   2.928  -0.267  0.00  0.00    -0.095 SA
BRANCH  11  12
ATOM     12  C8  <0> d           2.466   1.270  -0.293  0.00  0.00     0.159 A 
ATOM     13  S2  <0> d           0.789   0.673  -0.439  0.00  0.00    -0.033 SA
ATOM     14  C9  <0> d           1.153  -1.075  -0.374  0.00  0.00     0.159 A 
ATOM     15  N4  <0> d           2.467  -1.062  -0.252  0.00  0.00    -0.134 NA
ATOM     16  N3  <0> d           3.138   0.138  -0.210  0.00  0.00    -0.134 NA
BRANCH  14  17
ATOM     17  S3  <0> d           0.053  -2.449  -0.452  0.00  0.00    -0.092 SA
BRANCH  17  18
ATOM     18  C10 <0> d           1.143  -3.893  -0.325  0.00  0.00     0.184 C 
BRANCH  18  19
ATOM     19  C11 <0> d           0.318  -5.152  -0.380  0.00  0.00     0.225 C 
ATOM     20  O2  <0> d          -0.888  -5.082  -0.494  0.00  0.00    -0.273 OA
ATOM     21  N5  <0> d           0.919  -6.356  -0.303  0.00  0.00    -0.369 N 
ATOM     22  H13 <0> d           0.316  -7.275  -0.343  0.00  0.00     0.159 HD
ATOM     23  H14 <0> d           2.012  -6.419  -0.200  0.00  0.00     0.159 HD
ENDBRANCH  18  19
ENDBRANCH  17  18
ENDBRANCH  14  17
ENDBRANCH  11  12
ENDBRANCH  10  11
ENDBRANCH   3  10
BRANCH   2  24
ATOM     24  C12 <0> d           5.621   3.955   2.341  0.00  0.00     0.293 C 
ATOM     25  O3  <0> d           4.976   2.923   2.340  0.00  0.00    -0.259 OA
BRANCH  24  26
ATOM     26  O4  <0> d           6.119   4.439   3.498  0.00  0.00    -0.318 OA
BRANCH  26  27
ATOM     27  C13 <0> d           5.850   3.688   4.684  0.00  0.00     0.174 C 
ATOM     28  C14 <0> d           6.489   4.387   5.886  0.00  0.00     0.034 C 
ENDBRANCH  26  27
ENDBRANCH  24  26
ENDBRANCH   2  24
BRANCH   1  29
ATOM     29  C2  <0> d           5.630   6.951   1.970  0.00  0.00     0.026 C 
ATOM     30  C1  <0> d           6.313   8.315   2.087  0.00  0.00     0.007 C 
ENDBRANCH   1  29
TORSDOF 10
