REMARK  4 active torsions:
REMARK  status: ('A' for Active; 'I' for Inactive)
REMARK    1  A    between atoms: C2_2  and  C3_3 
REMARK    2  A    between atoms: C4_6  and  N3_8 
REMARK       I    between atoms: N3_8  and  C5_9 
REMARK    3  A    between atoms: C5_9  and  C6_11 
REMARK    4  A    between atoms: C6_11  and  N4_12 
ROOT
ATOM      1  N3  <0> d          -0.011   0.966   0.007  0.00  0.00    -0.303 N 
ATOM      2  C5  <0> d           1.147   1.655  -0.000  0.00  0.00     0.242 C 
ATOM      3  O1  <0> d           1.130   2.868   0.007  0.00  0.00    -0.271 OA
ATOM      4  H7  <0> d           0.002  -0.004   0.002  0.00  0.00     0.171 HD
ENDROOT
BRANCH   2   5
ATOM      5  C6  <0> d           2.462   0.920  -0.017  0.00  0.00     0.236 C 
BRANCH   5   6
ATOM      6  N4  <0> d           3.562   1.887  -0.022  0.00  0.00    -0.293 N 
ATOM      7  C9  <0> d           4.054   2.302   1.161  0.00  0.00     0.144 A 
ATOM      8  S2  <0> d           5.349   3.446   0.708  0.00  0.00    -0.086 SA
ATOM      9  S3  <0> d           3.554   1.841   2.732  0.00  0.00    -0.052 SA
ATOM     10  C8  <0> d           5.166   3.310  -1.115  0.00  0.00     0.143 A 
ATOM     11  C7  <0> d           4.026   2.304  -1.188  0.00  0.00     0.239 A 
ATOM     12  C10 <0> d           4.771   4.652  -1.736  0.00  0.00     0.031 C 
ATOM     13  O2  <0> d           3.572   1.914  -2.243  0.00  0.00    -0.272 OA
ENDBRANCH   5   6
ENDBRANCH   2   5
BRANCH   1  14
ATOM     14  C4  <0> d          -1.225   1.645   0.017  0.00  0.00     0.196 A 
ATOM     15  N2  <0> d          -1.463   2.945   0.025  0.00  0.00    -0.123 NA
ATOM     16  N1  <0> d          -2.637   3.408   0.033  0.00  0.00    -0.145 NA
ATOM     17  C3  <0> d          -3.678   2.600   0.034  0.00  0.00     0.100 A 
ATOM     18  S1  <0> d          -2.847   1.016   0.014  0.00  0.00    -0.033 SA
BRANCH  17  19
ATOM     19  C2  <0> d          -5.151   2.919   0.042  0.00  0.00     0.064 C 
ATOM     20  C1  <0> d          -5.656   3.035  -1.398  0.00  0.00     0.012 C 
ENDBRANCH  17  19
ENDBRANCH   1  14
TORSDOF 4
