REMARK  3 active torsions:
REMARK  status: ('A' for Active; 'I' for Inactive)
REMARK    1  A    between atoms: C5_5  and  C6_7 
REMARK    2  A    between atoms: C6_7  and  C7_8 
REMARK    3  A    between atoms: C6_7  and  N1_18 
ROOT
ATOM      1  C6  <0> d           1.684  -3.245  -0.023  0.00  0.00     0.271 C 
ENDROOT
BRANCH   1   2
ATOM      2  C5  <0> d           0.742  -2.069  -0.013  0.00  0.00     0.086 A 
ATOM      3  C4  <0> d          -0.601  -2.136  -0.007  0.00  0.00     0.037 A 
ATOM      4  C3  <0> d          -1.078  -0.805   0.003  0.00  0.00     0.035 A 
ATOM      5  C2  <0> d           0.002  -0.004   0.002  0.00  0.00     0.049 A 
ATOM      6  C1  <0> d          -0.018   1.503   0.010  0.00  0.00     0.076 C 
ATOM      7  O1  <0> d           1.102  -0.775  -0.013  0.00  0.00    -0.318 OA
ENDBRANCH   1   2
BRANCH   1   8
ATOM      8  C7  <0> d           2.205  -3.494   1.394  0.00  0.00     0.190 C 
ATOM      9  O3  <0> d           2.810  -2.300   1.903  0.00  0.00    -0.338 OA
ATOM     10  C14 <0> d           3.579  -2.431   3.018  0.00  0.00     0.102 A 
ATOM     11  C9  <0> d           4.049  -3.677   3.416  0.00  0.00     0.102 A 
ATOM     12  C13 <0> d           3.898  -1.304   3.761  0.00  0.00     0.039 A 
ATOM     13  O2  <0> d           3.744  -4.796   2.705  0.00  0.00    -0.346 OA
ATOM     14  C10 <0> d           4.838  -3.786   4.551  0.00  0.00     0.039 A 
ATOM     15  C8  <0> d           3.269  -4.599   1.368  0.00  0.00     0.210 C 
ATOM     16  C11 <0> d           5.154  -2.659   5.286  0.00  0.00     0.003 A 
ATOM     17  C12 <0> d           4.684  -1.420   4.892  0.00  0.00     0.003 A 
ENDBRANCH   1   8
BRANCH   1  18
ATOM     18  N1  <0> d           2.814  -2.960  -0.917  0.00  0.00    -0.067 N 
ATOM     19  H14 <0> d           3.303  -2.140  -0.590  0.00  0.00     0.275 HD
ATOM     20  H15 <0> d           3.445  -3.748  -0.923  0.00  0.00     0.275 HD
ATOM     21  H16 <0> d           2.471  -2.796  -1.851  0.00  0.00     0.275 HD
ENDBRANCH   1  18
TORSDOF 3
