REMARK  6 active torsions:
REMARK  status: ('A' for Active; 'I' for Inactive)
REMARK    1  A    between atoms: C4_4  and  C7_7 
REMARK    2  A    between atoms: C7_7  and  C8_8 
REMARK    3  A    between atoms: C7_7  and  O2_28 
REMARK    4  A    between atoms: N1_11  and  C13_14 
REMARK    5  A    between atoms: C13_14  and  C14_15 
REMARK    6  A    between atoms: C14_15  and  C15_16 
ROOT
ATOM      1  C8  <0> d           4.080  -1.059  -1.480  0.00  0.00     0.022 C 
ATOM      2  C9  <0> d           2.995  -1.957  -2.082  0.00  0.00     0.035 C 
ATOM      3  C10 <0> d           3.408  -2.369  -3.496  0.00  0.00     0.235 C 
ATOM      4  N1  <0> d           4.679  -3.102  -3.445  0.00  0.00    -0.071 N 
ATOM      5  C11 <0> d           5.740  -2.224  -2.936  0.00  0.00     0.235 C 
ATOM      6  C12 <0> d           5.416  -1.806  -1.500  0.00  0.00     0.035 C 
ATOM      7  H26 <0> d           4.582  -3.899  -2.834  0.00  0.00     0.279 HD
ENDROOT
BRANCH   4   8
ATOM      8  C13 <0> d           5.032  -3.563  -4.794  0.00  0.00     0.242 C 
BRANCH   8   9
ATOM      9  C14 <0> d           6.289  -4.432  -4.723  0.00  0.00     0.106 C 
BRANCH   9  10
ATOM     10  C15 <0> d           6.651  -4.905  -6.108  0.00  0.00     0.109 A 
ATOM     11  N3  <0> d           5.900  -4.536  -7.101  0.00  0.00    -0.234 NA
ATOM     12  C22 <0> d           6.167  -4.918  -8.375  0.00  0.00     0.074 A 
ATOM     13  C17 <0> d           7.284  -5.747  -8.621  0.00  0.00     0.061 A 
ATOM     14  C21 <0> d           5.364  -4.516  -9.444  0.00  0.00     0.032 A 
ATOM     15  C16 <0> d           8.111  -6.151  -7.474  0.00  0.00     0.259 A 
ATOM     16  C18 <0> d           7.576  -6.156  -9.921  0.00  0.00     0.019 A 
ATOM     17  N2  <0> d           7.744  -5.699  -6.252  0.00  0.00    -0.311 N 
ATOM     18  O1  <0> d           9.087  -6.864  -7.618  0.00  0.00    -0.267 OA
ATOM     19  H2  <0> d           8.265  -5.946  -5.472  0.00  0.00     0.170 HD
ATOM     20  C19 <0> d           6.768  -5.747 -10.959  0.00  0.00     0.001 A 
ATOM     21  C20 <0> d           5.669  -4.933 -10.720  0.00  0.00     0.002 A 
ENDBRANCH   9  10
ENDBRANCH   8   9
ENDBRANCH   4   8
BRANCH   1  22
ATOM     22  C7  <0> d           3.711  -0.707  -0.038  0.00  0.00     0.155 C 
BRANCH  22  23
ATOM     23  C4  <0> d           2.396   0.029  -0.020  0.00  0.00    -0.029 A 
ATOM     24  C3  <0> d           2.377   1.411  -0.013  0.00  0.00     0.010 A 
ATOM     25  C2  <0> d           1.171   2.086   0.002  0.00  0.00     0.001 A 
ATOM     26  C1  <0> d          -0.017   1.378   0.010  0.00  0.00     0.000 A 
ATOM     27  C6  <0> d           0.002  -0.004   0.002  0.00  0.00     0.001 A 
ATOM     28  C5  <0> d           1.208  -0.679  -0.012  0.00  0.00     0.010 A 
ENDBRANCH  22  23
BRANCH  22  29
ATOM     29  O2  <0> d           3.596  -1.907   0.731  0.00  0.00    -0.391 OA
ATOM     30  H25 <0> d           2.922  -2.519   0.405  0.00  0.00     0.210 HD
ENDBRANCH  22  29
ENDBRANCH   1  22
TORSDOF 6
