REMARK  6 active torsions:
REMARK  status: ('A' for Active; 'I' for Inactive)
REMARK    1  A    between atoms: N1_10  and  N3_14 
REMARK       I    between atoms: N3_14  and  C10_15 
REMARK    2  A    between atoms: C10_15  and  C11_17 
REMARK    3  A    between atoms: C11_17  and  N4_18 
REMARK    4  A    between atoms: N4_18  and  C12_19 
REMARK    5  A    between atoms: N4_18  and  C17_26 
REMARK    6  A    between atoms: C12_19  and  C13_20 
ROOT
ATOM      1  N3  <0> d           4.834  -5.998   0.644  0.00  0.00    -0.255 N 
ATOM      2  C10 <0> d           4.973  -6.336  -0.653  0.00  0.00     0.262 C 
ATOM      3  O3  <0> d           5.182  -5.478  -1.485  0.00  0.00    -0.270 OA
ATOM      4  H14 <0> d           4.667  -6.685   1.308  0.00  0.00     0.191 HD
ENDROOT
BRANCH   1   5
ATOM      5  N1  <0> d           4.929  -4.656   1.032  0.00  0.00    -0.167 N 
ATOM      6  C8  <0> d           3.873  -3.888   1.372  0.00  0.00     0.275 A 
ATOM      7  C5  <0> d           4.451  -2.534   1.713  0.00  0.00     0.117 A 
ATOM      8  O1  <0> d           2.706  -4.215   1.398  0.00  0.00    -0.268 OA
ATOM      9  C4  <0> d           3.900  -1.468   0.773  0.00  0.00     0.041 C 
ATOM     10  N2  <0> d           5.896  -2.702   1.510  0.00  0.00    -0.323 N 
ATOM     11  C6  <0> d           4.154  -2.179   3.166  0.00  0.00     0.041 C 
ATOM     12  C3  <0> d           4.526  -0.113   1.115  0.00  0.00     0.007 C 
ATOM     13  C2  <0> d           4.202   0.246   2.566  0.00  0.00    -0.019 C 
ATOM     14  C1  <0> d           4.818   1.605   2.905  0.00  0.00     0.010 C 
ATOM     15  C7  <0> d           4.779  -0.821   3.498  0.00  0.00     0.007 C 
ATOM     16  C9  <0> d           6.079  -3.975   1.112  0.00  0.00     0.345 A 
ATOM     17  H13 <0> d           6.582  -2.029   1.637  0.00  0.00     0.165 HD
ATOM     18  O2  <0> d           7.166  -4.454   0.855  0.00  0.00    -0.245 OA
ENDBRANCH   1   5
BRANCH   2  19
ATOM     19  C11 <0> d           4.871  -7.781  -1.071  0.00  0.00     0.339 C 
BRANCH  19  20
ATOM     20  N4  <0> d           4.865  -7.867  -2.538  0.00  0.00    -0.055 N 
ATOM     21  H31 <0> d           5.485  -7.168  -2.918  0.00  0.00     0.281 HD
BRANCH  20  22
ATOM     22  C12 <0> d           5.318  -9.202  -2.951  0.00  0.00     0.277 C 
BRANCH  22  23
ATOM     23  C13 <0> d           5.453  -9.244  -4.452  0.00  0.00     0.004 A 
ATOM     24  C15 <0> d           6.569  -8.952  -5.159  0.00  0.00     0.122 A 
ATOM     25  N6  <0> d           6.280  -9.112  -6.468  0.00  0.00    -0.285 N 
ATOM     26  N5  <0> d           4.940  -9.506  -6.568  0.00  0.00    -0.185 NA
ATOM     27  C16 <0> d           7.204  -8.903  -7.586  0.00  0.00     0.179 C 
ATOM     28  C14 <0> d           4.445  -9.585  -5.359  0.00  0.00     0.149 A 
ENDBRANCH  22  23
ENDBRANCH  20  22
BRANCH  20  29
ATOM     29  C17 <0> d           3.502  -7.636  -3.036  0.00  0.00     0.181 C 
ATOM     30  C18 <0> d           2.551  -8.659  -2.412  0.00  0.00     0.040 C 
ATOM     31  C19 <0> d           3.053  -6.224  -2.656  0.00  0.00     0.040 C 
ENDBRANCH  20  29
ENDBRANCH  19  20
ENDBRANCH   2  19
TORSDOF 6
