REMARK  7 active torsions:
REMARK  status: ('A' for Active; 'I' for Inactive)
REMARK    1  A    between atoms: O1_2  and  C2_3 
REMARK    2  A    between atoms: C4_5  and  C8_11 
REMARK    3  A    between atoms: C7_8  and  O2_9 
REMARK    4  A    between atoms: C8_11  and  N1_12 
REMARK    5  A    between atoms: N1_12  and  C9_13 
REMARK    6  A    between atoms: C9_13  and  C10_14 
REMARK    7  A    between atoms: C10_14  and  N2_15 
ROOT
ATOM      1  N1  <0> d           3.777   0.737  -3.870  0.00  0.00    -0.070 N 
ATOM      2  H9  <0> d           3.880   1.203  -2.981  0.00  0.00     0.277 HD
ATOM      3  H26 <0> d           4.240  -0.159  -3.835  0.00  0.00     0.277 HD
ENDROOT
BRANCH   1   4
ATOM      4  C8  <0> d           2.350   0.540  -4.159  0.00  0.00     0.271 C 
BRANCH   4   5
ATOM      5  C4  <0> d           1.730  -0.303  -3.075  0.00  0.00    -0.029 A 
ATOM      6  C3  <0> d           1.185   0.302  -1.958  0.00  0.00     0.048 A 
ATOM      7  C2  <0> d           0.613  -0.471  -0.960  0.00  0.00     0.103 A 
ATOM      8  C7  <0> d           0.596  -1.857  -1.082  0.00  0.00     0.116 A 
ATOM      9  C6  <0> d           1.139  -2.458  -2.208  0.00  0.00     0.047 A 
ATOM     10  C5  <0> d           1.708  -1.679  -3.200  0.00  0.00     0.030 A 
ATOM     11 Br1  <0> d           1.109  -4.340  -2.383  0.00  0.00    -0.048 Br
BRANCH   7  12
ATOM     12  O1  <0> d           0.075   0.122   0.139  0.00  0.00    -0.353 OA
ATOM     13  C1  <0> d           0.129   1.549   0.197  0.00  0.00     0.210 C 
ENDBRANCH   7  12
BRANCH   8  14
ATOM     14  O2  <0> d           0.041  -2.621  -0.103  0.00  0.00    -0.357 OA
ATOM     15  H6  <0> d          -0.902  -2.796  -0.227  0.00  0.00     0.218 HD
ENDBRANCH   8  14
ENDBRANCH   4   5
ENDBRANCH   1   4
BRANCH   1  16
ATOM     16  C9  <0> d           4.382   1.559  -4.927  0.00  0.00     0.260 C 
BRANCH  16  17
ATOM     17  C10 <0> d           5.868   1.763  -4.626  0.00  0.00     0.262 C 
BRANCH  17  18
ATOM     18  N2  <0> d           6.501   2.474  -5.745  0.00  0.00    -0.070 N 
ATOM     19  C16 <0> d           5.971   3.764  -5.812  0.00  0.00     0.235 C 
ATOM     20  C15 <0> d           6.515   4.551  -7.023  0.00  0.00     0.028 C 
ATOM     21  C14 <0> d           7.901   5.050  -6.703  0.00  0.00     0.002 C 
ATOM     22  C13 <0> d           9.000   4.076  -7.177  0.00  0.00     0.002 C 
ATOM     23  C12 <0> d           8.621   2.609  -6.902  0.00  0.00     0.028 C 
ATOM     24  C11 <0> d           7.964   2.452  -5.554  0.00  0.00     0.235 C 
ATOM     25  H27 <0> d           6.281   1.989  -6.602  0.00  0.00     0.279 HD
ENDBRANCH  17  18
ENDBRANCH  16  17
ENDBRANCH   1  16
TORSDOF 7
