REMARK  6 active torsions:
REMARK  status: ('A' for Active; 'I' for Inactive)
REMARK    1  A    between atoms: C2_2  and  N3_31 
REMARK    2  A    between atoms: C7_8  and  N2_13 
REMARK    3  A    between atoms: C8_9  and  C9_10 
REMARK       I    between atoms: C9_10  and  N1_12 
REMARK       I    between atoms: N2_13  and  C10_14 
REMARK    4  A    between atoms: C10_14  and  C11_16 
REMARK    5  A    between atoms: C16_21  and  S2_22 
REMARK    6  A    between atoms: S2_22  and  C17_25 
ROOT
ATOM      1  C3  <0> d           6.747  -0.711   6.026  0.00  0.00     0.240 C 
ATOM      2  C4  <0> d           5.886  -1.935   5.700  0.00  0.00     0.068 C 
ATOM      3  C5  <0> d           5.035  -1.604   4.479  0.00  0.00    -0.023 A 
ATOM      4  C6  <0> d           4.859  -0.317   4.103  0.00  0.00     0.018 A 
ATOM      5  S1  <0> d           3.836  -0.404   2.663  0.00  0.00    -0.074 SA
ATOM      6  C7  <0> d           3.633  -2.122   2.566  0.00  0.00     0.093 A 
ATOM      7  C8  <0> d           4.370  -2.590   3.647  0.00  0.00     0.073 A 
ATOM      8  C19 <0> d           5.426   0.892   4.779  0.00  0.00     0.281 C 
ATOM      9  N3  <0> d           5.883   0.483   6.130  0.00  0.00    -0.067 N 
ATOM     10  H24 <0> d           5.064   0.254   6.705  0.00  0.00     0.280 HD
ENDROOT
BRANCH   6  11
ATOM     11  N2  <0> d           2.916  -2.853   1.634  0.00  0.00    -0.316 N 
ATOM     12  C10 <0> d           2.256  -2.220   0.644  0.00  0.00     0.258 C 
ATOM     13  O2  <0> d           2.291  -1.007   0.569  0.00  0.00    -0.267 OA
ATOM     14  H12 <0> d           2.888  -3.821   1.693  0.00  0.00     0.169 HD
BRANCH  12  15
ATOM     15  C11 <0> d           1.490  -3.000  -0.351  0.00  0.00     0.053 A 
ATOM     16  C16 <0> d           0.806  -2.347  -1.378  0.00  0.00     0.074 A 
ATOM     17  C15 <0> d           0.089  -3.081  -2.300  0.00  0.00     0.024 A 
ATOM     18  C14 <0> d           0.056  -4.461  -2.216  0.00  0.00     0.002 A 
ATOM     19  C13 <0> d           0.733  -5.115  -1.201  0.00  0.00     0.001 A 
ATOM     20  C12 <0> d           1.449  -4.393  -0.269  0.00  0.00     0.018 A 
BRANCH  16  21
ATOM     21  S2  <0> d           0.851  -0.589  -1.490  0.00  0.00     0.176 S 
ATOM     22  O3  <0> d           0.082  -0.280  -2.644  0.00  0.00    -0.223 OA
ATOM     23  O4  <0> d           2.232  -0.257  -1.430  0.00  0.00    -0.223 OA
BRANCH  21  24
ATOM     24  C17 <0> d           0.002  -0.004   0.002  0.00  0.00     0.141 C 
ATOM     25  C18 <0> d          -0.019   1.526   0.010  0.00  0.00     0.021 C 
ENDBRANCH  21  24
ENDBRANCH  16  21
ENDBRANCH  12  15
ENDBRANCH   6  11
BRANCH   7  26
ATOM     26  C9  <0> d           4.473  -4.023   3.936  0.00  0.00     0.252 C 
ATOM     27  O1  <0> d           5.372  -4.680   3.445  0.00  0.00    -0.268 OA
ATOM     28  N1  <0> d           3.571  -4.614   4.745  0.00  0.00    -0.366 N 
ATOM     29  H10 <0> d           2.854  -4.090   5.137  0.00  0.00     0.159 HD
ATOM     30  H11 <0> d           3.639  -5.562   4.937  0.00  0.00     0.159 HD
ENDBRANCH   7  26
BRANCH   9  31
ATOM     31  C2  <0> d           6.625   1.591   6.769  0.00  0.00     0.231 C 
ATOM     32  C1  <0> d           7.911   1.889   5.996  0.00  0.00     0.034 C 
ENDBRANCH   9  31
TORSDOF 6
