REMARK  4 active torsions:
REMARK  status: ('A' for Active; 'I' for Inactive)
REMARK    1  A    between atoms: C2_2  and  C3_3 
REMARK    2  A    between atoms: C3_3  and  C7_8 
REMARK       I    between atoms: C7_8  and  N2_10 
REMARK    3  A    between atoms: N2_10  and  C8_11 
REMARK    4  A    between atoms: C8_11  and  C10_13 
ROOT
ATOM      1  C7  <0> d          -2.122   0.102  -1.297  0.00  0.00     0.228 C 
ATOM      2  O1  <0> d          -2.697  -0.656  -2.049  0.00  0.00    -0.273 OA
ATOM      3  N2  <0> d          -2.071   1.419  -1.577  0.00  0.00    -0.349 N 
ATOM      4  H14 <0> d          -1.677   2.036  -0.940  0.00  0.00     0.163 HD
ENDROOT
BRANCH   3   5
ATOM      5  C8  <0> d          -2.611   1.920  -2.843  0.00  0.00     0.152 C 
ATOM      6  C9  <0> d          -4.115   2.159  -2.697  0.00  0.00     0.040 C 
BRANCH   5   7
ATOM      7  C10 <0> d          -1.929   3.215  -3.203  0.00  0.00     0.152 A 
ATOM      8  N5  <0> d          -1.450   3.560  -4.424  0.00  0.00    -0.319 N 
ATOM      9  C11 <0> d          -0.932   4.801  -4.287  0.00  0.00     0.130 A 
ATOM     10  C12 <0> d          -1.300   3.072  -5.800  0.00  0.00     0.132 C 
ATOM     11  N4  <0> d          -1.092   5.154  -3.039  0.00  0.00    -0.135 NA
ATOM     12  C14 <0> d          -0.377   5.278  -5.611  0.00  0.00     0.082 C 
ATOM     13  N3  <0> d          -1.686   4.212  -2.396  0.00  0.00    -0.133 NA
ATOM     14  C13 <0> d          -1.001   4.325  -6.653  0.00  0.00     0.028 C 
ENDBRANCH   5   7
ENDBRANCH   3   5
BRANCH   1  15
ATOM     15  C3  <0> d          -1.465  -0.429  -0.049  0.00  0.00     0.066 C 
ATOM     16  C6  <0> d          -1.593  -1.962   0.012  0.00  0.00     0.251 C 
ATOM     17  N1  <0> d          -2.332  -2.287   1.251  0.00  0.00    -0.074 N 
ATOM     18  C5  <0> d          -3.148  -1.086   1.563  0.00  0.00     0.233 C 
ATOM     19  H11 <0> d          -1.685  -2.474   2.003  0.00  0.00     0.277 HD
ATOM     20  H24 <0> d          -2.931  -3.085   1.100  0.00  0.00     0.277 HD
ATOM     21  C4  <0> d          -2.200   0.088   1.209  0.00  0.00     0.048 C 
BRANCH  15  22
ATOM     22  C2  <0> d           0.008  -0.017  -0.009  0.00  0.00     0.016 C 
ATOM     23  C1  <0> d           0.714  -0.526  -1.268  0.00  0.00     0.006 C 
ENDBRANCH  15  22
ENDBRANCH   1  15
TORSDOF 4
