REMARK  5 active torsions:
REMARK  status: ('A' for Active; 'I' for Inactive)
REMARK    1  A    between atoms: C4_5  and  N2_8 
REMARK    2  A    between atoms: N2_8  and  C8_10 
REMARK    3  A    between atoms: C11_13  and  N3_16 
REMARK       I    between atoms: N3_16  and  C14_17 
REMARK    4  A    between atoms: C14_17  and  C15_19 
REMARK    5  A    between atoms: C18_22  and  C21_25 
ROOT
ATOM      1  C8  <0> d           2.370  -4.837   0.076  0.00  0.00     0.030 A 
ATOM      2  C9  <0> d           3.613  -4.223   0.155  0.00  0.00     0.031 A 
ATOM      3  C10 <0> d           4.759  -4.991   0.228  0.00  0.00     0.032 A 
ATOM      4  C11 <0> d           4.668  -6.376   0.221  0.00  0.00     0.035 A 
ATOM      5  C12 <0> d           3.425  -6.990   0.142  0.00  0.00     0.032 A 
ATOM      6  C13 <0> d           2.279  -6.223   0.075  0.00  0.00     0.031 A 
ENDROOT
BRANCH   4   7
ATOM      7  N3  <0> d           5.830  -7.155   0.294  0.00  0.00    -0.323 N 
ATOM      8  C14 <0> d           5.902  -8.322  -0.375  0.00  0.00     0.256 C 
ATOM      9  O1  <0> d           4.931  -8.739  -0.977  0.00  0.00    -0.267 OA
ATOM     10  H20 <0> d           6.583  -6.854   0.826  0.00  0.00     0.169 HD
BRANCH   8  11
ATOM     11  C15 <0> d           7.163  -9.097  -0.378  0.00  0.00     0.032 A 
ATOM     12  C20 <0> d           7.237 -10.306  -1.072  0.00  0.00     0.018 A 
ATOM     13  C19 <0> d           8.412 -11.026  -1.079  0.00  0.00     0.015 A 
ATOM     14  C18 <0> d           9.527 -10.550  -0.383  0.00  0.00     0.002 A 
ATOM     15  C17 <0> d           9.450  -9.341   0.316  0.00  0.00     0.015 A 
ATOM     16  C16 <0> d           8.276  -8.621   0.317  0.00  0.00     0.018 A 
BRANCH  14  17
ATOM     17  C21 <0> d          10.783 -11.321  -0.386  0.00  0.00     0.269 C 
ATOM     18  O2  <0> d          10.849 -12.369  -0.992  0.00  0.00    -0.301 OA
ENDBRANCH  14  17
ENDBRANCH   8  11
ENDBRANCH   4   7
BRANCH   1  19
ATOM     19  N2  <0> d           1.209  -4.060   0.004  0.00  0.00    -0.380 N 
ATOM     20  C7  <0> d           1.310  -2.603  -0.117  0.00  0.00     0.150 C 
BRANCH  19  21
ATOM     21  C4  <0> d          -0.107  -4.702   0.049  0.00  0.00     0.087 C 
ATOM     22  C3  <0> d          -0.846  -4.267   1.317  0.00  0.00     0.053 C 
ATOM     23  C2  <0> d          -2.249  -4.878   1.318  0.00  0.00     0.236 C 
ATOM     24  N1  <0> d          -2.988  -4.417   0.137  0.00  0.00    -0.075 N 
ATOM     25  C1  <0> d          -4.359  -4.943   0.183  0.00  0.00     0.269 C 
ATOM     26  C6  <0> d          -2.324  -4.892  -1.083  0.00  0.00     0.236 C 
ATOM     27  H26 <0> d          -3.016  -3.409   0.132  0.00  0.00     0.279 HD
ATOM     28  C5  <0> d          -0.924  -4.282  -1.177  0.00  0.00     0.053 C 
ENDBRANCH  19  21
ENDBRANCH   1  19
TORSDOF 5
