REMARK  3 active torsions:
REMARK  status: ('A' for Active; 'I' for Inactive)
REMARK    1  A    between atoms: C3_3  and  C10_12 
REMARK    2  A    between atoms: C6_6  and  C7_7 
REMARK       I    between atoms: C10_12  and  N2_14 
REMARK    3  A    between atoms: N2_14  and  C11_15 
ROOT
ATOM      1  C1  <0> d          -0.017   1.394   0.003  0.00  0.00     0.015 A 
ATOM      2  C2  <0> d           1.156   2.093  -0.002  0.00  0.00     0.018 A 
ATOM      3  C3  <0> d           2.377   1.410  -0.016  0.00  0.00     0.032 A 
ATOM      4  C4  <0> d           2.396   0.012  -0.025  0.00  0.00     0.018 A 
ATOM      5  C5  <0> d           1.222  -0.687  -0.019  0.00  0.00     0.015 A 
ATOM      6  C6  <0> d           0.002  -0.004  -0.005  0.00  0.00    -0.001 A 
ENDROOT
BRANCH   3   7
ATOM      7  C10 <0> d           3.644   2.165  -0.023  0.00  0.00     0.257 C 
ATOM      8  O2  <0> d           3.628   3.381  -0.016  0.00  0.00    -0.267 OA
ATOM      9  N2  <0> d           4.821   1.507  -0.036  0.00  0.00    -0.307 N 
ATOM     10  H7  <0> d           4.836   0.540   0.033  0.00  0.00     0.170 HD
BRANCH   9  11
ATOM     11  C11 <0> d           6.014   2.217  -0.150  0.00  0.00     0.130 A 
ATOM     12  N3  <0> d           5.993   3.540  -0.148  0.00  0.00    -0.242 NA
ATOM     13  C15 <0> d           7.101   4.250  -0.248  0.00  0.00     0.138 A 
ATOM     14  C14 <0> d           8.330   3.632  -0.370  0.00  0.00     0.028 A 
ATOM     15  C13 <0> d           8.395   2.244  -0.381  0.00  0.00     0.024 A 
ATOM     16 Br1  <0> d           9.908   4.663  -0.519  0.00  0.00    -0.050 Br
ATOM     17  C12 <0> d           7.216   1.528  -0.269  0.00  0.00     0.052 A 
ENDBRANCH   9  11
ENDBRANCH   3   7
BRANCH   6  18
ATOM     18  C7  <0> d          -1.266  -0.760   0.002  0.00  0.00     0.104 A 
ATOM     19  O1  <0> d          -2.513  -0.240   0.016  0.00  0.00    -0.302 OA
ATOM     20  C9  <0> d          -3.380  -1.261   0.013  0.00  0.00     0.258 A 
ATOM     21  N1  <0> d          -2.716  -2.384   0.008  0.00  0.00    -0.246 NA
ATOM     22  C8  <0> d          -1.404  -2.112   0.000  0.00  0.00     0.156 A 
ENDBRANCH   6  18
TORSDOF 3
