REMARK  4 active torsions:
REMARK  status: ('A' for Active; 'I' for Inactive)
REMARK    1  A    between atoms: C7_7  and  N1_8 
REMARK    2  A    between atoms: C9_11  and  C10_12 
REMARK    3  A    between atoms: C10_12  and  C11_13 
REMARK    4  A    between atoms: C14_16  and  C17_19 
REMARK       I    between atoms: C17_19  and  N2_21 
ROOT
ATOM      1  N1  <0> d          -6.736  -4.801  -0.284  0.00  0.00    -0.252 N 
ATOM      2  C8  <0> d          -7.240  -3.554  -0.202  0.00  0.00     0.281 A 
ATOM      3  O1  <0> d          -8.415  -3.237  -0.219  0.00  0.00    -0.265 OA
ATOM      4  C9  <0> d          -6.079  -2.651  -0.084  0.00  0.00     0.104 A 
ATOM      5  N3  <0> d          -4.960  -3.486  -0.117  0.00  0.00    -0.328 N 
ATOM      6  C19 <0> d          -5.396  -4.753  -0.231  0.00  0.00     0.186 A 
ATOM      7  S1  <0> d          -4.374  -6.125  -0.305  0.00  0.00    -0.040 SA
ATOM      8  H16 <0> d          -4.034  -3.203  -0.065  0.00  0.00     0.168 HD
ENDROOT
BRANCH   4   9
ATOM      9  C10 <0> d          -6.095  -1.299   0.025  0.00  0.00     0.046 C 
BRANCH   9  10
ATOM     10  C11 <0> d          -4.850  -0.570   0.306  0.00  0.00    -0.034 A 
ATOM     11  C16 <0> d          -4.727   0.775  -0.062  0.00  0.00     0.012 A 
ATOM     12  C15 <0> d          -3.571   1.452   0.204  0.00  0.00     0.018 A 
ATOM     13  C14 <0> d          -2.507   0.800   0.833  0.00  0.00     0.032 A 
ATOM     14  C13 <0> d          -2.628  -0.542   1.202  0.00  0.00     0.018 A 
ATOM     15  C12 <0> d          -3.785  -1.221   0.942  0.00  0.00     0.012 A 
BRANCH  13  16
ATOM     16  C17 <0> d          -1.255   1.533   1.115  0.00  0.00     0.251 C 
ATOM     17  O2  <0> d          -0.331   0.968   1.666  0.00  0.00    -0.268 OA
ATOM     18  N2  <0> d          -1.138   2.828   0.760  0.00  0.00    -0.361 N 
ATOM     19  C18 <0> d           0.101   3.556   1.044  0.00  0.00     0.149 C 
ATOM     20  H12 <0> d          -1.875   3.279   0.319  0.00  0.00     0.162 HD
ENDBRANCH  13  16
ENDBRANCH   9  10
ENDBRANCH   4   9
BRANCH   1  21
ATOM     21  C7  <0> d          -7.496  -5.972  -0.408  0.00  0.00     0.051 A 
ATOM     22  C2  <0> d          -7.918  -6.651   0.727  0.00  0.00    -0.033 A 
ATOM     23  C1  <0> d          -7.559  -6.129   2.094  0.00  0.00     0.050 C 
ATOM     24  C3  <0> d          -8.668  -7.804   0.602  0.00  0.00     0.032 A 
ATOM     25  C4  <0> d          -8.998  -8.283  -0.653  0.00  0.00     0.034 A 
ATOM     26  C5  <0> d          -8.579  -7.609  -1.787  0.00  0.00     0.026 A 
ATOM     27 Cl1  <0> d          -9.941  -9.733  -0.807  0.00  0.00    -0.084 Cl
ATOM     28  C6  <0> d          -7.834  -6.452  -1.667  0.00  0.00     0.032 A 
ENDBRANCH   1  21
TORSDOF 4
