REMARK  3 active torsions:
REMARK  status: ('A' for Active; 'I' for Inactive)
REMARK    1  A    between atoms: C9_10  and  N1_11 
REMARK    2  A    between atoms: N1_11  and  C10_12 
REMARK    3  A    between atoms: C10_12  and  C12_14 
ROOT
ATOM      1  C1  <0> d          -1.524   2.105  -0.249  0.00  0.00     0.076 C 
ATOM      2  C2  <0> d          -1.150   0.648  -0.158  0.00  0.00     0.050 A 
ATOM      3  C3  <0> d          -2.011  -0.388  -0.180  0.00  0.00     0.044 A 
ATOM      4  C4  <0> d          -1.236  -1.557  -0.070  0.00  0.00     0.004 A 
ATOM      5  C5  <0> d           0.054  -1.173   0.015  0.00  0.00     0.062 A 
ATOM      6  O1  <0> d           0.099   0.163  -0.045  0.00  0.00    -0.319 OA
ATOM      7  C6  <0> d           1.211  -2.133   0.150  0.00  0.00     0.074 C 
ATOM      8  C7  <0> d           0.661  -3.497   0.587  0.00  0.00    -0.040 C 
ATOM      9  C8  <0> d          -0.501  -3.897  -0.327  0.00  0.00     0.047 C 
ATOM     10  C9  <0> d          -1.705  -2.989  -0.047  0.00  0.00     0.223 C 
ATOM     11  C17 <0> d           0.166  -3.408   2.032  0.00  0.00     0.015 C 
ATOM     12  C18 <0> d           1.769  -4.547   0.492  0.00  0.00     0.015 C 
ENDROOT
BRANCH  10  13
ATOM     13  N1  <0> d          -2.728  -3.191  -1.083  0.00  0.00    -0.057 N 
ATOM     14  H11 <0> d          -3.468  -2.516  -0.960  0.00  0.00     0.278 HD
ATOM     15  H25 <0> d          -2.312  -3.072  -1.994  0.00  0.00     0.278 HD
BRANCH  13  16
ATOM     16  C10 <0> d          -3.279  -4.548  -0.968  0.00  0.00     0.234 C 
ATOM     17  C11 <0> d          -4.038  -4.681   0.354  0.00  0.00     0.047 C 
BRANCH  16  18
ATOM     18  C12 <0> d          -4.221  -4.806  -2.116  0.00  0.00     0.064 A 
ATOM     19  N2  <0> d          -4.812  -3.791  -2.714  0.00  0.00    -0.263 NA
ATOM     20  C16 <0> d          -5.639  -3.969  -3.726  0.00  0.00     0.117 A 
ATOM     21  C15 <0> d          -5.925  -5.238  -4.191  0.00  0.00     0.019 A 
ATOM     22  C14 <0> d          -5.326  -6.331  -3.583  0.00  0.00     0.003 A 
ATOM     23  C13 <0> d          -4.458  -6.104  -2.526  0.00  0.00     0.029 A 
ENDBRANCH  16  18
ENDBRANCH  13  16
ENDBRANCH  10  13
TORSDOF 3
