REMARK  4 active torsions:
REMARK  status: ('A' for Active; 'I' for Inactive)
REMARK    1  A    between atoms: C2_2  and  C3_3 
REMARK    2  A    between atoms: C4_6  and  N3_8 
REMARK       I    between atoms: N3_8  and  C5_9 
REMARK    3  A    between atoms: C5_9  and  C6_11 
REMARK    4  A    between atoms: C6_11  and  N4_12 
ROOT
ATOM      1  N4  <0> d           4.704  -2.817  -6.816  0.00  0.00    -0.347 N 
ATOM      2  C7  <0> d           5.534  -1.824  -7.216  0.00  0.00     0.096 A 
ATOM      3  C8  <0> d           6.859  -2.010  -7.385  0.00  0.00     0.073 A 
ATOM      4  C9  <0> d           7.434  -3.280  -7.141  0.00  0.00     0.185 A 
ATOM      5  O2  <0> d           8.630  -3.469  -7.288  0.00  0.00    -0.287 OA
ATOM      6  C10 <0> d           6.540  -4.366  -6.705  0.00  0.00     0.042 A 
ATOM      7  C11 <0> d           5.171  -4.085  -6.548  0.00  0.00     0.049 A 
ATOM      8  C12 <0> d           4.309  -5.095  -6.133  0.00  0.00     0.032 A 
ATOM      9  C13 <0> d           4.802  -6.354  -5.873  0.00  0.00     0.026 A 
ATOM     10  C14 <0> d           6.155  -6.630  -6.021  0.00  0.00     0.035 A 
ATOM     11  C15 <0> d           7.024  -5.647  -6.444  0.00  0.00     0.041 A 
ATOM     12 Cl1  <0> d           6.753  -8.225  -5.687  0.00  0.00    -0.084 Cl
ENDROOT
BRANCH   1  13
ATOM     13  C6  <0> d           3.275  -2.533  -6.657  0.00  0.00     0.231 C 
BRANCH  13  14
ATOM     14  C5  <0> d           3.009  -2.068  -5.248  0.00  0.00     0.241 C 
ATOM     15  N3  <0> d           1.756  -1.748  -4.870  0.00  0.00    -0.303 N 
ATOM     16  H6  <0> d           1.025  -1.817  -5.504  0.00  0.00     0.171 HD
ATOM     17  O1  <0> d           3.923  -1.982  -4.455  0.00  0.00    -0.271 OA
BRANCH  15  18
ATOM     18  C4  <0> d           1.510  -1.319  -3.570  0.00  0.00     0.196 A 
ATOM     19  N2  <0> d           2.358  -1.161  -2.572  0.00  0.00    -0.123 NA
ATOM     20  N1  <0> d           1.983  -0.759  -1.434  0.00  0.00    -0.145 NA
ATOM     21  C3  <0> d           0.707  -0.490  -1.238  0.00  0.00     0.100 A 
ATOM     22  S1  <0> d           0.050  -0.872  -2.855  0.00  0.00    -0.033 SA
BRANCH  21  23
ATOM     23  C2  <0> d           0.002  -0.004   0.002  0.00  0.00     0.064 C 
ATOM     24  C1  <0> d          -0.019   1.526   0.010  0.00  0.00     0.012 C 
ENDBRANCH  21  23
ENDBRANCH  15  18
ENDBRANCH  13  14
ENDBRANCH   1  13
TORSDOF 4
