REMARK  3 active torsions:
REMARK  status: ('A' for Active; 'I' for Inactive)
REMARK    1  A    between atoms: C5_5  and  N1_8 
REMARK    2  A    between atoms: N1_8  and  C8_9 
REMARK    3  A    between atoms: N2_13  and  C12_16 
ROOT
ATOM      1  C8  <0> d          -1.458  -0.657   4.907  0.00  0.00     0.286 A 
ATOM      2  C9  <0> d          -2.115  -0.121   6.196  0.00  0.00     0.146 A 
ATOM      3  C10 <0> d          -2.674  -1.364   6.853  0.00  0.00     0.229 A 
ATOM      4  O1  <0> d          -3.278  -1.392   7.903  0.00  0.00    -0.273 OA
ATOM      5  N2  <0> d          -2.395  -2.429   6.090  0.00  0.00    -0.282 N 
ATOM      6  C11 <0> d          -1.712  -2.147   4.969  0.00  0.00     0.258 A 
ATOM      7  O2  <0> d          -1.355  -2.956   4.139  0.00  0.00    -0.271 OA
ENDROOT
BRANCH   1   8
ATOM      8  N1  <0> d          -2.097  -0.073   3.720  0.00  0.00    -0.058 N 
ATOM      9  H15 <0> d          -2.039   0.933   3.767  0.00  0.00     0.278 HD
ATOM     10  H25 <0> d          -3.066  -0.353   3.687  0.00  0.00     0.278 HD
BRANCH   8  11
ATOM     11  C5  <0> d          -1.409  -0.547   2.511  0.00  0.00     0.187 C 
ATOM     12  C4  <0> d          -2.149  -0.040   1.272  0.00  0.00     0.033 C 
ATOM     13  C3  <0> d          -1.433  -0.534   0.013  0.00  0.00     0.006 C 
ATOM     14  C2  <0> d           0.002  -0.004   0.002  0.00  0.00    -0.019 C 
ATOM     15  C1  <0> d          -0.019   1.526   0.010  0.00  0.00     0.010 C 
ATOM     16  C7  <0> d           0.742  -0.511   1.242  0.00  0.00     0.006 C 
ATOM     17  C6  <0> d           0.026  -0.018   2.500  0.00  0.00     0.033 C 
ENDBRANCH   8  11
ENDBRANCH   1   8
BRANCH   5  18
ATOM     18  C12 <0> d          -2.801  -3.789   6.449  0.00  0.00     0.087 C 
ATOM     19  C13 <0> d          -2.174  -4.171   7.792  0.00  0.00     0.032 C 
ATOM     20  C14 <0> d          -4.326  -3.854   6.562  0.00  0.00     0.032 C 
ENDBRANCH   5  18
TORSDOF 3
