REMARK  9 active torsions:
REMARK  status: ('A' for Active; 'I' for Inactive)
REMARK    1  A    between atoms: C2_2  and  C3_3 
REMARK    2  A    between atoms: C10_10  and  C12_15 
REMARK    3  A    between atoms: C12_15  and  C13_16 
REMARK    4  A    between atoms: C12_15  and  N6_39 
REMARK    5  A    between atoms: N5_20  and  C14_21 
REMARK    6  A    between atoms: C18_25  and  C19_26 
REMARK    7  A    between atoms: C18_25  and  N6_39 
REMARK    8  A    between atoms: C25_33  and  C26_34 
REMARK    9  A    between atoms: C25_33  and  N6_39 
ROOT
ATOM      1  C12 <0> d           2.699   0.106  -0.024  0.00  0.00     0.299 C 
ENDROOT
BRANCH   1   2
ATOM      2  C10 <0> d           1.231   0.295  -0.311  0.00  0.00     0.049 A 
ATOM      3  C9  <0> d           0.831   0.709  -1.539  0.00  0.00     0.029 A 
ATOM      4  C7  <0> d          -0.601   0.888  -1.785  0.00  0.00    -0.008 A 
ATOM      5  C6  <0> d          -1.510   0.616  -0.745  0.00  0.00     0.045 A 
ATOM      6  C8  <0> d          -1.073   1.318  -3.029  0.00  0.00     0.021 A 
ATOM      7  C5  <0> d          -2.873   0.779  -0.971  0.00  0.00     0.031 A 
ATOM      8  N1  <0> d          -1.039   0.197   0.481  0.00  0.00    -0.322 N 
ATOM      9  C4  <0> d          -3.316   1.212  -2.202  0.00  0.00     0.009 A 
ATOM     10  C3  <0> d          -2.416   1.476  -3.226  0.00  0.00    -0.058 A 
ATOM     11  C11 <0> d           0.279   0.040   0.698  0.00  0.00     0.254 A 
ATOM     12  H1  <0> d          -1.687   0.008   1.219  0.00  0.00     0.169 HD
ATOM     13  O1  <0> d           0.659  -0.331   1.795  0.00  0.00    -0.268 OA
BRANCH  10  14
ATOM     14  C2  <0> d          -2.925   1.939  -4.567  0.00  0.00     0.034 C 
ATOM     15  C1  <0> d          -3.193   0.725  -5.458  0.00  0.00     0.010 C 
ENDBRANCH  10  14
ENDBRANCH   1   2
BRANCH   1  16
ATOM     16  C13 <0> d           3.493   0.357  -1.280  0.00  0.00     0.184 A 
ATOM     17  N5  <0> d           4.078  -0.570  -2.060  0.00  0.00    -0.223 N 
ATOM     18  N4  <0> d           4.652   0.057  -3.030  0.00  0.00    -0.043 NA
ATOM     19  N3  <0> d           4.457   1.321  -2.881  0.00  0.00    -0.023 NA
ATOM     20  N2  <0> d           3.753   1.523  -1.821  0.00  0.00    -0.111 NA
BRANCH  17  21
ATOM     21  C14 <0> d           4.063  -2.020  -1.849  0.00  0.00     0.048 C 
ATOM     22  C15 <0> d           2.616  -2.510  -1.781  0.00  0.00     0.040 C 
ATOM     23  C16 <0> d           4.782  -2.711  -3.009  0.00  0.00     0.040 C 
ATOM     24  C17 <0> d           4.776  -2.352  -0.536  0.00  0.00     0.040 C 
ENDBRANCH  17  21
ENDBRANCH   1  16
BRANCH   1  25
ATOM     25  N6  <0> d           3.104   1.044   1.043  0.00  0.00    -0.046 N 
ATOM     26  H32 <0> d           2.572   0.831   1.895  0.00  0.00     0.282 HD
BRANCH  25  27
ATOM     27  C18 <0> d           4.547   0.893   1.327  0.00  0.00     0.277 C 
BRANCH  27  28
ATOM     28  C19 <0> d           4.872   1.641   2.595  0.00  0.00    -0.011 A 
ATOM     29  C24 <0> d           4.491   1.123   3.820  0.00  0.00     0.042 A 
ATOM     30  C23 <0> d           4.790   1.810   4.984  0.00  0.00     0.024 A 
ATOM     31 Cl1  <0> d           3.637  -0.386   3.897  0.00  0.00    -0.084 Cl
ATOM     32  C22 <0> d           5.471   3.011   4.921  0.00  0.00     0.002 A 
ATOM     33  C21 <0> d           5.852   3.527   3.696  0.00  0.00     0.001 A 
ATOM     34  C20 <0> d           5.557   2.840   2.534  0.00  0.00     0.010 A 
ENDBRANCH  27  28
ENDBRANCH  25  27
BRANCH  25  35
ATOM     35  C25 <0> d           2.813   2.434   0.631  0.00  0.00     0.301 C 
BRANCH  35  36
ATOM     36  C26 <0> d           1.404   2.772   1.045  0.00  0.00     0.078 A 
ATOM     37  O2  <0> d           0.323   2.738   0.249  0.00  0.00    -0.325 OA
ATOM     38  C29 <0> d          -0.763   3.096   0.954  0.00  0.00     0.142 A 
ATOM     39  C28 <0> d          -0.380   3.373   2.213  0.00  0.00     0.027 A 
ATOM     40  C27 <0> d           1.017   3.164   2.272  0.00  0.00     0.036 A 
ENDBRANCH  35  36
ENDBRANCH  25  35
ENDBRANCH   1  25
TORSDOF 9
