REMARK  6 active torsions:
REMARK  status: ('A' for Active; 'I' for Inactive)
REMARK    1  A    between atoms: C2_2  and  C3_3 
REMARK    2  A    between atoms: C7_7  and  C8_9 
REMARK    3  A    between atoms: C9_10  and  C19_24 
REMARK    4  A    between atoms: C10_12  and  C11_14 
REMARK    5  A    between atoms: C11_14  and  N4_15 
REMARK    6  A    between atoms: N4_15  and  C12_16 
ROOT
ATOM      1  C12 <0> d           7.396   2.540   6.563  0.00  0.00     0.029 A 
ATOM      2  C13 <0> d           8.441   1.741   7.014  0.00  0.00     0.029 A 
ATOM      3  C14 <0> d           9.245   2.169   8.054  0.00  0.00     0.004 A 
ATOM      4  C15 <0> d           9.015   3.392   8.652  0.00  0.00     0.023 A 
ATOM      5  C16 <0> d           7.969   4.201   8.207  0.00  0.00     0.046 A 
ATOM      6  C17 <0> d           7.160   3.772   7.153  0.00  0.00     0.051 A 
ATOM      7  C18 <0> d           7.728   5.470   8.826  0.00  0.00     0.099 C 
ATOM      8  N5  <0> d           7.538   6.476   9.317  0.00  0.00    -0.191 NA
ENDROOT
BRANCH   1   9
ATOM      9  N4  <0> d           6.586   2.103   5.512  0.00  0.00    -0.383 N 
ATOM     10  H12 <0> d           5.860   2.661   5.195  0.00  0.00     0.160 HD
BRANCH   9  11
ATOM     11  C11 <0> d           6.835   0.800   4.889  0.00  0.00     0.198 C 
BRANCH  11  12
ATOM     12  C10 <0> d           5.830   0.570   3.789  0.00  0.00     0.123 A 
ATOM     13  N2  <0> d           6.032   0.842   2.473  0.00  0.00    -0.341 N 
ATOM     14  C9  <0> d           4.882   0.491   1.802  0.00  0.00     0.071 A 
ATOM     15  H23 <0> d           6.837   1.214   2.080  0.00  0.00     0.167 HD
ATOM     16  C8  <0> d           4.005   0.007   2.767  0.00  0.00     0.114 A 
ATOM     17  N3  <0> d           4.633   0.084   3.956  0.00  0.00    -0.229 NA
BRANCH  14  18
ATOM     18  C19 <0> d           4.633   0.604   0.366  0.00  0.00    -0.026 C 
ATOM     19  C24 <0> d           4.362   1.963  -0.229  0.00  0.00     0.080 C 
ATOM     20  C23 <0> d           3.352   1.826  -1.365  0.00  0.00     0.185 C 
ATOM     21  C22 <0> d           3.812   0.681  -2.260  0.00  0.00     0.078 C 
ATOM     22  O1  <0> d           3.441   2.960  -2.258  0.00  0.00    -0.354 OA
ATOM     23  C21 <0> d           4.379  -0.438  -1.790  0.00  0.00     0.035 C 
ATOM     24  O2  <0> d           3.523   1.039  -3.529  0.00  0.00    -0.328 OA
ATOM     25  C20 <0> d           4.646  -0.511  -0.395  0.00  0.00     0.012 C 
ATOM     26  C25 <0> d           3.003   2.381  -3.512  0.00  0.00     0.345 C 
ENDBRANCH  14  18
BRANCH  16  27
ATOM     27  C7  <0> d           2.635  -0.494   2.532  0.00  0.00     0.088 A 
ATOM     28  C6  <0> d           2.064  -1.398   3.429  0.00  0.00     0.034 A 
ATOM     29  C5  <0> d           0.780  -1.857   3.195  0.00  0.00     0.004 A 
ATOM     30  C4  <0> d           0.106  -1.399   2.071  0.00  0.00     0.027 A 
ATOM     31  C3  <0> d           0.731  -0.503   1.223  0.00  0.00     0.035 A 
ATOM     32  N1  <0> d           1.957  -0.085   1.464  0.00  0.00    -0.251 NA
BRANCH  31  33
ATOM     33  C2  <0> d           0.002  -0.004   0.002  0.00  0.00     0.055 C 
ATOM     34  C1  <0> d          -0.019   1.526   0.010  0.00  0.00     0.011 C 
ENDBRANCH  31  33
ENDBRANCH  16  27
ENDBRANCH  11  12
ENDBRANCH   9  11
ENDBRANCH   1   9
TORSDOF 6
