REMARK  5 active torsions:
REMARK  status: ('A' for Active; 'I' for Inactive)
REMARK    1  A    between atoms: C5_6  and  N3_13 
REMARK       I    between atoms: N3_13  and  C8_14 
REMARK    2  A    between atoms: C8_14  and  C9_16 
REMARK    3  A    between atoms: C9_16  and  N4_17 
REMARK    4  A    between atoms: C12_20  and  C15_23 
REMARK    5  A    between atoms: C18_26  and  O4_29 
ROOT
ATOM      1  N3  <0> d           1.013   9.559   1.857  0.00  0.00    -0.305 N 
ATOM      2  C8  <0> d           1.256   8.257   1.607  0.00  0.00     0.249 C 
ATOM      3  O3  <0> d           1.405   7.480   2.526  0.00  0.00    -0.271 OA
ATOM      4  H5  <0> d           0.878  10.263   1.022  0.00  0.00     0.171 HD
ENDROOT
BRANCH   2   5
ATOM      5  C9  <0> d           1.345   7.766   0.185  0.00  0.00     0.337 C 
BRANCH   5   6
ATOM      6  N4  <0> d           1.761   6.358   0.178  0.00  0.00    -0.059 N 
ATOM      7  C14 <0> d           1.646   5.781  -1.168  0.00  0.00     0.263 C 
ATOM      8  C13 <0> d           2.202   4.387  -1.187  0.00  0.00     0.008 C 
ATOM      9  C12 <0> d           2.985   3.914  -0.242  0.00  0.00    -0.049 C 
ATOM     10  C11 <0> d           3.403   4.729   0.949  0.00  0.00     0.067 C 
ATOM     11  C10 <0> d           3.138   6.212   0.678  0.00  0.00     0.240 C 
ATOM     12  H23 <0> d           1.085   5.808   0.849  0.00  0.00     0.280 HD
BRANCH   9  13
ATOM     13  C15 <0> d           3.480   2.526  -0.360  0.00  0.00    -0.030 A 
ATOM     14  C20 <0> d           3.094   1.564   0.575  0.00  0.00     0.014 A 
ATOM     15  C19 <0> d           3.558   0.271   0.462  0.00  0.00     0.037 A 
ATOM     16  C18 <0> d           4.407  -0.075  -0.581  0.00  0.00     0.065 A 
ATOM     17  C17 <0> d           4.793   0.878  -1.513  0.00  0.00     0.037 A 
ATOM     18  C16 <0> d           4.333   2.174  -1.407  0.00  0.00     0.014 A 
BRANCH  16  19
ATOM     19  O4  <0> d           4.862  -1.351  -0.689  0.00  0.00    -0.361 OA
ATOM     20  H19 <0> d           4.557  -2.108   0.049  0.00  0.00     0.217 HD
ENDBRANCH  16  19
ENDBRANCH   9  13
ENDBRANCH   5   6
ENDBRANCH   2   5
BRANCH   1  21
ATOM     21  C5  <0> d           0.932  10.009   3.163  0.00  0.00     0.167 A 
ATOM     22  O1  <0> d           1.070   9.257   4.265  0.00  0.00    -0.296 OA
ATOM     23  C4  <0> d           0.939   9.996   5.383  0.00  0.00     0.065 A 
ATOM     24  C3  <0> d           0.698  11.278   5.039  0.00  0.00     0.039 A 
ATOM     25  C21 <0> d           1.040   9.473   6.793  0.00  0.00     0.077 C 
ATOM     26  C2  <0> d           0.463  12.542   5.744  0.00  0.00     0.064 A 
ATOM     27  C6  <0> d           0.690  11.304   3.555  0.00  0.00     0.099 A 
ATOM     28  C1  <0> d           0.460  12.579   7.250  0.00  0.00     0.073 C 
ATOM     29  N2  <0> d           0.258  13.628   5.064  0.00  0.00    -0.176 NA
ATOM     30  N1  <0> d           0.246  13.677   3.673  0.00  0.00    -0.242 N 
ATOM     31  C7  <0> d           0.448  12.587   2.903  0.00  0.00     0.277 A 
ATOM     32  H1  <0> d           0.062  14.654   3.204  0.00  0.00     0.192 HD
ATOM     33  O2  <0> d           0.429  12.672   1.688  0.00  0.00    -0.266 OA
ENDBRANCH   1  21
TORSDOF 5
