REMARK  3 active torsions:
REMARK  status: ('A' for Active; 'I' for Inactive)
REMARK    1  A    between atoms: C6_6  and  C7_7 
REMARK    2  A    between atoms: C7_7  and  C8_8 
REMARK    3  A    between atoms: C7_7  and  O1_16 
ROOT
ATOM      1  C1  <0> d          -0.017   1.378   0.010  0.00  0.00     0.013 A 
ATOM      2  C2  <0> d           1.169   2.091   0.002  0.00  0.00     0.040 A 
ATOM      3  C3  <0> d           2.378   1.419  -0.013  0.00  0.00     0.096 A 
ATOM      4  C4  <0> d           2.397   0.025  -0.021  0.00  0.00     0.069 A 
ATOM      5  C5  <0> d           1.207  -0.684  -0.013  0.00  0.00     0.042 A 
ATOM      6  C6  <0> d           0.002  -0.004   0.002  0.00  0.00    -0.023 A 
ATOM      7  N1  <0> d           3.629  -0.644  -0.038  0.00  0.00    -0.323 N 
ATOM      8  C14 <0> d           4.751   0.043   0.269  0.00  0.00     0.246 C 
ATOM      9  O2  <0> d           5.831  -0.507   0.231  0.00  0.00    -0.271 OA
ATOM     10  C15 <0> d           4.655   1.496   0.659  0.00  0.00     0.278 C 
ATOM     11  O3  <0> d           3.552   2.104  -0.020  0.00  0.00    -0.340 OA
ATOM     12  H9  <0> d           3.675  -1.586  -0.267  0.00  0.00     0.169 HD
ENDROOT
BRANCH   6  13
ATOM     13  C7  <0> d          -1.294  -0.773   0.011  0.00  0.00     0.184 C 
BRANCH  13  14
ATOM     14  C8  <0> d          -1.804  -0.915  -1.400  0.00  0.00    -0.021 A 
ATOM     15  C13 <0> d          -1.604  -2.095  -2.091  0.00  0.00     0.029 A 
ATOM     16  C12 <0> d          -2.076  -2.229  -3.385  0.00  0.00     0.014 A 
ATOM     17  C11 <0> d          -2.738  -1.178  -3.991  0.00  0.00     0.061 A 
ATOM     18 Br1  <0> d          -1.809  -3.848  -4.326  0.00  0.00    -0.051 Br
ATOM     19  C10 <0> d          -2.934   0.006  -3.301  0.00  0.00     0.118 A 
ATOM     20  C9  <0> d          -2.466   0.137  -2.005  0.00  0.00     0.052 A 
ATOM     21  F1  <0> d          -3.581   1.034  -3.893  0.00  0.00    -0.206 F 
ENDBRANCH  13  14
BRANCH  13  22
ATOM     22  O1  <0> d          -2.259  -0.071   0.797  0.00  0.00    -0.386 OA
ATOM     23  H8  <0> d          -2.457   0.819   0.475  0.00  0.00     0.210 HD
ENDBRANCH  13  22
ENDBRANCH   6  13
TORSDOF 3
