REMARK  6 active torsions:
REMARK  status: ('A' for Active; 'I' for Inactive)
REMARK    1  A    between atoms: C3_3  and  N2_8 
REMARK    2  A    between atoms: N2_8  and  C6_9 
REMARK    3  A    between atoms: C6_9  and  N3_11 
REMARK    4  A    between atoms: N3_11  and  C7_12 
REMARK    5  A    between atoms: C7_12  and  C8_13 
REMARK    6  A    between atoms: C8_13  and  C9_14 
ROOT
ATOM      1  N3  <0> d           1.040  -3.314   4.981  0.00  0.00    -0.367 N 
ATOM      2  H7  <0> d           0.086  -3.134   5.498  0.00  0.00     0.161 HD
ENDROOT
BRANCH   1   3
ATOM      3  C6  <0> d           1.979  -4.094   5.553  0.00  0.00     0.173 C 
ATOM      4  S1  <0> d           3.464  -4.375   4.749  0.00  0.00    -0.041 SA
BRANCH   3   5
ATOM      5  N2  <0> d           1.749  -4.652   6.758  0.00  0.00    -0.318 N 
ATOM      6  H6  <0> d           0.833  -4.404   7.313  0.00  0.00     0.170 HD
BRANCH   5   7
ATOM      7  C3  <0> d           2.673  -5.544   7.300  0.00  0.00     0.129 A 
ATOM      8  C2  <0> d           2.381  -6.197   8.492  0.00  0.00     0.052 A 
ATOM      9  C1  <0> d           3.306  -7.080   9.020  0.00  0.00     0.024 A 
ATOM     10  C5  <0> d           4.497  -7.280   8.334  0.00  0.00     0.028 A 
ATOM     11  C4  <0> d           4.721  -6.596   7.155  0.00  0.00     0.138 A 
ATOM     12 Br1  <0> d           5.799  -8.474   9.009  0.00  0.00    -0.050 Br
ATOM     13  N1  <0> d           3.818  -5.764   6.673  0.00  0.00    -0.242 NA
ENDBRANCH   5   7
ENDBRANCH   3   5
ENDBRANCH   1   3
BRANCH   1  14
ATOM     14  C7  <0> d           1.290  -2.708   3.671  0.00  0.00     0.129 C 
BRANCH  14  15
ATOM     15  C8  <0> d           0.074  -1.878   3.253  0.00  0.00     0.095 C 
BRANCH  15  16
ATOM     16  C9  <0> d           0.332  -1.254   1.905  0.00  0.00     0.075 A 
ATOM     17  N5  <0> d          -0.578  -0.458   1.278  0.00  0.00    -0.370 N 
ATOM     18  C15 <0> d          -0.009  -0.023  -0.008  0.00  0.00     0.132 A 
ATOM     19  H16 <0> d          -1.585  -0.127   1.573  0.00  0.00     0.161 HD
ATOM     20  C10 <0> d           1.385  -0.699  -0.016  0.00  0.00     0.132 A 
ATOM     21  C14 <0> d          -0.033   1.488  -0.003  0.00  0.00     0.000 A 
ATOM     22  N4  <0> d           1.424  -1.429   1.258  0.00  0.00    -0.370 N 
ATOM     23  C11 <0> d           2.587   0.218  -0.029  0.00  0.00     0.000 A 
ATOM     24  H17 <0> d           2.221  -2.057   1.684  0.00  0.00     0.161 HD
ATOM     25  C12 <0> d           2.418   1.530  -0.026  0.00  0.00    -0.002 A 
ATOM     26  C13 <0> d           1.103   2.168  -0.011  0.00  0.00    -0.002 A 
ENDBRANCH  15  16
ENDBRANCH  14  15
ENDBRANCH   1  14
TORSDOF 6
