REMARK  3 active torsions:
REMARK  status: ('A' for Active; 'I' for Inactive)
REMARK    1  A    between atoms: N3_17  and  C14_18 
REMARK    2  A    between atoms: C17_21  and  O2_24 
REMARK    3  A    between atoms: O2_24  and  C20_25 
ROOT
ATOM      1  C1  <0> d          -0.018   1.503   0.010  0.00  0.00     0.048 C 
ATOM      2  C2  <0> d           0.002  -0.004   0.002  0.00  0.00    -0.061 A 
ATOM      3  C3  <0> d           0.005  -0.673  -1.205  0.00  0.00     0.009 A 
ATOM      4  C4  <0> d           0.024  -2.057  -1.277  0.00  0.00     0.031 A 
ATOM      5  C5  <0> d           0.039  -2.759  -0.070  0.00  0.00     0.042 A 
ATOM      6  C6  <0> d           0.036  -2.068   1.148  0.00  0.00    -0.008 A 
ATOM      7  C7  <0> d           0.023  -0.691   1.211  0.00  0.00     0.017 A 
ATOM      8  C8  <0> d           0.052  -3.111   2.219  0.00  0.00     0.111 A 
ATOM      9  C9  <0> d          -1.194  -3.020   3.098  0.00  0.00     0.132 C 
ATOM     10  C10 <0> d          -1.053  -1.936   4.131  0.00  0.00     0.225 C 
ATOM     11  O1  <0> d          -2.025  -1.271   4.420  0.00  0.00    -0.273 OA
ATOM     12  N1  <0> d           0.120  -1.680   4.746  0.00  0.00    -0.311 N 
ATOM     13  C11 <0> d           1.270  -2.307   4.269  0.00  0.00     0.141 A 
ATOM     14  C12 <0> d           1.278  -2.993   3.080  0.00  0.00     0.030 A 
ATOM     15  C13 <0> d           2.555  -3.498   2.888  0.00  0.00     0.152 A 
ATOM     16  N2  <0> d           3.302  -3.131   3.903  0.00  0.00    -0.177 NA
ATOM     17  N3  <0> d           2.515  -2.370   4.783  0.00  0.00    -0.217 N 
ATOM     18  C21 <0> d           0.065  -4.424   1.467  0.00  0.00     0.240 A 
ATOM     19  O3  <0> d           0.079  -5.534   1.954  0.00  0.00    -0.272 OA
ATOM     20  N4  <0> d           0.058  -4.125   0.151  0.00  0.00    -0.325 N 
ATOM     21  H9  <0> d           0.163  -1.074   5.503  0.00  0.00     0.170 HD
ATOM     22  H15 <0> d           0.066  -4.788  -0.556  0.00  0.00     0.169 HD
ENDROOT
BRANCH  17  23
ATOM     23  C14 <0> d           2.946  -1.782   5.981  0.00  0.00     0.060 A 
ATOM     24  C19 <0> d           3.893  -2.423   6.769  0.00  0.00     0.034 A 
ATOM     25  C18 <0> d           4.321  -1.841   7.945  0.00  0.00     0.039 A 
ATOM     26  C17 <0> d           3.797  -0.621   8.346  0.00  0.00     0.078 A 
ATOM     27  C16 <0> d           2.846   0.018   7.563  0.00  0.00     0.039 A 
ATOM     28  C15 <0> d           2.421  -0.561   6.384  0.00  0.00     0.034 A 
BRANCH  26  29
ATOM     29  O2  <0> d           4.214  -0.051   9.508  0.00  0.00    -0.255 OA
BRANCH  29  30
ATOM     30  C20 <0> d           5.195  -0.763  10.264  0.00  0.00     0.530 C 
ATOM     31  F1  <0> d           6.349  -0.930   9.491  0.00  0.00    -0.144 F 
ATOM     32  F2  <0> d           5.509  -0.040  11.420  0.00  0.00    -0.144 F 
ATOM     33  F3  <0> d           4.688  -2.017  10.622  0.00  0.00    -0.144 F 
ENDBRANCH  29  30
ENDBRANCH  26  29
ENDBRANCH  17  23
TORSDOF 3
