REMARK  6 active torsions:
REMARK  status: ('A' for Active; 'I' for Inactive)
REMARK       I    between atoms: N1_2  and  C2_3 
REMARK    1  A    between atoms: C2_3  and  C3_5 
REMARK    2  A    between atoms: C3_5  and  S1_6 
REMARK    3  A    between atoms: S1_6  and  C4_7 
REMARK    4  A    between atoms: C5_10  and  S3_12 
REMARK    5  A    between atoms: S3_12  and  C6_13 
REMARK    6  A    between atoms: C6_13  and  C7_14 
REMARK       I    between atoms: C7_14  and  N4_16 
ROOT
ATOM      1  C4  <0> d           1.119   2.043   0.002  0.00  0.00     0.159 A 
ATOM      2  N2  <0> d          -0.017   1.371   0.010  0.00  0.00    -0.134 NA
ATOM      3  N3  <0> d           0.002  -0.004   0.002  0.00  0.00    -0.134 NA
ATOM      4  C5  <0> d           1.155  -0.645  -0.012  0.00  0.00     0.159 A 
ATOM      5  S2  <0> d           2.313   0.715  -0.016  0.00  0.00    -0.033 SA
ENDROOT
BRANCH   1   6
ATOM      6  S1  <0> d           1.385   3.785   0.009  0.00  0.00    -0.092 SA
BRANCH   6   7
ATOM      7  C3  <0> d          -0.288   4.485   0.030  0.00  0.00     0.184 C 
BRANCH   7   8
ATOM      8  C2  <0> d          -0.203   5.990   0.037  0.00  0.00     0.226 C 
ATOM      9  N1  <0> d          -1.330   6.728   0.052  0.00  0.00    -0.365 N 
ATOM     10  C1  <0> d          -1.247   8.191   0.059  0.00  0.00     0.149 C 
ATOM     11  H4  <0> d          -2.196   6.292   0.059  0.00  0.00     0.161 HD
ATOM     12  O1  <0> d           0.880   6.536   0.029  0.00  0.00    -0.273 OA
ENDBRANCH   7   8
ENDBRANCH   6   7
ENDBRANCH   1   6
BRANCH   4  13
ATOM     13  S3  <0> d           1.469  -2.378  -0.025  0.00  0.00    -0.092 SA
BRANCH  13  14
ATOM     14  C6  <0> d          -0.185  -3.124  -0.013  0.00  0.00     0.184 C 
BRANCH  14  15
ATOM     15  C7  <0> d          -0.059  -4.626  -0.023  0.00  0.00     0.226 C 
ATOM     16  O2  <0> d           1.039  -5.142  -0.036  0.00  0.00    -0.273 OA
ATOM     17  N4  <0> d          -1.165  -5.395  -0.016  0.00  0.00    -0.365 N 
ATOM     18  C8  <0> d          -1.043  -6.855  -0.026  0.00  0.00     0.149 C 
ATOM     19  H9  <0> d          -2.043  -4.982  -0.005  0.00  0.00     0.161 HD
ENDBRANCH  14  15
ENDBRANCH  13  14
ENDBRANCH   4  13
TORSDOF 6
