REMARK  6 active torsions:
REMARK  status: ('A' for Active; 'I' for Inactive)
REMARK    1  A    between atoms: C2_2  and  C3_3 
REMARK    2  A    between atoms: C2_2  and  O3_25 
REMARK    3  A    between atoms: C3_3  and  N1_4 
REMARK       I    between atoms: N1_4  and  C4_5 
REMARK    4  A    between atoms: C4_5  and  C5_7 
REMARK       I    between atoms: N2_9  and  C13_17 
REMARK    5  A    between atoms: C13_17  and  C14_19 
REMARK    6  A    between atoms: O3_25  and  C18_26 
ROOT
ATOM      1  C5  <0> d           1.442  -3.521  -2.740  0.00  0.00     0.106 C 
ATOM      2  C6  <0> d          -0.045  -3.932  -2.821  0.00  0.00     0.141 C 
ATOM      3  N2  <0> d          -0.240  -4.362  -4.226  0.00  0.00    -0.345 N 
ATOM      4  C7  <0> d           1.002  -5.098  -4.561  0.00  0.00     0.136 C 
ATOM      5  C8  <0> d           2.127  -4.291  -3.882  0.00  0.00    -0.007 C 
ATOM      6  C9  <0> d           2.750  -3.317  -4.877  0.00  0.00     0.039 C 
ATOM      7  C10 <0> d           3.473  -4.107  -5.972  0.00  0.00     0.233 C 
ATOM      8  N3  <0> d           4.511  -4.950  -5.366  0.00  0.00    -0.075 N 
ATOM      9  C11 <0> d           3.894  -5.945  -4.481  0.00  0.00     0.233 C 
ATOM     10  C12 <0> d           3.188  -5.233  -3.323  0.00  0.00     0.039 C 
ATOM     11  C13 <0> d          -1.305  -4.134  -5.019  0.00  0.00     0.272 C 
ATOM     12  O2  <0> d          -1.313  -4.552  -6.162  0.00  0.00    -0.266 OA
ATOM     13  H17 <0> d           5.026  -5.422  -6.093  0.00  0.00     0.277 HD
ATOM     14  H32 <0> d           5.142  -4.372  -4.832  0.00  0.00     0.277 HD
ENDROOT
BRANCH   1  15
ATOM     15  C4  <0> d           1.588  -2.036  -2.948  0.00  0.00     0.224 C 
ATOM     16  N1  <0> d           2.691  -1.399  -2.507  0.00  0.00    -0.358 N 
ATOM     17  H8  <0> d           3.391  -1.897  -2.056  0.00  0.00     0.162 HD
ATOM     18  O1  <0> d           0.713  -1.413  -3.512  0.00  0.00    -0.273 OA
BRANCH  16  19
ATOM     19  C3  <0> d           2.833   0.045  -2.709  0.00  0.00     0.154 C 
BRANCH  19  20
ATOM     20  C2  <0> d           4.165   0.514  -2.120  0.00  0.00     0.142 C 
ATOM     21  C1  <0> d           4.258   2.038  -2.219  0.00  0.00     0.042 C 
BRANCH  20  22
ATOM     22  O3  <0> d           5.243  -0.077  -2.848  0.00  0.00    -0.345 OA
BRANCH  22  23
ATOM     23  C18 <0> d           6.438  -0.177  -2.209  0.00  0.00     0.069 A 
ATOM     24  C23 <0> d           7.547  -0.667  -2.883  0.00  0.00     0.037 A 
ATOM     25  C22 <0> d           8.763  -0.762  -2.233  0.00  0.00     0.003 A 
ATOM     26  C21 <0> d           8.871  -0.381  -0.909  0.00  0.00     0.000 A 
ATOM     27  C20 <0> d           7.765   0.102  -0.233  0.00  0.00     0.003 A 
ATOM     28  C19 <0> d           6.549   0.205  -0.880  0.00  0.00     0.037 A 
ENDBRANCH  22  23
ENDBRANCH  20  22
ENDBRANCH  19  20
ENDBRANCH  16  19
ENDBRANCH   1  15
BRANCH  11  29
ATOM     29  C14 <0> d          -2.456  -3.382  -4.505  0.00  0.00     0.121 A 
ATOM     30  N5  <0> d          -3.505  -2.866  -5.241  0.00  0.00    -0.340 N 
ATOM     31  C16 <0> d          -4.333  -2.257  -4.375  0.00  0.00     0.209 A 
ATOM     32  C17 <0> d          -3.683  -2.967  -6.692  0.00  0.00     0.157 C 
ATOM     33  N4  <0> d          -3.846  -2.366  -3.165  0.00  0.00    -0.253 NA
ATOM     34  C15 <0> d          -2.700  -3.046  -3.203  0.00  0.00     0.153 A 
ENDBRANCH  11  29
TORSDOF 6
