REMARK  3 active torsions:
REMARK  status: ('A' for Active; 'I' for Inactive)
REMARK    1  A    between atoms: C6_6  and  N1_7 
REMARK    2  A    between atoms: N1_7  and  C7_8 
REMARK    3  A    between atoms: C7_8  and  C8_9 
ROOT
ATOM      1  C8  <0> d          -2.589  -2.708   0.013  0.00  0.00     0.125 A 
ATOM      2  N2  <0> d          -2.780  -4.054   0.013  0.00  0.00    -0.309 N 
ATOM      3  H1  <0> d          -2.019  -4.657   0.007  0.00  0.00     0.170 HD
ATOM      4  C9  <0> d          -4.042  -4.546   0.023  0.00  0.00     0.266 A 
ATOM      5  O1  <0> d          -4.247  -5.748   0.024  0.00  0.00    -0.267 OA
ATOM      6  C10 <0> d          -5.101  -3.638   0.033  0.00  0.00     0.101 A 
ATOM      7  C11 <0> d          -4.877  -2.250   0.033  0.00  0.00     0.082 A 
ATOM      8  N3  <0> d          -3.561  -1.854   0.028  0.00  0.00    -0.232 NA
ATOM      9  C12 <0> d          -6.029  -1.452   0.043  0.00  0.00     0.040 A 
ATOM     10  C13 <0> d          -7.252  -2.025   0.053  0.00  0.00     0.053 A 
ATOM     11  S1  <0> d          -6.870  -3.769   0.048  0.00  0.00    -0.094 SA
ENDROOT
BRANCH   1  12
ATOM     12  C7  <0> d          -1.176  -2.185   0.002  0.00  0.00     0.198 C 
BRANCH  12  13
ATOM     13  N1  <0> d          -1.197  -0.720   0.010  0.00  0.00    -0.383 N 
ATOM     14  H6  <0> d          -2.044  -0.248   0.021  0.00  0.00     0.160 HD
BRANCH  13  15
ATOM     15  C6  <0> d           0.002  -0.004   0.002  0.00  0.00     0.028 A 
ATOM     16  C1  <0> d          -0.017   1.385   0.010  0.00  0.00     0.030 A 
ATOM     17  C2  <0> d           1.171   2.090   0.002  0.00  0.00     0.020 A 
ATOM     18  C3  <0> d           2.378   1.415  -0.013  0.00  0.00     0.006 A 
ATOM     19  C4  <0> d           2.400   0.032  -0.022  0.00  0.00     0.020 A 
ATOM     20  I1  <0> d           4.176   2.489  -0.026  0.00  0.00    -0.045 I 
ATOM     21  C5  <0> d           1.216  -0.679  -0.014  0.00  0.00     0.030 A 
ENDBRANCH  13  15
ENDBRANCH  12  13
ENDBRANCH   1  12
TORSDOF 3
