REMARK  7 active torsions:
REMARK  status: ('A' for Active; 'I' for Inactive)
REMARK    1  A    between atoms: C2_2  and  C3_3 
REMARK    2  A    between atoms: C3_3  and  N1_6 
REMARK       I    between atoms: N1_6  and  C6_7 
REMARK    3  A    between atoms: C6_7  and  C7_9 
REMARK    4  A    between atoms: C7_9  and  O2_11 
REMARK    5  A    between atoms: O2_11  and  C9_12 
REMARK    6  A    between atoms: C14_17  and  C15_18 
REMARK    7  A    between atoms: C15_18  and  N2_19 
ROOT
ATOM      1  C9  <0> d          -0.135  -0.221  -2.820  0.00  0.00     0.077 A 
ATOM      2  C10 <0> d           0.630  -0.663  -3.890  0.00  0.00     0.039 A 
ATOM      3  C11 <0> d           1.578   0.171  -4.450  0.00  0.00     0.022 A 
ATOM      4  C12 <0> d           1.761   1.448  -3.949  0.00  0.00     0.011 A 
ATOM      5  C13 <0> d           0.995   1.892  -2.887  0.00  0.00     0.030 A 
ATOM      6  C14 <0> d           0.046   1.061  -2.323  0.00  0.00     0.002 A 
ATOM      7 Br1  <0> d           3.059   2.587  -4.718  0.00  0.00    -0.051 Br
ENDROOT
BRANCH   1   8
ATOM      8  O2  <0> d          -1.064  -1.042  -2.263  0.00  0.00    -0.336 OA
BRANCH   8   9
ATOM      9  C7  <0> d          -1.284  -2.301  -2.902  0.00  0.00     0.216 C 
ATOM     10  C8  <0> d          -0.255  -3.316  -2.398  0.00  0.00     0.050 C 
BRANCH   9  11
ATOM     11  C6  <0> d          -2.672  -2.792  -2.581  0.00  0.00     0.247 C 
ATOM     12  N1  <0> d          -3.103  -3.967  -3.079  0.00  0.00    -0.350 N 
ATOM     13  H13 <0> d          -2.442  -4.569  -3.720  0.00  0.00     0.163 HD
ATOM     14  O1  <0> d          -3.401  -2.129  -1.875  0.00  0.00    -0.271 OA
BRANCH  12  15
ATOM     15  C3  <0> d          -4.453  -4.444  -2.767  0.00  0.00     0.025 C 
ATOM     16  C4  <0> d          -4.598  -4.609  -1.253  0.00  0.00     0.038 C 
ATOM     17  C5  <0> d          -5.481  -3.430  -3.271  0.00  0.00     0.038 C 
BRANCH  15  18
ATOM     18  C2  <0> d          -4.688  -5.793  -3.452  0.00  0.00     0.026 C 
ATOM     19  C1  <0> d          -6.097  -6.291  -3.126  0.00  0.00     0.007 C 
ENDBRANCH  15  18
ENDBRANCH  12  15
ENDBRANCH   9  11
ENDBRANCH   8   9
ENDBRANCH   1   8
BRANCH   6  20
ATOM     20  C15 <0> d          -0.789   1.546  -1.165  0.00  0.00     0.271 C 
BRANCH  20  21
ATOM     21  N2  <0> d          -0.239   1.016   0.090  0.00  0.00    -0.075 N 
ATOM     22  H22 <0> d          -0.848   1.370   0.935  0.00  0.00     0.274 HD
ATOM     23  H23 <0> d           0.797   1.365   0.213  0.00  0.00     0.274 HD
ATOM     24  H24 <0> d          -0.255  -0.083   0.062  0.00  0.00     0.274 HD
ENDBRANCH  20  21
ENDBRANCH   6  20
TORSDOF 7
