REMARK  2 active torsions:
REMARK  status: ('A' for Active; 'I' for Inactive)
REMARK    1  A    between atoms: C3_3  and  C5_5 
REMARK       I    between atoms: C5_5  and  N1_7 
REMARK    2  A    between atoms: N1_7  and  C6_8 
ROOT
ATOM      1  C6  <0> d           3.287  -3.107   0.105  0.00  0.00     0.098 A 
ATOM      2  C7  <0> d           3.431  -4.435   0.475  0.00  0.00     0.086 A 
ATOM      3  C8  <0> d           4.462  -5.201  -0.196  0.00  0.00    -0.018 A 
ATOM      4  C9  <0> d           5.164  -4.500  -1.117  0.00  0.00     0.018 A 
ATOM      5  S1  <0> d           4.455  -2.882  -1.082  0.00  0.00    -0.073 SA
ATOM      6  C10 <0> d           6.285  -5.024  -1.958  0.00  0.00     0.279 C 
ATOM      7  N2  <0> d           6.754  -6.291  -1.367  0.00  0.00    -0.070 N 
ATOM      8  C11 <0> d           5.609  -7.179  -1.129  0.00  0.00     0.237 C 
ATOM      9  C12 <0> d           4.781  -6.668   0.056  0.00  0.00     0.069 C 
ATOM     10  C13 <0> d           2.598  -5.025   1.479  0.00  0.00     0.103 C 
ATOM     11  N3  <0> d           1.936  -5.493   2.276  0.00  0.00    -0.191 NA
ATOM     12  H11 <0> d           7.399  -6.739  -2.001  0.00  0.00     0.277 HD
ATOM     13  H16 <0> d           7.220  -6.102  -0.493  0.00  0.00     0.277 HD
ENDROOT
BRANCH   1  14
ATOM     14  N1  <0> d           2.381  -2.178   0.597  0.00  0.00    -0.320 N 
ATOM     15  C5  <0> d           2.377  -0.920   0.114  0.00  0.00     0.226 C 
ATOM     16  O1  <0> d           3.165  -0.600  -0.751  0.00  0.00    -0.273 OA
ATOM     17  H8  <0> d           1.752  -2.434   1.289  0.00  0.00     0.169 HD
BRANCH  15  18
ATOM     18  C3  <0> d           1.394   0.090   0.649  0.00  0.00     0.078 C 
ATOM     19  C2  <0> d           1.518   1.476  -0.004  0.00  0.00     0.014 C 
ATOM     20  C1  <0> d          -0.019   1.534   0.011  0.00  0.00     0.002 C 
ATOM     21  C4  <0> d           0.002  -0.004   0.002  0.00  0.00     0.014 C 
ENDBRANCH  15  18
ENDBRANCH   1  14
TORSDOF 2
