REMARK  5 active torsions:
REMARK  status: ('A' for Active; 'I' for Inactive)
REMARK    1  A    between atoms: C2_2  and  C4_4 
REMARK    2  A    between atoms: C4_4  and  C5_5 
REMARK    3  A    between atoms: C4_4  and  N1_8 
REMARK    4  A    between atoms: N1_8  and  C6_9 
REMARK    5  A    between atoms: N2_13  and  C10_16 
ROOT
ATOM      1  C6  <0> d           0.635  -0.727   3.628  0.00  0.00     0.287 A 
ATOM      2  C7  <0> d          -0.093  -0.295   4.917  0.00  0.00     0.146 A 
ATOM      3  C8  <0> d          -0.579  -1.601   5.505  0.00  0.00     0.229 A 
ATOM      4  O3  <0> d          -1.209  -1.716   6.535  0.00  0.00    -0.273 OA
ATOM      5  N2  <0> d          -0.205  -2.609   4.708  0.00  0.00    -0.282 N 
ATOM      6  C9  <0> d           0.487  -2.233   3.622  0.00  0.00     0.258 A 
ATOM      7  O4  <0> d           0.923  -2.978   2.770  0.00  0.00    -0.271 OA
ENDROOT
BRANCH   1   8
ATOM      8  N1  <0> d          -0.010  -0.139   2.447  0.00  0.00    -0.047 N 
ATOM      9  H10 <0> d          -0.025   0.866   2.538  0.00  0.00     0.279 HD
ATOM     10  H24 <0> d          -0.956  -0.484   2.374  0.00  0.00     0.279 HD
BRANCH   8  11
ATOM     11  C4  <0> d           0.742  -0.511   1.242  0.00  0.00     0.290 C 
BRANCH  11  12
ATOM     12  C2  <0> d           0.002  -0.004   0.002  0.00  0.00     0.019 C 
ATOM     13  C1  <0> d          -0.019   1.526   0.010  0.00  0.00     0.012 C 
ATOM     14  C3  <0> d           0.718  -0.497  -1.257  0.00  0.00     0.012 C 
ENDBRANCH  11  12
BRANCH  11  15
ATOM     15  C5  <0> d           2.115   0.108   1.295  0.00  0.00     0.205 C 
ATOM     16  O1  <0> d           2.376   0.938   2.150  0.00  0.00    -0.646 OA
ATOM     17  O2  <0> d           2.964  -0.220   0.484  0.00  0.00    -0.646 OA
ENDBRANCH  11  15
ENDBRANCH   8  11
ENDBRANCH   1   8
BRANCH   5  18
ATOM     18  C10 <0> d          -0.523  -4.010   4.999  0.00  0.00     0.096 C 
ATOM     19  C15 <0> d           0.093  -4.404   6.343  0.00  0.00     0.026 C 
ATOM     20  C14 <0> d          -0.239  -5.867   6.646  0.00  0.00     0.002 C 
ATOM     21  C13 <0> d          -1.757  -6.042   6.710  0.00  0.00     0.000 C 
ATOM     22  C12 <0> d          -2.373  -5.648   5.366  0.00  0.00     0.002 C 
ATOM     23  C11 <0> d          -2.041  -4.186   5.062  0.00  0.00     0.026 C 
ENDBRANCH   5  18
TORSDOF 5
