REMARK  7 active torsions:
REMARK  status: ('A' for Active; 'I' for Inactive)
REMARK    1  A    between atoms: C3_3  and  O1_8 
REMARK    2  A    between atoms: O1_8  and  C7_9 
REMARK    3  A    between atoms: C7_9  and  C8_10 
REMARK    4  A    between atoms: C8_10  and  O2_11 
REMARK    5  A    between atoms: O2_11  and  C9_12 
REMARK    6  A    between atoms: C12_15  and  C15_19 
REMARK    7  A    between atoms: C15_19  and  N1_20 
ROOT
ATOM      1  C9  <0> d           7.002   3.919   1.337  0.00  0.00     0.090 A 
ATOM      2  C10 <0> d           7.941   4.085   0.326  0.00  0.00     0.039 A 
ATOM      3  C11 <0> d           8.969   4.989   0.481  0.00  0.00     0.018 A 
ATOM      4  C12 <0> d           9.066   5.740   1.655  0.00  0.00     0.009 A 
ATOM      5  C13 <0> d           8.121   5.571   2.668  0.00  0.00     0.042 A 
ATOM      6  C14 <0> d           7.093   4.667   2.505  0.00  0.00     0.068 A 
ATOM      7 Cl1  <0> d           5.913   4.460   3.762  0.00  0.00    -0.081 Cl
ENDROOT
BRANCH   1   8
ATOM      8  O2  <0> d           5.991   3.026   1.181  0.00  0.00    -0.347 OA
BRANCH   8   9
ATOM      9  C8  <0> d           5.958   2.291  -0.043  0.00  0.00     0.202 C 
BRANCH   9  10
ATOM     10  C7  <0> d           4.757   1.343  -0.037  0.00  0.00     0.202 C 
BRANCH  10  11
ATOM     11  O1  <0> d           3.548   2.105  -0.021  0.00  0.00    -0.349 OA
BRANCH  11  12
ATOM     12  C3  <0> d           2.381   1.410  -0.013  0.00  0.00     0.070 A 
ATOM     13  C2  <0> d           1.170   2.087   0.002  0.00  0.00     0.037 A 
ATOM     14  C1  <0> d          -0.017   1.378   0.010  0.00  0.00     0.004 A 
ATOM     15  C6  <0> d           0.002  -0.004   0.002  0.00  0.00     0.019 A 
ATOM     16  C5  <0> d           1.208  -0.682  -0.013  0.00  0.00     0.013 A 
ATOM     17  C4  <0> d           2.398   0.023  -0.021  0.00  0.00     0.055 A 
ATOM     18 Br1  <0> d           1.230  -2.573  -0.024  0.00  0.00    -0.051 Br
ENDBRANCH  11  12
ENDBRANCH  10  11
ENDBRANCH   9  10
ENDBRANCH   8   9
ENDBRANCH   1   8
BRANCH   4  19
ATOM     19  C15 <0> d          10.168   6.710   1.823  0.00  0.00     0.102 C 
ATOM     20  N2  <0> d          11.069   6.870   0.855  0.00  0.00    -0.385 N 
ATOM     21  H13 <0> d          11.002   6.350   0.040  0.00  0.00     0.157 HD
ATOM     22  H14 <0> d          11.792   7.507   0.966  0.00  0.00     0.157 HD
BRANCH  19  23
ATOM     23  N1  <0> d          10.260   7.425   2.944  0.00  0.00    -0.385 N 
ATOM     24  H12 <0> d           9.604   7.309   3.649  0.00  0.00     0.157 HD
ATOM     25  H15 <0> d          10.983   8.062   3.055  0.00  0.00     0.157 HD
ENDBRANCH  19  23
ENDBRANCH   4  19
TORSDOF 7
