REMARK  2 active torsions:
REMARK  status: ('A' for Active; 'I' for Inactive)
REMARK    1  A    between atoms: C3_3  and  C10_12 
REMARK    2  A    between atoms: C11_14  and  C12_17 
ROOT
ATOM      1  C10 <0> d          -0.013   0.052  -2.497  0.00  0.00     0.191 A 
ATOM      2  N3  <0> d          -0.028   1.390  -2.631  0.00  0.00    -0.203 NA
ATOM      3  C11 <0> d          -0.041   1.712  -3.893  0.00  0.00     0.179 A 
ATOM      4  O1  <0> d          -0.034   0.587  -4.618  0.00  0.00    -0.195 OA
ATOM      5  N4  <0> d          -0.011  -0.488  -3.690  0.00  0.00    -0.105 NA
ENDROOT
BRANCH   3   6
ATOM      6  C12 <0> d          -0.061   3.115  -4.444  0.00  0.00     0.092 C 
ATOM      7  C23 <0> d          -1.312   3.312  -5.302  0.00  0.00     0.124 C 
ATOM      8  C16 <0> d          -1.159   2.382  -6.505  0.00  0.00    -0.044 C 
ATOM      9  N5  <0> d          -2.531   2.882  -4.627  0.00  0.00    -0.380 N 
ATOM     10  C15 <0> d           0.078   2.382  -7.368  0.00  0.00     0.037 C 
ATOM     11  C17 <0> d          -2.269   1.656  -6.554  0.00  0.00    -0.005 A 
ATOM     12  C14 <0> d           1.280   2.280  -6.414  0.00  0.00     0.005 C 
ATOM     13  C13 <0> d           1.175   3.341  -5.321  0.00  0.00     0.015 C 
ATOM     14  C22 <0> d          -3.103   1.966  -5.352  0.00  0.00     0.039 A 
ATOM     15  C18 <0> d          -2.754   0.670  -7.534  0.00  0.00     0.014 A 
ATOM     16  C21 <0> d          -4.338   1.281  -5.166  0.00  0.00     0.030 A 
ATOM     17  C20 <0> d          -4.702   0.381  -6.114  0.00  0.00     0.002 A 
ATOM     18  C19 <0> d          -3.949   0.087  -7.255  0.00  0.00     0.001 A 
ATOM     19  H24 <0> d          -2.860   3.223  -3.780  0.00  0.00     0.160 HD
ENDBRANCH   3   6
BRANCH   1  20
ATOM     20  C3  <0> d           0.006  -0.689  -1.211  0.00  0.00     0.045 A 
ATOM     21  C2  <0> d           0.002  -0.004   0.002  0.00  0.00     0.045 A 
ATOM     22  C1  <0> d          -0.018   1.503   0.010  0.00  0.00     0.071 C 
ATOM     23  N1  <0> d           0.022  -0.664   1.142  0.00  0.00    -0.264 NA
ATOM     24  C6  <0> d           0.037  -1.982   1.184  0.00  0.00     0.126 A 
ATOM     25  C5  <0> d           0.044  -2.735   0.020  0.00  0.00    -0.008 A 
ATOM     26  C4  <0> d           0.026  -2.087  -1.196  0.00  0.00    -0.031 A 
ATOM     27  C7  <0> d           0.074  -4.236   0.115  0.00  0.00     0.272 C 
ATOM     28  C9  <0> d           0.028  -2.845  -2.496  0.00  0.00     0.068 C 
ATOM     29  C8  <0> d           0.453  -4.293  -2.247  0.00  0.00     0.237 C 
ATOM     30  N2  <0> d          -0.359  -4.840  -1.149  0.00  0.00    -0.071 N 
ATOM     31  H9  <0> d          -0.236  -5.840  -1.105  0.00  0.00     0.277 HD
ATOM     32  H25 <0> d          -1.331  -4.625  -1.310  0.00  0.00     0.277 HD
ENDBRANCH   1  20
TORSDOF 2
