REMARK  4 active torsions:
REMARK  status: ('A' for Active; 'I' for Inactive)
REMARK    1  A    between atoms: C4_4  and  O1_9 
REMARK    2  A    between atoms: O1_9  and  C8_10 
REMARK    3  A    between atoms: C8_10  and  C10_12 
REMARK       I    between atoms: C10_12  and  N1_14 
REMARK    4  A    between atoms: N1_14  and  C11_15 
ROOT
ATOM      1  C10 <0> d           0.314   5.718  -2.440  0.00  0.00     0.247 C 
ATOM      2  O2  <0> d           0.213   5.123  -3.493  0.00  0.00    -0.271 OA
ATOM      3  N1  <0> d           0.648   5.050  -1.318  0.00  0.00    -0.354 N 
ATOM      4  H11 <0> d           0.729   5.525  -0.476  0.00  0.00     0.162 HD
ENDROOT
BRANCH   3   5
ATOM      5  C11 <0> d           0.892   3.603  -1.371  0.00  0.00     0.089 C 
ATOM      6  C15 <0> d          -0.435   2.862  -1.206  0.00  0.00     0.063 C 
ATOM      7  C14 <0> d          -0.209   1.353  -1.233  0.00  0.00     0.121 C 
ATOM      8  C16 <0> d           0.054   0.900  -2.675  0.00  0.00     0.046 C 
ATOM      9  C17 <0> d          -1.521   0.678  -0.775  0.00  0.00     0.046 C 
ATOM     10  N2  <0> d           0.845   0.859  -0.307  0.00  0.00    -0.059 N 
ATOM     11  C13 <0> d           2.070   1.700  -0.237  0.00  0.00     0.121 C 
ATOM     12  H29 <0> d           0.441   0.807   0.636  0.00  0.00     0.279 HD
ATOM     13  H30 <0> d           1.122  -0.081  -0.613  0.00  0.00     0.279 HD
ATOM     14  C12 <0> d           1.816   3.205  -0.219  0.00  0.00     0.063 C 
ATOM     15  C18 <0> d           2.760   1.329   1.094  0.00  0.00     0.046 C 
ATOM     16  C19 <0> d           3.050   1.359  -1.367  0.00  0.00     0.046 C 
ENDBRANCH   3   5
BRANCH   1  17
ATOM     17  C8  <0> d           0.064   7.203  -2.386  0.00  0.00     0.216 C 
ATOM     18  C9  <0> d           1.360   7.925  -2.015  0.00  0.00     0.050 C 
BRANCH  17  19
ATOM     19  O1  <0> d          -0.386   7.657  -3.664  0.00  0.00    -0.337 OA
BRANCH  19  20
ATOM     20  C4  <0> d          -1.130   8.794  -3.689  0.00  0.00     0.070 A 
ATOM     21  C3  <0> d          -1.333   9.516  -2.522  0.00  0.00     0.045 A 
ATOM     22  C2  <0> d          -2.086  10.674  -2.550  0.00  0.00    -0.038 A 
ATOM     23  C1  <0> d          -2.304  11.461  -1.284  0.00  0.00     0.050 C 
ATOM     24  C7  <0> d          -2.646  11.108  -3.739  0.00  0.00     0.040 A 
ATOM     25  C6  <0> d          -2.448  10.386  -4.903  0.00  0.00     0.027 A 
ATOM     26 Cl1  <0> d          -3.597  12.560  -3.770  0.00  0.00    -0.084 Cl
ATOM     27  C5  <0> d          -1.692   9.231  -4.880  0.00  0.00     0.038 A 
ENDBRANCH  19  20
ENDBRANCH  17  19
ENDBRANCH   1  17
TORSDOF 4
