REMARK  2 active torsions:
REMARK  status: ('A' for Active; 'I' for Inactive)
REMARK       I    between atoms: N2_12  and  C10_13 
REMARK    1  A    between atoms: C10_13  and  C11_15 
REMARK    2  A    between atoms: C11_15  and  N3_16 
ROOT
ATOM      1  C1  <0> d           3.327   0.119  -4.052  0.00  0.00     0.049 C 
ATOM      2  C2  <0> d           4.501  -0.039  -3.083  0.00  0.00     0.114 C 
ATOM      3  C3  <0> d           5.175  -1.362  -3.321  0.00  0.00     0.250 C 
ATOM      4  O1  <0> d           5.182  -1.838  -4.436  0.00  0.00    -0.270 OA
ATOM      5  N1  <0> d           5.766  -2.026  -2.310  0.00  0.00    -0.323 N 
ATOM      6  C4  <0> d           5.727  -1.524  -1.005  0.00  0.00     0.062 A 
ATOM      7  C5  <0> d           6.558  -2.038  -0.022  0.00  0.00     0.032 A 
ATOM      8  C6  <0> d           6.497  -1.534   1.264  0.00  0.00     0.002 A 
ATOM      9  C7  <0> d           5.610  -0.521   1.576  0.00  0.00     0.002 A 
ATOM     10  C8  <0> d           4.777  -0.000   0.602  0.00  0.00     0.032 A 
ATOM     11  C9  <0> d           4.835  -0.498  -0.687  0.00  0.00     0.065 A 
ATOM     12  N2  <0> d           4.006   0.012  -1.699  0.00  0.00    -0.296 N 
ATOM     13  C10 <0> d           2.794   0.526  -1.412  0.00  0.00     0.243 C 
ATOM     14  O2  <0> d           2.063   0.893  -2.308  0.00  0.00    -0.271 OA
ATOM     15  C20 <0> d           5.508   1.091  -3.308  0.00  0.00     0.049 C 
ATOM     16  H4  <0> d           6.223  -2.863  -2.489  0.00  0.00     0.169 HD
ENDROOT
BRANCH  13  17
ATOM     17  C11 <0> d           2.346   0.644   0.022  0.00  0.00     0.236 C 
BRANCH  17  18
ATOM     18  N3  <0> d           0.896   0.850   0.065  0.00  0.00    -0.299 N 
ATOM     19  C19 <0> d           0.397   2.108   0.041  0.00  0.00     0.261 A 
ATOM     20  C18 <0> d          -1.065   2.256   0.087  0.00  0.00     0.061 A 
ATOM     21  O3  <0> d           1.129   3.078  -0.018  0.00  0.00    -0.267 OA
ATOM     22  C13 <0> d          -1.849   1.083   0.153  0.00  0.00     0.073 A 
ATOM     23  C17 <0> d          -1.681   3.506   0.066  0.00  0.00     0.019 A 
ATOM     24  N4  <0> d          -1.228  -0.123   0.167  0.00  0.00    -0.243 NA
ATOM     25  C14 <0> d          -3.241   1.191   0.198  0.00  0.00     0.032 A 
ATOM     26  C12 <0> d           0.066  -0.223   0.130  0.00  0.00     0.213 A 
ATOM     27  C15 <0> d          -3.829   2.436   0.176  0.00  0.00     0.002 A 
ATOM     28  C16 <0> d          -3.055   3.587   0.111  0.00  0.00     0.001 A 
ENDBRANCH  17  18
ENDBRANCH  13  17
TORSDOF 2
