REMARK  7 active torsions:
REMARK  status: ('A' for Active; 'I' for Inactive)
REMARK    1  A    between atoms: C7_7  and  C8_8 
REMARK    2  A    between atoms: C8_8  and  N1_9 
REMARK    3  A    between atoms: N2_12  and  C15_18 
REMARK    4  A    between atoms: C12_14  and  C13_15 
REMARK    5  A    between atoms: C13_15  and  C14_16 
REMARK    6  A    between atoms: C14_16  and  O1_17 
REMARK    7  A    between atoms: C15_18  and  C16_19 
ROOT
ATOM      1  N1  <0> d          -0.583   1.469  -1.203  0.00  0.00     0.100 N 
ATOM      2  C9  <0> d          -1.942   0.913  -1.262  0.00  0.00     0.301 C 
ATOM      3  C10 <0> d          -2.742   1.397  -0.051  0.00  0.00     0.265 C 
ATOM      4  N2  <0> d          -2.059   0.981   1.182  0.00  0.00    -0.062 N 
ATOM      5  C11 <0> d          -0.700   1.537   1.242  0.00  0.00     0.271 C 
ATOM      6  C12 <0> d           0.100   1.053   0.030  0.00  0.00     0.251 C 
ATOM      7  H30 <0> d          -1.977  -0.116   1.171  0.00  0.00     0.280 HD
ENDROOT
BRANCH   4   8
ATOM      8  C15 <0> d          -2.837   1.362   2.369  0.00  0.00     0.293 C 
BRANCH   8   9
ATOM      9  C16 <0> d          -2.886   2.864   2.476  0.00  0.00     0.060 A 
ATOM     10  N3  <0> d          -1.901   3.507   3.073  0.00  0.00    -0.257 NA
ATOM     11  C20 <0> d          -1.899   4.822   3.185  0.00  0.00     0.031 A 
ATOM     12  C19 <0> d          -2.945   5.575   2.686  0.00  0.00     0.027 A 
ATOM     13  C21 <0> d          -0.747   5.508   3.872  0.00  0.00     0.070 C 
ATOM     14  C18 <0> d          -4.000   4.933   2.057  0.00  0.00     0.004 A 
ATOM     15  C17 <0> d          -3.965   3.551   1.952  0.00  0.00     0.029 A 
ENDBRANCH   8   9
ENDBRANCH   4   8
BRANCH   6  16
ATOM     16  C13 <0> d           1.503   1.663   0.067  0.00  0.00     0.063 C 
BRANCH  16  17
ATOM     17  C14 <0> d           2.258   1.130   1.286  0.00  0.00     0.166 C 
BRANCH  17  18
ATOM     18  O1  <0> d           3.532   1.771   1.375  0.00  0.00    -0.401 OA
ATOM     19  H21 <0> d           4.221   1.514   2.193  0.00  0.00     0.209 HD
ENDBRANCH  17  18
ENDBRANCH  16  17
ENDBRANCH   6  16
BRANCH   1  20
ATOM     20  C8  <0> d           0.194   1.088  -2.390  0.00  0.00     0.312 C 
BRANCH  20  21
ATOM     21  C7  <0> d          -0.586   1.430  -3.633  0.00  0.00    -0.024 A 
ATOM     22  C2  <0> d          -0.602   2.730  -4.103  0.00  0.00    -0.054 A 
ATOM     23  C1  <0> d           0.162   3.805  -3.373  0.00  0.00     0.049 C 
ATOM     24  C3  <0> d          -1.317   3.044  -5.243  0.00  0.00     0.007 A 
ATOM     25  C4  <0> d          -2.017   2.058  -5.913  0.00  0.00     0.001 A 
ATOM     26  C5  <0> d          -2.002   0.758  -5.443  0.00  0.00     0.001 A 
ATOM     27  C6  <0> d          -1.282   0.443  -4.306  0.00  0.00     0.009 A 
ENDBRANCH  20  21
ENDBRANCH   1  20
TORSDOF 7
