REMARK  7 active torsions:
REMARK  status: ('A' for Active; 'I' for Inactive)
REMARK    1  A    between atoms: C2_2  and  C4_4 
REMARK    2  A    between atoms: C4_4  and  N1_5 
REMARK    3  A    between atoms: C5_6  and  O4_32 
REMARK    4  A    between atoms: C6_7  and  C13_17 
REMARK    5  A    between atoms: N2_10  and  C9_13 
REMARK    6  A    between atoms: C9_13  and  C10_14 
REMARK    7  A    between atoms: C18_22  and  O3_27 
ROOT
ATOM      1  N1  <0> d          -1.946   0.041  -0.998  0.00  0.00    -0.306 N 
ATOM      2  C5  <0> d          -2.461   1.396  -1.201  0.00  0.00     0.239 C 
ATOM      3  C6  <0> d          -2.173   1.843  -2.636  0.00  0.00     0.162 C 
ATOM      4  C7  <0> d          -2.560   0.738  -3.587  0.00  0.00     0.238 C 
ATOM      5  O1  <0> d          -3.010   1.007  -4.680  0.00  0.00    -0.272 OA
ATOM      6  N2  <0> d          -2.405  -0.548  -3.221  0.00  0.00    -0.269 N 
ATOM      7  C8  <0> d          -1.988  -0.869  -1.985  0.00  0.00     0.329 C 
ATOM      8  O2  <0> d          -1.644  -2.011  -1.754  0.00  0.00    -0.246 OA
ENDROOT
BRANCH   3   9
ATOM      9  C13 <0> d          -0.681   2.149  -2.787  0.00  0.00     0.264 C 
ATOM     10  N4  <0> d           0.098   0.912  -2.623  0.00  0.00     0.091 N 
ATOM     11  C24 <0> d           1.546   1.138  -2.604  0.00  0.00     0.274 C 
ATOM     12  H33 <0> d          -0.200   0.402  -1.805  0.00  0.00     0.316 HD
ATOM     13  C23 <0> d           2.018   1.671  -3.969  0.00  0.00     0.067 C 
ATOM     14  C15 <0> d           1.107   2.825  -4.309  0.00  0.00    -0.041 A 
ATOM     15  C14 <0> d          -0.408   2.710  -4.184  0.00  0.00     0.146 A 
ATOM     16  C16 <0> d           1.361   4.078  -4.656  0.00  0.00    -0.003 A 
ATOM     17  N3  <0> d          -0.939   4.061  -4.362  0.00  0.00    -0.379 N 
ATOM     18  C21 <0> d           0.076   4.845  -4.663  0.00  0.00     0.039 A 
ATOM     19  H35 <0> d          -1.869   4.322  -4.269  0.00  0.00     0.160 HD
ATOM     20  C20 <0> d           0.101   6.275  -5.000  0.00  0.00     0.033 A 
ATOM     21  C19 <0> d           1.311   6.813  -5.299  0.00  0.00     0.039 A 
ATOM     22  C18 <0> d           2.515   6.094  -5.304  0.00  0.00     0.069 A 
ATOM     23  C17 <0> d           2.612   4.769  -5.003  0.00  0.00     0.050 A 
BRANCH  22  24
ATOM     24  O3  <0> d           3.655   6.760  -5.628  0.00  0.00    -0.356 OA
ATOM     25  C22 <0> d           3.529   8.149  -5.939  0.00  0.00     0.210 C 
ENDBRANCH  22  24
ENDBRANCH   3   9
BRANCH   2  26
ATOM     26  O4  <0> d          -3.871   1.409  -0.973  0.00  0.00    -0.376 OA
ATOM     27  H34 <0> d          -4.128   1.136  -0.081  0.00  0.00     0.212 HD
ENDBRANCH   2  26
BRANCH   1  28
ATOM     28  C4  <0> d          -1.371  -0.327   0.298  0.00  0.00     0.134 C 
BRANCH  28  29
ATOM     29  C2  <0> d          -2.491  -0.748   1.252  0.00  0.00    -0.005 C 
ATOM     30  C1  <0> d          -3.193  -1.989   0.697  0.00  0.00     0.011 C 
ATOM     31  C3  <0> d          -1.897  -1.070   2.625  0.00  0.00     0.011 C 
ENDBRANCH  28  29
ENDBRANCH   1  28
BRANCH   6  32
ATOM     32  C9  <0> d          -2.692  -1.612  -4.186  0.00  0.00     0.140 C 
BRANCH  32  33
ATOM     33  C10 <0> d          -1.421  -1.946  -4.970  0.00  0.00    -0.004 C 
ATOM     34  C11 <0> d          -0.375  -2.532  -4.020  0.00  0.00     0.011 C 
ATOM     35  C12 <0> d          -1.748  -2.967  -6.061  0.00  0.00     0.011 C 
ENDBRANCH  32  33
ENDBRANCH   6  32
TORSDOF 7
