REMARK  7 active torsions:
REMARK  status: ('A' for Active; 'I' for Inactive)
REMARK    1  A    between atoms: N2_5  and  C6_8 
REMARK    2  A    between atoms: C6_8  and  C7_9 
REMARK    3  A    between atoms: C6_8  and  C14_17 
REMARK    4  A    between atoms: C12_14  and  O1_15 
REMARK    5  A    between atoms: C14_17  and  C15_18 
REMARK    6  A    between atoms: C14_17  and  O3_30 
REMARK    7  A    between atoms: C15_18  and  C16_20 
ROOT
ATOM      1  C6  <0> d           1.453  -3.974  -0.034  0.00  0.00     0.294 C 
ENDROOT
BRANCH   1   2
ATOM      2  N2  <0> d           1.378  -2.507  -0.025  0.00  0.00     0.103 N 
ATOM      3  C3  <0> d           0.693  -2.008  -1.226  0.00  0.00     0.301 C 
ATOM      4  C2  <0> d           0.688  -0.477  -1.207  0.00  0.00     0.264 C 
ATOM      5  N1  <0> d           0.002  -0.004   0.002  0.00  0.00    -0.072 N 
ATOM      6  C1  <0> d          -0.018   1.465   0.010  0.00  0.00     0.269 C 
ATOM      7  C5  <0> d           0.713  -0.490   1.192  0.00  0.00     0.264 C 
ATOM      8  H28 <0> d          -0.945  -0.353   0.010  0.00  0.00     0.279 HD
ATOM      9  C4  <0> d           0.717  -2.021   1.194  0.00  0.00     0.301 C 
ENDBRANCH   1   2
BRANCH   1  10
ATOM     10  C7  <0> d           2.215  -4.431  -1.251  0.00  0.00     0.011 A 
ATOM     11  C12 <0> d           1.998  -5.698  -1.771  0.00  0.00     0.076 A 
ATOM     12  C11 <0> d           2.697  -6.114  -2.896  0.00  0.00     0.037 A 
ATOM     13  C10 <0> d           3.615  -5.269  -3.487  0.00  0.00     0.003 A 
ATOM     14  C9  <0> d           3.835  -4.008  -2.964  0.00  0.00     0.001 A 
ATOM     15  C8  <0> d           3.136  -3.590  -1.847  0.00  0.00     0.012 A 
BRANCH  11  16
ATOM     16  O1  <0> d           1.097  -6.530  -1.184  0.00  0.00    -0.355 OA
ATOM     17  C13 <0> d           0.924  -7.820  -1.774  0.00  0.00     0.210 C 
ENDBRANCH  11  16
ENDBRANCH   1  10
BRANCH   1  18
ATOM     18  C14 <0> d           2.172  -4.455   1.228  0.00  0.00     0.230 C 
BRANCH  18  19
ATOM     19  C15 <0> d           2.141  -5.961   1.280  0.00  0.00     0.192 C 
ATOM     20  O2  <0> d           3.142  -6.598   1.024  0.00  0.00    -0.289 OA
BRANCH  19  21
ATOM     21  C16 <0> d           0.943  -6.634   1.629  0.00  0.00     0.040 A 
ATOM     22  C19 <0> d           0.742  -8.093   1.727  0.00  0.00     0.006 A 
ATOM     23  C18 <0> d          -0.598  -8.270   2.103  0.00  0.00     0.043 A 
ATOM     24  C20 <0> d           1.566  -9.197   1.533  0.00  0.00     0.014 A 
ATOM     25  N3  <0> d          -1.170  -7.019   2.217  0.00  0.00    -0.364 N 
ATOM     26  C23 <0> d          -1.091  -9.559   2.281  0.00  0.00     0.030 A 
ATOM     27  C17 <0> d          -0.270  -6.057   1.939  0.00  0.00     0.104 A 
ATOM     28  H3  <0> d          -2.094  -6.855   2.462  0.00  0.00     0.165 HD
ATOM     29  C22 <0> d          -0.267 -10.645   2.078  0.00  0.00     0.002 A 
ATOM     30  C21 <0> d           1.058 -10.467   1.709  0.00  0.00     0.001 A 
ENDBRANCH  19  21
ENDBRANCH  18  19
BRANCH  18  31
ATOM     31  O3  <0> d           3.529  -4.007   1.204  0.00  0.00    -0.385 OA
ATOM     32  H27 <0> d           4.036  -4.330   0.446  0.00  0.00     0.210 HD
ENDBRANCH  18  31
ENDBRANCH   1  18
TORSDOF 7
