REMARK  6 active torsions:
REMARK  status: ('A' for Active; 'I' for Inactive)
REMARK    1  A    between atoms: C2_2  and  N1_3 
REMARK    2  A    between atoms: N1_3  and  C3_4 
REMARK       I    between atoms: N1_3  and  C13_18 
REMARK    3  A    between atoms: C4_6  and  C6_9 
REMARK    4  A    between atoms: C6_9  and  N3_10 
REMARK    5  A    between atoms: N3_10  and  C7_11 
REMARK    6  A    between atoms: C12_16  and  O1_17 
ROOT
ATOM      1  C6  <0> d           5.067  -1.452  -3.180  0.00  0.00     0.292 C 
ENDROOT
BRANCH   1   2
ATOM      2  C4  <0> d           4.164  -1.022  -2.053  0.00  0.00     0.069 A 
ATOM      3  N2  <0> d           2.853  -0.973  -2.200  0.00  0.00    -0.227 NA
ATOM      4  C3  <0> d           2.071  -0.596  -1.211  0.00  0.00     0.175 A 
ATOM      5  S1  <0> d           3.158  -0.266   0.031  0.00  0.00    -0.062 SA
ATOM      6  C5  <0> d           4.662  -0.667  -0.843  0.00  0.00     0.082 A 
BRANCH   4   7
ATOM      7  N1  <0> d           0.686  -0.490  -1.198  0.00  0.00    -0.297 N 
ATOM      8  C13 <0> d          -0.025  -0.801  -2.300  0.00  0.00     0.221 C 
ATOM      9  O2  <0> d           0.535  -1.265  -3.271  0.00  0.00    -0.273 OA
ATOM     10  C14 <0> d          -1.514  -0.571  -2.327  0.00  0.00     0.117 C 
BRANCH   7  11
ATOM     11  C2  <0> d          -0.003  -0.041   0.014  0.00  0.00     0.130 C 
ATOM     12  C1  <0> d          -0.066   1.488   0.028  0.00  0.00     0.027 C 
ENDBRANCH   7  11
ENDBRANCH   4   7
ENDBRANCH   1   2
BRANCH   1  13
ATOM     13  N3  <0> d           5.168  -2.918  -3.193  0.00  0.00    -0.063 N 
ATOM     14  H11 <0> d           5.549  -3.237  -2.316  0.00  0.00     0.278 HD
ATOM     15  H24 <0> d           4.250  -3.317  -3.326  0.00  0.00     0.278 HD
BRANCH  13  16
ATOM     16  C7  <0> d           6.048  -3.338  -4.292  0.00  0.00     0.214 C 
ATOM     17  C12 <0> d           6.054  -4.865  -4.385  0.00  0.00     0.148 C 
ATOM     18  C11 <0> d           6.971  -5.303  -5.529  0.00  0.00     0.034 C 
ATOM     19  C10 <0> d           8.392  -4.802  -5.263  0.00  0.00     0.003 C 
ATOM     20  C9  <0> d           8.386  -3.275  -5.171  0.00  0.00     0.002 C 
ATOM     21  C8  <0> d           7.469  -2.837  -4.027  0.00  0.00     0.036 C 
BRANCH  17  22
ATOM     22  O1  <0> d           4.727  -5.333  -4.633  0.00  0.00    -0.393 OA
ATOM     23  H20 <0> d           4.656  -6.295  -4.703  0.00  0.00     0.210 HD
ENDBRANCH  17  22
ENDBRANCH  13  16
ENDBRANCH   1  13
TORSDOF 6
