REMARK  4 active torsions:
REMARK  status: ('A' for Active; 'I' for Inactive)
REMARK    1  A    between atoms: C6_6  and  C10_12 
REMARK    2  A    between atoms: C10_12  and  N2_13 
REMARK    3  A    between atoms: C13_16  and  O3_22 
REMARK    4  A    between atoms: C15_18  and  C16_19 
ROOT
ATOM      1  N2  <0> d           6.364  -1.126   1.316  0.00  0.00    -0.052 N 
ATOM      2  C11 <0> d           5.356  -2.039   1.867  0.00  0.00     0.239 C 
ATOM      3  C12 <0> d           5.693  -2.358   3.325  0.00  0.00     0.059 C 
ATOM      4  C13 <0> d           7.073  -3.018   3.392  0.00  0.00     0.122 C 
ATOM      5  C14 <0> d           8.105  -2.087   2.748  0.00  0.00     0.076 C 
ATOM      6  C15 <0> d           7.679  -1.779   1.311  0.00  0.00     0.290 C 
ATOM      7  H17 <0> d           6.406  -0.292   1.884  0.00  0.00     0.281 HD
ENDROOT
BRANCH   1   8
ATOM      8  C10 <0> d           5.995  -0.762  -0.058  0.00  0.00     0.294 C 
BRANCH   8   9
ATOM      9  C6  <0> d           4.705   0.017  -0.042  0.00  0.00     0.061 A 
ATOM     10  C5  <0> d           4.753   1.410  -0.035  0.00  0.00     0.030 A 
ATOM     11  C4  <0> d           3.594   2.132  -0.020  0.00  0.00     0.016 A 
ATOM     12  C3  <0> d           2.374   1.429  -0.013  0.00  0.00    -0.006 A 
ATOM     13  C2  <0> d           1.142   2.103   0.002  0.00  0.00     0.014 A 
ATOM     14  C7  <0> d           2.397   0.013  -0.021  0.00  0.00     0.089 A 
ATOM     15  C1  <0> d          -0.017   1.389   0.010  0.00  0.00     0.003 A 
ATOM     16  C9  <0> d           0.002  -0.004   0.002  0.00  0.00     0.026 A 
ATOM     17  C8  <0> d           1.178  -0.691  -0.013  0.00  0.00     0.063 A 
ATOM     18 Cl1  <0> d           1.174  -2.427  -0.022  0.00  0.00    -0.082 Cl
ATOM     19  N1  <0> d           3.567  -0.634  -0.036  0.00  0.00    -0.249 NA
ENDBRANCH   8   9
ENDBRANCH   1   8
BRANCH   6  20
ATOM     20  C16 <0> d           8.691  -0.863   0.673  0.00  0.00     0.205 C 
ATOM     21  O1  <0> d           8.556   0.346   0.754  0.00  0.00    -0.646 OA
ATOM     22  O2  <0> d           9.646  -1.331   0.076  0.00  0.00    -0.646 OA
ENDBRANCH   6  20
BRANCH   4  23
ATOM     23  O3  <0> d           7.425  -3.252   4.757  0.00  0.00    -0.395 OA
ATOM     24  H16 <0> d           6.809  -3.830   5.228  0.00  0.00     0.210 HD
ENDBRANCH   4  23
TORSDOF 4
