REMARK  4 active torsions:
REMARK  status: ('A' for Active; 'I' for Inactive)
REMARK    1  A    between atoms: C4_4  and  N3_11 
REMARK    2  A    between atoms: C5_6  and  C6_8 
REMARK    3  A    between atoms: N3_11  and  C9_12 
REMARK    4  A    between atoms: C9_12  and  C16_19 
ROOT
ATOM      1  N3  <0> d           0.030  -2.832  -2.322  0.00  0.00    -0.356 N 
ATOM      2  H13 <0> d           0.039  -3.801  -2.279  0.00  0.00     0.162 HD
ENDROOT
BRANCH   1   3
ATOM      3  C4  <0> d           0.137  -2.087  -1.159  0.00  0.00     0.128 A 
ATOM      4  C3  <0> d           0.164  -2.716   0.087  0.00  0.00     0.074 A 
ATOM      5  C2  <0> d           0.272  -1.930   1.217  0.00  0.00     0.010 A 
ATOM      6  C1  <0> d           0.305  -2.561   2.586  0.00  0.00     0.068 C 
ATOM      7  N2  <0> d           0.340  -0.613   1.084  0.00  0.00    -0.348 N 
ATOM      8  C5  <0> d           0.317  -0.049  -0.107  0.00  0.00     0.110 A 
ATOM      9  H25 <0> d           0.412  -0.056   1.875  0.00  0.00     0.167 HD
ATOM     10  N1  <0> d           0.215  -0.760  -1.211  0.00  0.00    -0.218 NA
BRANCH   8  11
ATOM     11  C6  <0> d           0.404   1.452  -0.208  0.00  0.00     0.047 C 
ATOM     12  C7  <0> d          -0.992   2.056  -0.041  0.00  0.00     0.017 C 
ATOM     13  C8  <0> d           1.325   1.986   0.891  0.00  0.00     0.017 C 
ENDBRANCH   8  11
ENDBRANCH   1   3
BRANCH   1  14
ATOM     14  C9  <0> d          -0.097  -2.156  -3.615  0.00  0.00     0.120 C 
ATOM     15  C14 <0> d          -0.189  -3.201  -4.729  0.00  0.00     0.046 C 
ATOM     16  C13 <0> d           1.075  -4.063  -4.726  0.00  0.00    -0.016 C 
ATOM     17  C12 <0> d           2.299  -3.175  -4.960  0.00  0.00     0.004 C 
ATOM     18  C15 <0> d           0.982  -5.108  -5.840  0.00  0.00     0.010 C 
ATOM     19  C11 <0> d           2.391  -2.131  -3.846  0.00  0.00     0.003 C 
ATOM     20  C10 <0> d           1.127  -1.268  -3.849  0.00  0.00     0.042 C 
BRANCH  14  21
ATOM     21  C16 <0> d          -1.342  -1.307  -3.619  0.00  0.00     0.202 C 
ATOM     22  O1  <0> d          -2.057  -1.269  -2.632  0.00  0.00    -0.646 OA
ATOM     23  O2  <0> d          -1.634  -0.657  -4.608  0.00  0.00    -0.646 OA
ENDBRANCH  14  21
ENDBRANCH   1  14
TORSDOF 4
