REMARK  5 active torsions:
REMARK  status: ('A' for Active; 'I' for Inactive)
REMARK    1  A    between atoms: O1_2  and  C2_3 
REMARK    2  A    between atoms: C4_5  and  C8_11 
REMARK    3  A    between atoms: C7_8  and  O2_9 
REMARK    4  A    between atoms: C8_11  and  N1_12 
REMARK    5  A    between atoms: N1_12  and  C9_13 
ROOT
ATOM      1  C2  <0> d           0.606  -0.608  -1.056  0.00  0.00     0.103 A 
ATOM      2  C3  <0> d           1.173   0.159  -2.062  0.00  0.00     0.048 A 
ATOM      3  C4  <0> d           1.786  -0.455  -3.138  0.00  0.00    -0.029 A 
ATOM      4  C5  <0> d           1.836  -1.835  -3.214  0.00  0.00     0.030 A 
ATOM      5  C6  <0> d           1.273  -2.606  -2.213  0.00  0.00     0.047 A 
ATOM      6  C7  <0> d           0.662  -1.996  -1.129  0.00  0.00     0.116 A 
ATOM      7 Br1  <0> d           1.342  -4.493  -2.321  0.00  0.00    -0.048 Br
ENDROOT
BRANCH   3   8
ATOM      8  C8  <0> d           2.401   0.380  -4.231  0.00  0.00     0.271 C 
BRANCH   8   9
ATOM      9  N1  <0> d           3.806   0.659  -3.903  0.00  0.00    -0.067 N 
ATOM     10  H9  <0> d           3.854   1.160  -3.028  0.00  0.00     0.277 HD
ATOM     11  H19 <0> d           4.311  -0.211  -3.820  0.00  0.00     0.277 HD
BRANCH   9  12
ATOM     12  C9  <0> d           4.405   1.473  -4.968  0.00  0.00     0.190 C 
ATOM     13  C13 <0> d           5.831   1.869  -4.570  0.00  0.00     0.059 C 
ATOM     14  C12 <0> d           6.475   2.650  -5.718  0.00  0.00     0.169 C 
ATOM     15  O3  <0> d           6.462   1.851  -6.902  0.00  0.00    -0.391 OA
ATOM     16  C11 <0> d           5.154   1.490  -7.349  0.00  0.00     0.169 C 
ATOM     17  C10 <0> d           4.457   0.662  -6.266  0.00  0.00     0.059 C 
ENDBRANCH   9  12
ENDBRANCH   8   9
ENDBRANCH   3   8
BRANCH   1  18
ATOM     18  O1  <0> d           0.002  -0.004   0.002  0.00  0.00    -0.353 OA
ATOM     19  C1  <0> d          -0.017   1.425   0.010  0.00  0.00     0.210 C 
ENDBRANCH   1  18
BRANCH   6  20
ATOM     20  O2  <0> d           0.112  -2.752  -0.141  0.00  0.00    -0.357 OA
ATOM     21  H6  <0> d          -0.816  -2.979  -0.290  0.00  0.00     0.218 HD
ENDBRANCH   6  20
TORSDOF 5
