REMARK  6 active torsions:
REMARK  status: ('A' for Active; 'I' for Inactive)
REMARK    1  A    between atoms: C5_6  and  C6_7 
REMARK       I    between atoms: C6_7  and  N1_9 
REMARK    2  A    between atoms: C8_11  and  C15_19 
REMARK       I    between atoms: C15_19  and  N3_21 
REMARK    3  A    between atoms: N3_21  and  C16_22 
REMARK    4  A    between atoms: C16_22  and  C17_23 
REMARK    5  A    between atoms: C17_23  and  C18_24 
REMARK    6  A    between atoms: C18_24  and  N4_25 
ROOT
ATOM      1  C6  <0> d           0.032  -0.278   2.568  0.00  0.00     0.261 C 
ATOM      2  O1  <0> d           0.122   0.910   2.814  0.00  0.00    -0.267 OA
ATOM      3  N1  <0> d          -0.049  -1.170   3.575  0.00  0.00    -0.346 N 
ATOM      4  C7  <0> d          -0.041  -2.649   3.480  0.00  0.00     0.141 C 
ATOM      5  C8  <0> d           0.813  -3.113   4.682  0.00  0.00     0.106 C 
ATOM      6  C9  <0> d           0.726  -1.958   5.694  0.00  0.00    -0.007 C 
ATOM      7  C10 <0> d          -0.159  -0.894   5.027  0.00  0.00     0.136 C 
ATOM      8  C11 <0> d           2.114  -1.386   5.964  0.00  0.00     0.039 C 
ATOM      9  C12 <0> d           2.009  -0.278   7.015  0.00  0.00     0.233 C 
ATOM     10  N2  <0> d           1.434  -0.825   8.250  0.00  0.00    -0.075 N 
ATOM     11  C13 <0> d           0.063  -1.288   8.002  0.00  0.00     0.233 C 
ATOM     12  C14 <0> d           0.086  -2.439   6.992  0.00  0.00     0.039 C 
ATOM     13  H15 <0> d           1.997  -1.600   8.567  0.00  0.00     0.277 HD
ATOM     14  H35 <0> d           1.422  -0.108   8.960  0.00  0.00     0.277 HD
ENDROOT
BRANCH   5  15
ATOM     15  C15 <0> d           2.241  -3.334   4.257  0.00  0.00     0.224 C 
ATOM     16  O2  <0> d           2.739  -2.622   3.410  0.00  0.00    -0.273 OA
ATOM     17  N3  <0> d           2.966  -4.323   4.816  0.00  0.00    -0.361 N 
ATOM     18  H20 <0> d           2.567  -4.892   5.494  0.00  0.00     0.162 HD
BRANCH  17  19
ATOM     19  C16 <0> d           4.354  -4.538   4.403  0.00  0.00     0.124 C 
BRANCH  19  20
ATOM     20  C17 <0> d           4.944  -5.713   5.186  0.00  0.00     0.050 C 
BRANCH  20  21
ATOM     21  C18 <0> d           6.394  -5.938   4.754  0.00  0.00     0.274 C 
BRANCH  21  22
ATOM     22  N4  <0> d           6.960  -7.066   5.506  0.00  0.00     0.092 N 
ATOM     23  C22 <0> d           8.264  -7.464   4.957  0.00  0.00     0.298 C 
ATOM     24  C21 <0> d           8.788  -8.678   5.730  0.00  0.00     0.198 C 
ATOM     25  O3  <0> d           8.863  -8.354   7.121  0.00  0.00    -0.388 OA
ATOM     26  C20 <0> d           7.610  -7.962   7.689  0.00  0.00     0.198 C 
ATOM     27  C19 <0> d           7.074  -6.742   6.936  0.00  0.00     0.298 C 
ENDBRANCH  21  22
ENDBRANCH  20  21
ENDBRANCH  19  20
ENDBRANCH  17  19
ENDBRANCH   5  15
BRANCH   1  28
ATOM     28  C5  <0> d           0.011  -0.739   1.177  0.00  0.00     0.078 A 
ATOM     29  C2  <0> d          -0.009   0.008   0.009  0.00  0.00    -0.039 A 
ATOM     30  C1  <0> d          -0.011   1.515   0.021  0.00  0.00     0.050 C 
ATOM     31  C3  <0> d          -0.020  -0.713  -1.161  0.00  0.00     0.015 A 
ATOM     32  C4  <0> d          -0.016  -2.068  -1.100  0.00  0.00     0.051 A 
ATOM     33  S1  <0> d           0.003  -2.406   0.545  0.00  0.00    -0.096 SA
ENDBRANCH   1  28
TORSDOF 6
