REMARK  4 active torsions:
REMARK  status: ('A' for Active; 'I' for Inactive)
REMARK    1  A    between atoms: S1_2  and  C2_5 
REMARK    2  A    between atoms: C5_8  and  N1_12 
REMARK       I    between atoms: N1_12  and  C8_13 
REMARK    3  A    between atoms: C8_13  and  C9_15 
REMARK    4  A    between atoms: C9_15  and  N2_16 
ROOT
ATOM      1  N1  <0> d           2.841  -1.462  -4.997  0.00  0.00    -0.326 N 
ATOM      2  C8  <0> d           4.187  -1.524  -5.014  0.00  0.00     0.240 C 
ATOM      3  O3  <0> d           4.814  -1.370  -3.988  0.00  0.00    -0.271 OA
ATOM      4  H6  <0> d           2.336  -1.661  -5.801  0.00  0.00     0.169 HD
ENDROOT
BRANCH   1   5
ATOM      5  C5  <0> d           2.172  -1.112  -3.820  0.00  0.00     0.040 A 
ATOM      6  C4  <0> d           2.747  -0.210  -2.935  0.00  0.00     0.073 A 
ATOM      7  C3  <0> d           2.083   0.135  -1.771  0.00  0.00     0.143 A 
ATOM      8  C2  <0> d           0.846  -0.418  -1.489  0.00  0.00     0.135 A 
ATOM      9  F2  <0> d           2.642   1.013  -0.910  0.00  0.00    -0.204 F 
ATOM     10  C7  <0> d           0.273  -1.322  -2.367  0.00  0.00     0.143 A 
ATOM     11  C6  <0> d           0.931  -1.667  -3.534  0.00  0.00     0.073 A 
ATOM     12  F1  <0> d          -0.932  -1.865  -2.086  0.00  0.00    -0.204 F 
BRANCH   8  13
ATOM     13  S1  <0> d           0.002   0.023  -0.006  0.00  0.00     0.177 S 
ATOM     14  C1  <0> d           0.570  -1.179   1.229  0.00  0.00     0.167 C 
ATOM     15  O1  <0> d          -1.373  -0.185  -0.295  0.00  0.00    -0.223 OA
ATOM     16  O2  <0> d           0.487   1.320   0.315  0.00  0.00    -0.223 OA
ENDBRANCH   8  13
ENDBRANCH   1   5
BRANCH   2  17
ATOM     17  C9  <0> d           4.913  -1.784  -6.309  0.00  0.00     0.236 C 
BRANCH  17  18
ATOM     18  N2  <0> d           6.357  -1.804  -6.064  0.00  0.00    -0.299 N 
ATOM     19  C13 <0> d           6.957  -2.967  -5.750  0.00  0.00     0.262 A 
ATOM     20  C12 <0> d           8.371  -2.977  -5.516  0.00  0.00     0.068 A 
ATOM     21  O4  <0> d           6.309  -3.996  -5.669  0.00  0.00    -0.267 OA
ATOM     22  C11 <0> d           9.015  -1.732  -5.631  0.00  0.00     0.114 A 
ATOM     23  C14 <0> d           9.239  -4.088  -5.172  0.00  0.00     0.027 A 
ATOM     24  N3  <0> d           8.351  -0.623  -5.941  0.00  0.00    -0.235 NA
ATOM     25  S2  <0> d          10.713  -2.111  -5.279  0.00  0.00    -0.081 SA
ATOM     26  C10 <0> d           7.063  -0.647  -6.152  0.00  0.00     0.214 A 
ATOM     27  C15 <0> d          10.550  -3.864  -4.992  0.00  0.00     0.053 A 
ENDBRANCH  17  18
ENDBRANCH   2  17
TORSDOF 4
