REMARK  3 active torsions:
REMARK  status: ('A' for Active; 'I' for Inactive)
REMARK    1  A    between atoms: C7_9  and  O4_23 
REMARK    2  A    between atoms: C14_16  and  O3_22 
REMARK    3  A    between atoms: C15_17  and  O2_20 
ROOT
ATOM      1  C1  <0> d           0.701   1.115   0.217  0.00  0.00     0.270 C 
ATOM      2  N1  <0> d           0.620  -0.350   0.289  0.00  0.00    -0.070 N 
ATOM      3  C2  <0> d          -0.781  -0.754   0.155  0.00  0.00     0.236 C 
ATOM      4  C3  <0> d          -0.901  -2.281   0.252  0.00  0.00     0.043 C 
ATOM      5  C4  <0> d          -0.369  -2.689   1.632  0.00  0.00     0.007 C 
ATOM      6  C5  <0> d          -0.522  -4.191   1.860  0.00  0.00     0.101 C 
ATOM      7  C6  <0> d           0.012  -4.490   3.248  0.00  0.00     0.183 C 
ATOM      8  O1  <0> d          -0.545  -5.288   3.972  0.00  0.00    -0.290 OA
ATOM      9  C7  <0> d           1.224  -3.785   3.690  0.00  0.00     0.110 C 
ATOM     10  C8  <0> d           1.726  -2.774   2.980  0.00  0.00     0.021 C 
ATOM     11  C9  <0> d           1.109  -2.308   1.699  0.00  0.00     0.056 C 
ATOM     12  C10 <0> d           1.211  -0.793   1.545  0.00  0.00     0.200 C 
ATOM     13  C11 <0> d           0.610  -0.100   2.754  0.00  0.00     0.073 C 
ATOM     14  C12 <0> d          -0.693  -0.723   3.178  0.00  0.00    -0.046 A 
ATOM     15  C13 <0> d          -1.144  -1.923   2.674  0.00  0.00    -0.006 A 
ATOM     16  C14 <0> d          -2.347  -2.457   3.121  0.00  0.00     0.106 A 
ATOM     17  C15 <0> d          -3.106  -1.780   4.069  0.00  0.00     0.101 A 
ATOM     18  C16 <0> d          -2.655  -0.567   4.565  0.00  0.00     0.040 A 
ATOM     19  C17 <0> d          -1.457  -0.045   4.121  0.00  0.00     0.011 A 
ATOM     20  H24 <0> d           1.147  -0.743  -0.476  0.00  0.00     0.279 HD
ENDROOT
BRANCH   9  21
ATOM     21  O4  <0> d           1.841  -4.169   4.839  0.00  0.00    -0.353 OA
ATOM     22  C19 <0> d           3.015  -3.447   5.218  0.00  0.00     0.210 C 
ENDBRANCH   9  21
BRANCH  16  23
ATOM     23  O3  <0> d          -2.784  -3.647   2.629  0.00  0.00    -0.357 OA
ATOM     24  H20 <0> d          -3.404  -3.564   1.891  0.00  0.00     0.217 HD
ENDBRANCH  16  23
BRANCH  17  25
ATOM     25  O2  <0> d          -4.282  -2.303   4.506  0.00  0.00    -0.353 OA
ATOM     26  C18 <0> d          -5.005  -1.549   5.481  0.00  0.00     0.210 C 
ENDBRANCH  17  25
TORSDOF 3
