REMARK  5 active torsions:
REMARK  status: ('A' for Active; 'I' for Inactive)
REMARK    1  A    between atoms: C5_7  and  C18_25 
REMARK    2  A    between atoms: C6_9  and  N5_13 
REMARK    3  A    between atoms: N5_13  and  C8_14 
REMARK    4  A    between atoms: C8_14  and  C9_15 
REMARK    5  A    between atoms: C9_15  and  C10_16 
ROOT
ATOM      1  C1  <0> d           0.022   1.484  -0.230  0.00  0.00     0.043 C 
ATOM      2  C2  <0> d           0.035  -0.044  -0.172  0.00  0.00     0.230 C 
ATOM      3  C3  <0> d          -1.404  -0.573  -0.148  0.00  0.00     0.138 C 
ATOM      4  C4  <0> d          -1.355  -2.065   0.048  0.00  0.00     0.226 C 
ATOM      5  O1  <0> d          -2.284  -2.745  -0.336  0.00  0.00    -0.273 OA
ATOM      6  N1  <0> d          -0.308  -2.659   0.637  0.00  0.00    -0.277 N 
ATOM      7  C5  <0> d          -0.314  -4.124   0.803  0.00  0.00     0.267 C 
ATOM      8  N2  <0> d           0.193  -4.468   2.129  0.00  0.00    -0.076 NA
ATOM      9  C6  <0> d           0.832  -3.640   2.887  0.00  0.00     0.696 C 
ATOM     10  N3  <0> d           1.067  -2.334   2.531  0.00  0.00    -0.176 N 
ATOM     11  C7  <0> d           0.863  -1.933   1.129  0.00  0.00     0.446 C 
ATOM     12  N4  <0> d           0.712  -0.486   1.052  0.00  0.00     0.131 N 
ATOM     13  H9  <0> d           1.362  -1.687   3.192  0.00  0.00     0.181 HD
ATOM     14  H27 <0> d           1.601  -0.022   1.161  0.00  0.00     0.321 HD
ENDROOT
BRANCH   9  15
ATOM     15  N5  <0> d           1.297  -4.084   4.102  0.00  0.00    -0.224 N 
ATOM     16  H10 <0> d           1.780  -3.479   4.688  0.00  0.00     0.177 HD
BRANCH  15  17
ATOM     17  C8  <0> d           1.065  -5.471   4.513  0.00  0.00     0.142 C 
BRANCH  17  18
ATOM     18  C9  <0> d           1.680  -5.704   5.894  0.00  0.00     0.057 C 
BRANCH  18  19
ATOM     19  C10 <0> d           1.440  -7.131   6.317  0.00  0.00    -0.048 A 
ATOM     20  C17 <0> d           0.208  -7.683   6.998  0.00  0.00     0.155 A 
ATOM     21  N6  <0> d           0.464  -9.114   7.194  0.00  0.00    -0.385 N 
ATOM     22  C16 <0> d           1.654  -9.394   6.721  0.00  0.00     0.038 A 
ATOM     23  H26 <0> d          -0.145  -9.747   7.606  0.00  0.00     0.160 HD
ATOM     24  C11 <0> d           2.286  -8.175   6.168  0.00  0.00    -0.006 A 
ATOM     25  C15 <0> d           2.386 -10.612   6.661  0.00  0.00     0.030 A 
ATOM     26  C12 <0> d           3.630  -8.292   5.590  0.00  0.00     0.014 A 
ATOM     27  C13 <0> d           4.239  -9.500   5.584  0.00  0.00     0.001 A 
ATOM     28  C14 <0> d           3.620 -10.640   6.113  0.00  0.00     0.002 A 
ENDBRANCH  18  19
ENDBRANCH  17  18
ENDBRANCH  15  17
ENDBRANCH   9  15
BRANCH   7  29
ATOM     29  C18 <0> d          -1.721  -4.640   0.655  0.00  0.00    -0.013 A 
ATOM     30  C23 <0> d          -2.676  -4.329   1.605  0.00  0.00     0.011 A 
ATOM     31  C22 <0> d          -3.968  -4.799   1.467  0.00  0.00     0.001 A 
ATOM     32  C21 <0> d          -4.304  -5.589   0.383  0.00  0.00     0.000 A 
ATOM     33  C20 <0> d          -3.348  -5.905  -0.564  0.00  0.00     0.001 A 
ATOM     34  C19 <0> d          -2.057  -5.431  -0.428  0.00  0.00     0.011 A 
ENDBRANCH   7  29
TORSDOF 5
