REMARK  7 active torsions:
REMARK  status: ('A' for Active; 'I' for Inactive)
REMARK    1  A    between atoms: C2_2  and  C3_3 
REMARK    2  A    between atoms: C3_3  and  C4_4 
REMARK    3  A    between atoms: C3_3  and  N2_18 
REMARK    4  A    between atoms: C4_4  and  C5_5 
REMARK    5  A    between atoms: C4_4  and  N1_10 
REMARK    6  A    between atoms: C11_13  and  C14_16 
REMARK    7  A    between atoms: C14_16  and  O1_17 
ROOT
ATOM      1  C4  <0> d          -1.413  -2.059   0.130  0.00  0.00     0.251 C 
ENDROOT
BRANCH   1   2
ATOM      2  C3  <0> d          -1.433  -0.534   0.013  0.00  0.00     0.218 C 
BRANCH   2   3
ATOM      3  C2  <0> d           0.002  -0.004   0.002  0.00  0.00     0.031 C 
ATOM      4  C1  <0> d          -0.019   1.526   0.010  0.00  0.00     0.007 C 
ENDBRANCH   2   3
BRANCH   2   5
ATOM      5  N2  <0> d          -2.107  -0.147  -1.234  0.00  0.00    -0.073 N 
ATOM      6  H23 <0> d          -3.054  -0.496  -1.227  0.00  0.00     0.274 HD
ATOM      7  H24 <0> d          -2.120   0.859  -1.311  0.00  0.00     0.274 HD
ATOM      8  H25 <0> d          -1.610  -0.539  -2.020  0.00  0.00     0.274 HD
ENDBRANCH   2   5
ENDBRANCH   1   2
BRANCH   1   9
ATOM      9  C5  <0> d          -0.780  -2.649  -1.103  0.00  0.00    -0.018 A 
ATOM     10  C8  <0> d           0.569  -2.680  -1.236  0.00  0.00     0.058 A 
ATOM     11  S1  <0> d           0.765  -3.462  -2.829  0.00  0.00    -0.113 SA
ATOM     12  C7  <0> d          -0.964  -3.687  -3.214  0.00  0.00     0.050 A 
ATOM     13  C6  <0> d          -1.565  -3.163  -2.118  0.00  0.00     0.017 A 
ENDBRANCH   1   9
BRANCH   1  14
ATOM     14  N1  <0> d          -0.636  -2.449   1.314  0.00  0.00    -0.061 N 
ATOM     15  C13 <0> d          -0.618  -3.912   1.426  0.00  0.00     0.236 C 
ATOM     16  C12 <0> d           0.257  -4.327   2.610  0.00  0.00     0.034 C 
ATOM     17  C11 <0> d          -0.314  -3.723   3.896  0.00  0.00     0.012 C 
ATOM     18  C10 <0> d          -0.398  -2.201   3.740  0.00  0.00     0.034 C 
ATOM     19  C9  <0> d          -1.249  -1.866   2.514  0.00  0.00     0.236 C 
ATOM     20  H26 <0> d           0.309  -2.108   1.222  0.00  0.00     0.280 HD
BRANCH  17  21
ATOM     21  C14 <0> d           0.600  -4.067   5.074  0.00  0.00     0.168 C 
BRANCH  21  22
ATOM     22  O1  <0> d           0.586  -5.479   5.291  0.00  0.00    -0.400 OA
ATOM     23  H22 <0> d           1.145  -5.770   6.025  0.00  0.00     0.209 HD
ENDBRANCH  21  22
ENDBRANCH  17  21
ENDBRANCH   1  14
TORSDOF 7
