REMARK  6 active torsions:
REMARK  status: ('A' for Active; 'I' for Inactive)
REMARK    1  A    between atoms: C2_2  and  C3_3 
REMARK    2  A    between atoms: C3_3  and  C4_4 
REMARK    3  A    between atoms: C4_4  and  C5_5 
REMARK    4  A    between atoms: C5_5  and  C6_6 
REMARK    5  A    between atoms: C5_5  and  N3_20 
REMARK    6  A    between atoms: C7_9  and  C10_13 
ROOT
ATOM      1  C6  <0> d          -2.828  -4.096   0.131  0.00  0.00     0.135 A 
ATOM      2  N1  <0> d          -3.471  -4.818   1.073  0.00  0.00    -0.340 N 
ATOM      3  H2  <0> d          -4.023  -4.469   1.791  0.00  0.00     0.167 HD
ATOM      4  C7  <0> d          -3.197  -6.144   0.824  0.00  0.00     0.068 A 
ATOM      5  C8  <0> d          -2.389  -6.172  -0.271  0.00  0.00     0.060 A 
ATOM      6  N2  <0> d          -2.191  -4.909  -0.667  0.00  0.00    -0.236 NA
ATOM      7  C9  <0> d          -1.823  -7.406  -0.924  0.00  0.00     0.073 C 
ENDROOT
BRANCH   1   8
ATOM      8  C5  <0> d          -2.848  -2.593   0.015  0.00  0.00     0.252 C 
BRANCH   8   9
ATOM      9  C4  <0> d          -1.413  -2.063   0.004  0.00  0.00     0.041 C 
BRANCH   9  10
ATOM     10  C3  <0> d          -1.433  -0.534   0.013  0.00  0.00     0.002 C 
BRANCH  10  11
ATOM     11  C2  <0> d           0.002  -0.004   0.002  0.00  0.00    -0.004 C 
ATOM     12  C1  <0> d          -0.019   1.526   0.010  0.00  0.00     0.005 C 
ENDBRANCH  10  11
ENDBRANCH   9  10
ENDBRANCH   8   9
BRANCH   8  13
ATOM     13  N3  <0> d          -3.522  -2.207  -1.232  0.00  0.00    -0.068 N 
ATOM     14  H19 <0> d          -4.468  -2.556  -1.224  0.00  0.00     0.275 HD
ATOM     15  H20 <0> d          -3.535  -1.201  -1.309  0.00  0.00     0.275 HD
ATOM     16  H21 <0> d          -3.025  -2.598  -2.018  0.00  0.00     0.275 HD
ENDBRANCH   8  13
ENDBRANCH   1   8
BRANCH   4  17
ATOM     17  C10 <0> d          -3.682  -7.309   1.595  0.00  0.00    -0.007 A 
ATOM     18  C15 <0> d          -5.021  -7.385   1.981  0.00  0.00     0.015 A 
ATOM     19  C14 <0> d          -5.470  -8.476   2.696  0.00  0.00     0.020 A 
ATOM     20  C13 <0> d          -4.592  -9.489   3.040  0.00  0.00     0.011 A 
ATOM     21  C12 <0> d          -3.261  -9.417   2.665  0.00  0.00     0.020 A 
ATOM     22 Br1  <0> d          -5.213 -10.979   4.026  0.00  0.00    -0.051 Br
ATOM     23  C11 <0> d          -2.802  -8.334   1.945  0.00  0.00     0.015 A 
ENDBRANCH   4  17
TORSDOF 6
