REMARK  5 active torsions:
REMARK  status: ('A' for Active; 'I' for Inactive)
REMARK    1  A    between atoms: C2_2  and  N1_3 
REMARK    2  A    between atoms: N1_3  and  C3_4 
REMARK       I    between atoms: N1_3  and  C5_6 
REMARK       I    between atoms: C5_6  and  N2_8 
REMARK    3  A    between atoms: N3_11  and  C10_14 
REMARK    4  A    between atoms: C10_14  and  C11_15 
REMARK    5  A    between atoms: C11_15  and  C12_17 
ROOT
ATOM      1  C11 <0> d          -6.030  -1.585  -4.063  0.00  0.00     0.197 C 
ATOM      2  O2  <0> d          -5.574  -2.695  -4.247  0.00  0.00    -0.290 OA
ENDROOT
BRANCH   1   3
ATOM      3  C10 <0> d          -5.245  -0.570  -3.272  0.00  0.00     0.356 C 
BRANCH   3   4
ATOM      4  N3  <0> d          -3.973  -1.163  -2.840  0.00  0.00     0.099 N 
ATOM      5  C7  <0> d          -3.288  -0.294  -1.874  0.00  0.00     0.293 C 
ATOM      6  C6  <0> d          -2.064  -1.025  -1.312  0.00  0.00     0.158 C 
ATOM      7  N2  <0> d          -1.233  -1.478  -2.438  0.00  0.00    -0.331 N 
ATOM      8  C5  <0> d           0.085  -1.204  -2.480  0.00  0.00     0.320 C 
ATOM      9  C9  <0> d          -1.882  -2.235  -3.520  0.00  0.00     0.158 C 
ATOM     10  N1  <0> d           0.697  -0.669  -1.405  0.00  0.00    -0.335 N 
ATOM     11  O1  <0> d           0.724  -1.438  -3.488  0.00  0.00    -0.247 OA
ATOM     12  C8  <0> d          -3.112  -1.461  -3.992  0.00  0.00     0.293 C 
BRANCH  10  13
ATOM     13  C2  <0> d           2.019  -0.053  -1.545  0.00  0.00     0.123 C 
ATOM     14  C1  <0> d           3.099  -1.079  -1.195  0.00  0.00     0.026 C 
ENDBRANCH  10  13
BRANCH  10  15
ATOM     15  C3  <0> d           0.039  -0.703  -0.096  0.00  0.00     0.123 C 
ATOM     16  C4  <0> d          -0.349   0.718   0.317  0.00  0.00     0.026 C 
ENDBRANCH  10  15
ENDBRANCH   3   4
ENDBRANCH   1   3
BRANCH   1  17
ATOM     17  C12 <0> d          -7.295  -1.245  -4.588  0.00  0.00     0.123 A 
ATOM     18  C15 <0> d          -7.818   0.123  -4.480  0.00  0.00     0.269 A 
ATOM     19  N5  <0> d          -9.031   0.394  -5.004  0.00  0.00    -0.270 N 
ATOM     20  O4  <0> d          -7.168   0.995  -3.933  0.00  0.00    -0.267 OA
ATOM     21  C14 <0> d          -9.753  -0.567  -5.603  0.00  0.00     0.332 A 
ATOM     22  C16 <0> d          -9.570   1.753  -4.914  0.00  0.00     0.164 C 
ATOM     23  N4  <0> d          -9.314  -1.830  -5.718  0.00  0.00    -0.289 N 
ATOM     24  O3  <0> d         -10.844  -0.282  -6.058  0.00  0.00    -0.246 OA
ATOM     25  C13 <0> d          -8.097  -2.207  -5.226  0.00  0.00     0.124 A 
ATOM     26  C17 <0> d         -10.158  -2.825  -6.385  0.00  0.00     0.163 C 
ATOM     27  N6  <0> d          -7.668  -3.492  -5.352  0.00  0.00    -0.384 N 
ATOM     28  H27 <0> d          -6.849  -3.775  -4.916  0.00  0.00     0.157 HD
ATOM     29  H28 <0> d          -8.181  -4.125  -5.878  0.00  0.00     0.157 HD
ENDBRANCH   1  17
TORSDOF 5
