REMARK  3 active torsions:
REMARK  status: ('A' for Active; 'I' for Inactive)
REMARK    1  A    between atoms: C2_2  and  C3_3 
REMARK    2  A    between atoms: C3_3  and  C4_4 
REMARK    3  A    between atoms: C3_3  and  N2_7 
ROOT
ATOM      1  N2  <0> d          -0.008  -0.140   2.444  0.00  0.00    -0.359 N 
ATOM      2  C5  <0> d          -1.384  -0.615   2.656  0.00  0.00     0.227 C 
ATOM      3  C6  <0> d          -2.216   0.517   3.202  0.00  0.00     0.240 C 
ATOM      4  O1  <0> d          -3.406   0.553   2.969  0.00  0.00    -0.271 OA
ATOM      5  N3  <0> d          -1.655   1.489   3.946  0.00  0.00    -0.324 N 
ATOM      6  C7  <0> d          -0.276   1.498   4.189  0.00  0.00     0.061 A 
ATOM      7  C8  <0> d           0.564   0.674   3.431  0.00  0.00     0.058 A 
ATOM      8  C9  <0> d           1.929   0.670   3.657  0.00  0.00     0.031 A 
ATOM      9  C10 <0> d           2.463   1.482   4.643  0.00  0.00     0.002 A 
ATOM     10  C11 <0> d           1.638   2.293   5.399  0.00  0.00     0.002 A 
ATOM     11  C12 <0> d           0.266   2.309   5.171  0.00  0.00     0.032 A 
ATOM     12  H11 <0> d          -2.212   2.190   4.318  0.00  0.00     0.169 HD
ENDROOT
BRANCH   1  13
ATOM     13  C3  <0> d           0.742  -0.511   1.242  0.00  0.00     0.146 C 
BRANCH  13  14
ATOM     14  C2  <0> d           0.002  -0.004   0.002  0.00  0.00     0.028 C 
ATOM     15  C1  <0> d          -0.019   1.526   0.010  0.00  0.00     0.007 C 
ENDBRANCH  13  14
BRANCH  13  16
ATOM     16  C4  <0> d           0.870  -2.011   1.172  0.00  0.00     0.094 C 
ATOM     17  S1  <0> d           0.033  -2.932   2.175  0.00  0.00    -0.064 SA
ATOM     18  N1  <0> d           1.690  -2.576   0.264  0.00  0.00    -0.392 N 
ATOM     19  H7  <0> d           2.198  -2.017  -0.345  0.00  0.00     0.156 HD
ATOM     20  H8  <0> d           1.773  -3.541   0.219  0.00  0.00     0.156 HD
ENDBRANCH  13  16
ENDBRANCH   1  13
TORSDOF 3
