REMARK  3 active torsions:
REMARK  status: ('A' for Active; 'I' for Inactive)
REMARK    1  A    between atoms: C4_4  and  C6_8 
REMARK       I    between atoms: C6_8  and  N3_10 
REMARK    2  A    between atoms: C7_11  and  C11_16 
REMARK    3  A    between atoms: C7_11  and  O2_20 
ROOT
ATOM      1  C6  <0> d          -0.441   1.715   2.466  0.00  0.00     0.297 C 
ATOM      2  O1  <0> d           0.542   1.056   2.747  0.00  0.00    -0.264 OA
ATOM      3  N3  <0> d          -0.763   1.928   1.175  0.00  0.00    -0.187 N 
ATOM      4  C7  <0> d          -0.017   1.425   0.010  0.00  0.00     0.261 A 
ATOM      5  C8  <0> d          -0.822   1.965  -1.190  0.00  0.00     0.129 A 
ATOM      6  C9  <0> d          -1.960   2.727  -0.542  0.00  0.00     0.034 A 
ATOM      7  N4  <0> d          -1.858   2.661   0.722  0.00  0.00    -0.176 NA
ATOM      8  C10 <0> d          -3.049   3.457  -1.286  0.00  0.00     0.067 C 
ENDROOT
BRANCH   1   9
ATOM      9  C4  <0> d          -1.281   2.281   3.541  0.00  0.00     0.148 A 
ATOM     10  C3  <0> d          -1.076   2.139   4.934  0.00  0.00     0.065 A 
ATOM     11  C2  <0> d          -2.085   2.825   5.520  0.00  0.00     0.028 A 
ATOM     12  C1  <0> d          -2.317   2.983   7.000  0.00  0.00     0.070 C 
ATOM     13  N2  <0> d          -2.850   3.334   4.530  0.00  0.00    -0.278 N 
ATOM     14  N1  <0> d          -2.369   3.009   3.384  0.00  0.00    -0.167 NA
ATOM     15  C5  <0> d          -4.055   4.142   4.734  0.00  0.00     0.179 C 
ENDBRANCH   1   9
BRANCH   4  16
ATOM     16  C11 <0> d           1.407   1.982  -0.001  0.00  0.00     0.440 C 
ATOM     17  F1  <0> d           2.066   1.557  -1.160  0.00  0.00    -0.166 F 
ATOM     18  F2  <0> d           1.361   3.380   0.023  0.00  0.00    -0.166 F 
ATOM     19  F3  <0> d           2.098   1.519   1.124  0.00  0.00    -0.166 F 
ENDBRANCH   4  16
BRANCH   4  20
ATOM     20  O2  <0> d           0.002  -0.004   0.002  0.00  0.00    -0.362 OA
ATOM     21  H13 <0> d           0.466  -0.395   0.755  0.00  0.00     0.213 HD
ENDBRANCH   4  20
TORSDOF 3
