REMARK  3 active torsions:
REMARK  status: ('A' for Active; 'I' for Inactive)
REMARK    1  A    between atoms: N2_7  and  C6_8 
REMARK    2  A    between atoms: C6_8  and  C7_9 
REMARK    3  A    between atoms: C14_18  and  O3_20 
ROOT
ATOM      1  C7  <0> d           2.689  -0.272   2.588  0.00  0.00    -0.011 A 
ATOM      2  C8  <0> d           3.471  -1.370   2.759  0.00  0.00     0.092 A 
ATOM      3  C9  <0> d           4.031  -1.643   4.024  0.00  0.00     0.288 A 
ATOM      4  O1  <0> d           4.729  -2.631   4.163  0.00  0.00    -0.260 OA
ATOM      5  O2  <0> d           3.814  -0.842   5.079  0.00  0.00    -0.275 OA
ATOM      6  C10 <0> d           3.047   0.265   4.977  0.00  0.00     0.093 A 
ATOM      7  C11 <0> d           2.461   0.601   3.742  0.00  0.00     0.006 A 
ATOM      8  C12 <0> d           1.671   1.750   3.631  0.00  0.00     0.017 A 
ATOM      9  C13 <0> d           1.474   2.546   4.722  0.00  0.00     0.037 A 
ATOM     10  C14 <0> d           2.055   2.222   5.946  0.00  0.00     0.068 A 
ATOM     11  C15 <0> d           2.833   1.082   6.077  0.00  0.00     0.074 A 
ENDROOT
BRANCH   1  12
ATOM     12  C6  <0> d           2.079   0.043   1.247  0.00  0.00     0.312 C 
BRANCH  12  13
ATOM     13  N2  <0> d           0.712  -0.491   1.193  0.00  0.00     0.100 N 
ATOM     14  C2  <0> d           0.002  -0.004   0.002  0.00  0.00     0.244 C 
ATOM     15  C1  <0> d          -0.019   1.526   0.010  0.00  0.00     0.045 C 
ATOM     16  C3  <0> d          -1.433  -0.534   0.014  0.00  0.00     0.267 C 
ATOM     17  N1  <0> d          -1.413  -2.003   0.026  0.00  0.00    -0.071 N 
ATOM     18  C4  <0> d          -0.723  -2.475   1.234  0.00  0.00     0.262 C 
ATOM     19  H7  <0> d          -2.360  -2.352   0.022  0.00  0.00     0.277 HD
ATOM     20  H19 <0> d          -0.927  -2.339  -0.791  0.00  0.00     0.277 HD
ATOM     21  C5  <0> d           0.718  -1.961   1.232  0.00  0.00     0.300 C 
ENDBRANCH  12  13
ENDBRANCH   1  12
BRANCH  10  22
ATOM     22  O3  <0> d           1.851   3.023   7.022  0.00  0.00    -0.361 OA
ATOM     23  H18 <0> d           1.076   2.784   7.549  0.00  0.00     0.217 HD
ENDBRANCH  10  22
TORSDOF 3
