REMARK  4 active torsions:
REMARK  status: ('A' for Active; 'I' for Inactive)
REMARK    1  A    between atoms: C5_5  and  N1_9 
REMARK    2  A    between atoms: C6_6  and  O1_8 
REMARK    3  A    between atoms: N1_9  and  S1_10 
REMARK    4  A    between atoms: S1_10  and  C8_13 
ROOT
ATOM      1  N1  <0> d           0.057  -4.173  -0.030  0.00  0.00    -0.277 N 
ATOM      2  H8  <0> d          -0.472  -4.660   0.621  0.00  0.00     0.179 HD
ENDROOT
BRANCH   1   3
ATOM      3  C5  <0> d           0.211  -2.787   0.089  0.00  0.00     0.075 A 
ATOM      4  C4  <0> d           0.273  -1.994  -1.048  0.00  0.00     0.033 A 
ATOM      5  C3  <0> d           0.424  -0.625  -0.928  0.00  0.00     0.009 A 
ATOM      6  C2  <0> d           0.515  -0.044   0.323  0.00  0.00    -0.059 A 
ATOM      7  C1  <0> d           0.680   1.449   0.448  0.00  0.00     0.048 C 
ATOM      8  C7  <0> d           0.461  -0.829   1.461  0.00  0.00     0.045 A 
ATOM      9  C6  <0> d           0.303  -2.200   1.349  0.00  0.00     0.093 A 
BRANCH   9  10
ATOM     10  O1  <0> d           0.243  -2.973   2.467  0.00  0.00    -0.358 OA
ATOM     11  H7  <0> d           1.104  -3.292   2.771  0.00  0.00     0.217 HD
ENDBRANCH   9  10
ENDBRANCH   1   3
BRANCH   1  12
ATOM     12  S1  <0> d           0.778  -4.982  -1.282  0.00  0.00     0.269 S 
ATOM     13  O2  <0> d           0.554  -6.367  -1.054  0.00  0.00    -0.200 OA
ATOM     14  O3  <0> d           0.368  -4.331  -2.477  0.00  0.00    -0.200 OA
BRANCH  12  15
ATOM     15  C8  <0> d           2.515  -4.723  -1.139  0.00  0.00     0.120 A 
ATOM     16  S2  <0> d           3.520  -3.424  -1.839  0.00  0.00    -0.082 SA
ATOM     17  C11 <0> d           5.098  -3.948  -1.189  0.00  0.00    -0.020 A 
ATOM     18  C10 <0> d           4.760  -5.064  -0.498  0.00  0.00     0.016 A 
ATOM     19  C12 <0> d           6.455  -3.316  -1.367  0.00  0.00     0.056 C 
ATOM     20  C9  <0> d           3.436  -5.461  -0.472  0.00  0.00     0.034 A 
ENDBRANCH  12  15
ENDBRANCH   1  12
TORSDOF 4
