REMARK  3 active torsions:
REMARK  status: ('A' for Active; 'I' for Inactive)
REMARK    1  A    between atoms: C3_3  and  C11_14 
REMARK    2  A    between atoms: N2_5  and  C5_8 
REMARK    3  A    between atoms: C4_6  and  N3_7 
ROOT
ATOM      1  C1  <0> d           0.152   1.500  -0.007  0.00  0.00     0.055 C 
ATOM      2  C2  <0> d           0.078  -0.005  -0.006  0.00  0.00     0.015 A 
ATOM      3  C3  <0> d          -0.091  -0.829  -1.135  0.00  0.00     0.097 A 
ATOM      4  N1  <0> d          -0.107  -2.082  -0.732  0.00  0.00    -0.164 NA
ATOM      5  N2  <0> d           0.050  -2.099   0.660  0.00  0.00    -0.217 N 
ATOM      6  C4  <0> d           0.167  -0.810   1.086  0.00  0.00     0.131 A 
ENDROOT
BRANCH   3   7
ATOM      7  C11 <0> d          -0.227  -0.365  -2.538  0.00  0.00    -0.002 A 
ATOM      8  C15 <0> d          -1.151  -0.958  -3.404  0.00  0.00     0.033 A 
ATOM      9  C14 <0> d          -1.248  -0.492  -4.699  0.00  0.00     0.117 A 
ATOM     10  N4  <0> d          -0.478   0.491  -5.125  0.00  0.00    -0.273 NA
ATOM     11  C13 <0> d           0.409   1.074  -4.341  0.00  0.00     0.117 A 
ATOM     12  C12 <0> d           0.568   0.674  -3.031  0.00  0.00     0.033 A 
ENDBRANCH   3   7
BRANCH   6  13
ATOM     13  N3  <0> d           0.343  -0.393   2.402  0.00  0.00    -0.383 N 
ATOM     14  H4  <0> d           0.414   0.552   2.606  0.00  0.00     0.157 HD
ATOM     15  H5  <0> d           0.396  -1.048   3.115  0.00  0.00     0.157 HD
ENDBRANCH   6  13
BRANCH   5  16
ATOM     16  C5  <0> d           0.085  -3.241   1.471  0.00  0.00     0.060 A 
ATOM     17  C10 <0> d          -0.700  -4.342   1.156  0.00  0.00     0.031 A 
ATOM     18  C9  <0> d          -0.658  -5.469   1.954  0.00  0.00     0.002 A 
ATOM     19  C8  <0> d           0.154  -5.496   3.072  0.00  0.00     0.000 A 
ATOM     20  C7  <0> d           0.932  -4.398   3.392  0.00  0.00     0.002 A 
ATOM     21  C6  <0> d           0.900  -3.271   2.595  0.00  0.00     0.031 A 
ENDBRANCH   5  16
TORSDOF 3
