REMARK  4 active torsions:
REMARK  status: ('A' for Active; 'I' for Inactive)
REMARK    1  A    between atoms: C4_4  and  C7_8 
REMARK       I    between atoms: C7_8  and  N1_10 
REMARK    2  A    between atoms: N1_10  and  N2_11 
REMARK    3  A    between atoms: C8_12  and  C11_17 
REMARK    4  A    between atoms: C14_20  and  N3_23 
ROOT
ATOM      1  N2  <0> d           2.349  -2.697  -0.822  0.00  0.00    -0.238 N 
ATOM      2  C8  <0> d           1.286  -2.113   0.019  0.00  0.00     0.206 C 
ATOM      3  S1  <0> d           1.695  -2.829   1.668  0.00  0.00    -0.128 SA
ATOM      4  C9  <0> d           2.725  -4.225   1.039  0.00  0.00     0.181 C 
ATOM      5  C10 <0> d           3.056  -3.718  -0.356  0.00  0.00     0.249 C 
ATOM      6  O3  <0> d           3.934  -4.229  -1.018  0.00  0.00    -0.271 OA
ENDROOT
BRANCH   1   7
ATOM      7  N1  <0> d           2.608  -2.179  -2.097  0.00  0.00    -0.259 N 
ATOM      8  C7  <0> d           3.703  -1.421  -2.306  0.00  0.00     0.272 C 
ATOM      9  O2  <0> d           4.514  -1.264  -1.414  0.00  0.00    -0.266 OA
ATOM     10  H9  <0> d           2.001  -2.366  -2.830  0.00  0.00     0.190 HD
BRANCH   8  11
ATOM     11  C4  <0> d           3.917  -0.781  -3.617  0.00  0.00     0.065 A 
ATOM     12  C3  <0> d           3.045  -0.862  -4.798  0.00  0.00     0.052 A 
ATOM     13  C2  <0> d           3.642  -0.125  -5.748  0.00  0.00     0.050 A 
ATOM     14  C1  <0> d           3.117   0.090  -7.144  0.00  0.00     0.076 C 
ATOM     15  O1  <0> d           4.780   0.388  -5.256  0.00  0.00    -0.319 OA
ATOM     16  C5  <0> d           4.961   0.015  -3.985  0.00  0.00     0.065 A 
ATOM     17  C6  <0> d           6.124   0.405  -3.110  0.00  0.00     0.077 C 
ENDBRANCH   8  11
ENDBRANCH   1   7
BRANCH   2  18
ATOM     18  C11 <0> d           1.381  -0.609   0.043  0.00  0.00    -0.024 A 
ATOM     19  C16 <0> d           2.552   0.002   0.450  0.00  0.00     0.012 A 
ATOM     20  C15 <0> d           2.641   1.381   0.474  0.00  0.00     0.030 A 
ATOM     21  C14 <0> d           1.553   2.152   0.089  0.00  0.00     0.039 A 
ATOM     22  C13 <0> d           0.379   1.535  -0.320  0.00  0.00     0.030 A 
ATOM     23  C12 <0> d           0.295   0.157  -0.342  0.00  0.00     0.012 A 
BRANCH  21  24
ATOM     24  N3  <0> d           1.641   3.551   0.112  0.00  0.00    -0.315 N 
ATOM     25  C19 <0> d           0.663   4.427  -0.235  0.00  0.00     0.214 A 
ATOM     26  N4  <0> d           1.118   5.641  -0.083  0.00  0.00    -0.254 NA
ATOM     27  C18 <0> d           2.383   5.588   0.361  0.00  0.00     0.135 A 
ATOM     28  C17 <0> d           2.728   4.294   0.495  0.00  0.00     0.117 A 
ENDBRANCH  21  24
ENDBRANCH   2  18
TORSDOF 4
