REMARK  5 active torsions:
REMARK  status: ('A' for Active; 'I' for Inactive)
REMARK    1  A    between atoms: C2_2  and  C3_3 
REMARK    2  A    between atoms: C2_2  and  N1_17 
REMARK    3  A    between atoms: C3_3  and  C4_4 
REMARK    4  A    between atoms: C3_3  and  O1_9 
REMARK    5  A    between atoms: O1_9  and  C8_10 
ROOT
ATOM      1  C3  <0> d           0.751  -0.519   1.250  0.00  0.00     0.192 C 
ENDROOT
BRANCH   1   2
ATOM      2  C2  <0> d          -0.034  -0.108   0.004  0.00  0.00     0.213 C 
ATOM      3  C1  <0> d          -0.145   1.417  -0.049  0.00  0.00     0.043 C 
BRANCH   2   4
ATOM      4  N1  <0> d          -1.380  -0.695   0.057  0.00  0.00    -0.073 N 
ATOM      5  H13 <0> d          -1.859  -0.364   0.881  0.00  0.00     0.274 HD
ATOM      6  H14 <0> d          -1.898  -0.423  -0.765  0.00  0.00     0.274 HD
ATOM      7  H15 <0> d          -1.307  -1.700   0.092  0.00  0.00     0.274 HD
ENDBRANCH   2   4
ENDBRANCH   1   2
BRANCH   1   8
ATOM      8  C4  <0> d           0.861  -2.021   1.302  0.00  0.00    -0.020 A 
ATOM      9  C7  <0> d          -0.174  -2.771   1.754  0.00  0.00     0.059 A 
ATOM     10  S1  <0> d           0.475  -4.427   1.602  0.00  0.00    -0.113 SA
ATOM     11  C6  <0> d           2.085  -4.007   0.954  0.00  0.00     0.050 A 
ATOM     12  C5  <0> d           2.020  -2.655   0.895  0.00  0.00     0.017 A 
ENDBRANCH   1   8
BRANCH   1  13
ATOM     13  O1  <0> d           0.073  -0.050   2.417  0.00  0.00    -0.338 OA
BRANCH  13  14
ATOM     14  C8  <0> d           0.539   1.094   2.984  0.00  0.00     0.086 A 
ATOM     15  C13 <0> d           0.002   1.546   4.181  0.00  0.00     0.039 A 
ATOM     16  C12 <0> d           0.482   2.707   4.758  0.00  0.00     0.021 A 
ATOM     17  I1  <0> d          -1.530   0.465   5.117  0.00  0.00    -0.042 I 
ATOM     18  C11 <0> d           1.488   3.423   4.137  0.00  0.00     0.001 A 
ATOM     19  C10 <0> d           2.021   2.978   2.941  0.00  0.00     0.003 A 
ATOM     20  C9  <0> d           1.549   1.815   2.364  0.00  0.00     0.038 A 
ENDBRANCH  13  14
ENDBRANCH   1  13
TORSDOF 5
