REMARK  4 active torsions:
REMARK  status: ('A' for Active; 'I' for Inactive)
REMARK    1  A    between atoms: C2_2  and  C3_3 
REMARK    2  A    between atoms: C2_2  and  N2_9 
REMARK    3  A    between atoms: N2_9  and  S1_10 
REMARK    4  A    between atoms: S1_10  and  C8_13 
ROOT
ATOM      1  N2  <0> d           0.688  -0.476  -1.203  0.00  0.00    -0.310 N 
ATOM      2  H15 <0> d           0.197  -0.571  -2.035  0.00  0.00     0.172 HD
ENDROOT
BRANCH   1   3
ATOM      3  C2  <0> d           0.002  -0.004   0.002  0.00  0.00     0.094 C 
ATOM      4  C1  <0> d          -0.019   1.526   0.010  0.00  0.00     0.033 C 
BRANCH   3   5
ATOM      5  C3  <0> d          -1.433  -0.534   0.013  0.00  0.00     0.034 C 
ATOM      6  C7  <0> d          -2.150  -0.042   1.273  0.00  0.00     0.238 C 
ATOM      7  N1  <0> d          -3.526  -0.552   1.287  0.00  0.00    -0.075 N 
ATOM      8  C6  <0> d          -3.515  -2.018   1.354  0.00  0.00     0.232 C 
ATOM      9  H12 <0> d          -4.001  -0.258   0.447  0.00  0.00     0.277 HD
ATOM     10  H18 <0> d          -4.011  -0.184   2.092  0.00  0.00     0.277 HD
ATOM     11  C5  <0> d          -2.851  -2.585   0.097  0.00  0.00     0.028 C 
ATOM     12  C4  <0> d          -1.413  -2.065   0.007  0.00  0.00     0.010 C 
ENDBRANCH   3   5
ENDBRANCH   1   3
BRANCH   1  13
ATOM     13  S1  <0> d           2.300  -0.849  -1.146  0.00  0.00     0.267 S 
ATOM     14  O1  <0> d           2.660  -1.296  -2.446  0.00  0.00    -0.200 OA
ATOM     15  O2  <0> d           2.947   0.245  -0.511  0.00  0.00    -0.200 OA
BRANCH  13  16
ATOM     16  C8  <0> d           2.478  -2.233  -0.071  0.00  0.00     0.137 A 
ATOM     17  S2  <0> d           1.220  -3.127   0.828  0.00  0.00    -0.087 SA
ATOM     18  C11 <0> d           2.281  -4.324   1.621  0.00  0.00     0.052 A 
ATOM     19  C10 <0> d           3.504  -3.964   1.161  0.00  0.00     0.028 A 
ATOM     20  C9  <0> d           3.605  -2.892   0.294  0.00  0.00     0.041 A 
ATOM     21 Br1  <0> d           5.290  -2.354  -0.374  0.00  0.00    -0.049 Br
ENDBRANCH  13  16
ENDBRANCH   1  13
TORSDOF 4
