REMARK  2 active torsions:
REMARK  status: ('A' for Active; 'I' for Inactive)
REMARK    1  A    between atoms: C5_5  and  N1_9 
REMARK    2  A    between atoms: C15_21  and  N4_27 
ROOT
ATOM      1  N1  <0> d          -2.429   1.040   0.020  0.00  0.00    -0.253 N 
ATOM      2  C9  <0> d          -2.408  -0.337  -0.092  0.00  0.00     0.106 A 
ATOM      3  C10 <0> d          -3.587  -1.018  -0.082  0.00  0.00     0.075 A 
ATOM      4  C11 <0> d          -4.793  -0.303   0.033  0.00  0.00     0.260 A 
ATOM      5  O1  <0> d          -5.857  -0.897   0.041  0.00  0.00    -0.267 OA
ATOM      6  N2  <0> d          -4.767   1.039   0.135  0.00  0.00    -0.274 N 
ATOM      7  H1  <0> d          -5.624   1.549   0.210  0.00  0.00     0.173 HD
ATOM      8  C12 <0> d          -3.594   1.699   0.136  0.00  0.00     0.335 A 
ATOM      9  O2  <0> d          -3.589   2.911   0.239  0.00  0.00    -0.246 OA
ATOM     10  C13 <0> d          -3.635  -2.520  -0.189  0.00  0.00     0.284 C 
ATOM     11  C14 <0> d          -1.257  -2.385   0.132  0.00  0.00     0.331 C 
ATOM     12  N3  <0> d          -1.198  -0.962  -0.216  0.00  0.00    -0.254 NA
ATOM     13  H15 <0> d          -0.816  -0.832  -1.141  0.00  0.00     0.130 HD
ATOM     14  N4  <0> d          -2.329  -3.008  -0.665  0.00  0.00    -0.051 N 
ATOM     15  H25 <0> d          -2.211  -2.748  -1.652  0.00  0.00     0.282 HD
ENDROOT
BRANCH   1  16
ATOM     16  C5  <0> d          -1.224   1.754   0.017  0.00  0.00     0.045 A 
ATOM     17  C4  <0> d          -0.694   2.220  -1.179  0.00  0.00     0.031 A 
ATOM     18  C3  <0> d           0.491   2.929  -1.177  0.00  0.00     0.009 A 
ATOM     19  C2  <0> d           1.153   3.171   0.013  0.00  0.00    -0.056 A 
ATOM     20  C1  <0> d           2.445   3.946   0.012  0.00  0.00     0.049 C 
ATOM     21  C7  <0> d           0.630   2.704   1.205  0.00  0.00    -0.054 A 
ATOM     22  C6  <0> d          -0.555   1.994   1.210  0.00  0.00     0.037 A 
ATOM     23  C8  <0> d           1.354   2.969   2.500  0.00  0.00     0.049 C 
ENDBRANCH   1  16
BRANCH  14  24
ATOM     24  C15 <0> d          -2.263  -4.484  -0.544  0.00  0.00     0.190 C 
ATOM     25  C19 <0> d          -0.915  -4.989  -1.087  0.00  0.00     0.033 C 
ATOM     26  C18 <0> d          -0.209  -5.705   0.082  0.00  0.00     0.002 C 
ATOM     27  C17 <0> d          -1.365  -6.120   1.026  0.00  0.00     0.002 C 
ATOM     28  C16 <0> d          -2.331  -4.912   0.936  0.00  0.00     0.033 C 
ENDBRANCH  14  24
TORSDOF 2
