REMARK  5 active torsions:
REMARK  status: ('A' for Active; 'I' for Inactive)
REMARK    1  A    between atoms: C3_5  and  N3_7 
REMARK       I    between atoms: N3_7  and  C4_8 
REMARK    2  A    between atoms: C4_8  and  C5_10 
REMARK    3  A    between atoms: C5_10  and  C6_11 
REMARK    4  A    between atoms: C6_11  and  S2_12 
REMARK    5  A    between atoms: S2_12  and  C7_15 
ROOT
ATOM      1  C5  <0> d           0.093  -6.325   0.415  0.00  0.00     0.118 C 
ENDROOT
BRANCH   1   2
ATOM      2  C4  <0> d           0.071  -4.889  -0.043  0.00  0.00     0.224 C 
ATOM      3  N3  <0> d           0.060  -3.893   0.865  0.00  0.00    -0.304 N 
ATOM      4  H4  <0> d           0.067  -4.100   1.813  0.00  0.00     0.171 HD
ATOM      5  O1  <0> d           0.063  -4.630  -1.227  0.00  0.00    -0.273 OA
BRANCH   3   6
ATOM      6  C3  <0> d           0.040  -2.568   0.443  0.00  0.00     0.196 A 
ATOM      7  N2  <0> d           0.028  -2.086  -0.784  0.00  0.00    -0.123 NA
ATOM      8  N1  <0> d           0.010  -0.844  -1.014  0.00  0.00    -0.145 NA
ATOM      9  C2  <0> d           0.002  -0.004   0.002  0.00  0.00     0.097 A 
ATOM     10  C1  <0> d          -0.018   1.503   0.010  0.00  0.00     0.081 C 
ATOM     11  S1  <0> d           0.031  -1.158   1.367  0.00  0.00    -0.034 SA
ENDBRANCH   3   6
ENDBRANCH   1   2
BRANCH   1  12
ATOM     12  C6  <0> d           0.102  -7.248  -0.805  0.00  0.00     0.155 C 
BRANCH  12  13
ATOM     13  S2  <0> d           0.128  -8.977  -0.255  0.00  0.00     0.176 S 
ATOM     14  O2  <0> d           1.369  -9.272   0.371  0.00  0.00    -0.223 OA
ATOM     15  O3  <0> d          -1.099  -9.307   0.380  0.00  0.00    -0.223 OA
BRANCH  13  16
ATOM     16  C7  <0> d           0.136  -9.925  -1.740  0.00  0.00     0.059 A 
ATOM     17  C12 <0> d           1.337 -10.280  -2.326  0.00  0.00     0.023 A 
ATOM     18  C11 <0> d           1.343 -11.027  -3.489  0.00  0.00     0.002 A 
ATOM     19  C10 <0> d           0.149 -11.412  -4.070  0.00  0.00     0.000 A 
ATOM     20  C9  <0> d          -1.051 -11.053  -3.486  0.00  0.00     0.002 A 
ATOM     21  C8  <0> d          -1.058 -10.309  -2.321  0.00  0.00     0.023 A 
ENDBRANCH  13  16
ENDBRANCH  12  13
ENDBRANCH   1  12
TORSDOF 5
