REMARK  6 active torsions:
REMARK  status: ('A' for Active; 'I' for Inactive)
REMARK    1  A    between atoms: C4_5  and  S1_7 
REMARK    2  A    between atoms: S1_7  and  C6_8 
REMARK    3  A    between atoms: C9_11  and  C12_14 
REMARK       I    between atoms: C12_14  and  N2_16 
REMARK    4  A    between atoms: N2_16  and  C13_17 
REMARK    5  A    between atoms: C17_21  and  S2_23 
REMARK    6  A    between atoms: S2_23  and  N3_26 
ROOT
ATOM      1  C12 <0> d           6.761  -5.363   0.367  0.00  0.00     0.256 C 
ATOM      2  O1  <0> d           7.276  -6.317   0.917  0.00  0.00    -0.267 OA
ATOM      3  N2  <0> d           7.522  -4.488  -0.319  0.00  0.00    -0.323 N 
ATOM      4  H9  <0> d           7.123  -3.688  -0.694  0.00  0.00     0.169 HD
ENDROOT
BRANCH   3   5
ATOM      5  C13 <0> d           8.888  -4.734  -0.490  0.00  0.00     0.036 A 
ATOM      6  C18 <0> d           9.351  -6.038  -0.611  0.00  0.00     0.054 A 
ATOM      7  C17 <0> d          10.700  -6.278  -0.786  0.00  0.00     0.083 A 
ATOM      8  C16 <0> d          11.591  -5.222  -0.829  0.00  0.00     0.025 A 
ATOM      9  C15 <0> d          11.134  -3.922  -0.703  0.00  0.00     0.004 A 
ATOM     10  C14 <0> d           9.786  -3.675  -0.534  0.00  0.00     0.029 A 
BRANCH   7  11
ATOM     11  S2  <0> d          11.286  -7.931  -0.948  0.00  0.00     0.284 S 
ATOM     12  O2  <0> d          10.193  -8.706  -1.421  0.00  0.00    -0.198 OA
ATOM     13  O3  <0> d          12.524  -7.857  -1.642  0.00  0.00    -0.198 OA
BRANCH  11  14
ATOM     14  N3  <0> d          11.630  -8.480   0.577  0.00  0.00    -0.147 NA
ATOM     15  C19 <0> d          12.083  -9.680   0.745  0.00  0.00     0.113 C 
ATOM     16  C22 <0> d          12.435 -10.301   2.079  0.00  0.00     0.080 C 
ATOM     17  N4  <0> d          12.323 -10.582  -0.257  0.00  0.00    -0.378 N 
ATOM     18  C21 <0> d          12.967 -11.710   1.743  0.00  0.00     0.027 C 
ATOM     19  C20 <0> d          13.258 -11.609   0.229  0.00  0.00     0.121 C 
ATOM     20  H20 <0> d          11.937 -10.549  -1.147  0.00  0.00     0.160 HD
ENDBRANCH  11  14
ENDBRANCH   7  11
ENDBRANCH   3   5
BRANCH   1  21
ATOM     21  C9  <0> d           5.302  -5.163   0.451  0.00  0.00     0.032 A 
ATOM     22  C8  <0> d           4.510  -6.070   1.163  0.00  0.00     0.018 A 
ATOM     23  C7  <0> d           3.155  -5.881   1.240  0.00  0.00     0.020 A 
ATOM     24  C6  <0> d           2.566  -4.787   0.610  0.00  0.00     0.007 A 
ATOM     25  C11 <0> d           3.351  -3.885  -0.104  0.00  0.00     0.020 A 
ATOM     26  C10 <0> d           4.708  -4.066  -0.180  0.00  0.00     0.018 A 
BRANCH  24  27
ATOM     27  S1  <0> d           0.823  -4.548   0.711  0.00  0.00    -0.071 SA
BRANCH  27  28
ATOM     28  C4  <0> d           0.621  -3.455   2.078  0.00  0.00     0.097 A 
ATOM     29  N1  <0> d           1.670  -3.127   2.817  0.00  0.00    -0.254 NA
ATOM     30  C3  <0> d           1.562  -2.312   3.849  0.00  0.00     0.118 A 
ATOM     31  C2  <0> d           0.342  -1.768   4.197  0.00  0.00     0.019 A 
ATOM     32  C1  <0> d          -0.783  -2.087   3.448  0.00  0.00     0.004 A 
ATOM     33  C5  <0> d          -0.639  -2.944   2.372  0.00  0.00     0.039 A 
ENDBRANCH  27  28
ENDBRANCH  24  27
ENDBRANCH   1  21
TORSDOF 6
