REMARK  5 active torsions:
REMARK  status: ('A' for Active; 'I' for Inactive)
REMARK    1  A    between atoms: C7_10  and  C8_13 
REMARK    2  A    between atoms: C8_13  and  C9_14 
REMARK    3  A    between atoms: C9_14  and  C10_15 
REMARK       I    between atoms: C10_15  and  N3_17 
REMARK    4  A    between atoms: N3_17  and  C11_18 
REMARK    5  A    between atoms: C11_18  and  C13_20 
ROOT
ATOM      1  C8  <0> d           0.090  -3.361   4.627  0.00  0.00     0.088 C 
ENDROOT
BRANCH   1   2
ATOM      2  C7  <0> d           0.067  -2.430   3.442  0.00  0.00     0.109 A 
ATOM      3  N1  <0> d           0.051  -1.143   3.648  0.00  0.00    -0.196 NA
ATOM      4  C6  <0> d           0.030  -0.253   2.645  0.00  0.00     0.282 A 
ATOM      5  C5  <0> d           0.024  -0.745   1.249  0.00  0.00     0.075 A 
ATOM      6  O1  <0> d           0.016   0.945   2.879  0.00  0.00    -0.265 OA
ATOM      7  C2  <0> d           0.002  -0.004   0.002  0.00  0.00    -0.031 A 
ATOM      8  C4  <0> d           0.036  -2.139   1.112  0.00  0.00     0.092 A 
ATOM      9  C1  <0> d          -0.018   1.503   0.010  0.00  0.00     0.050 C 
ATOM     10  C3  <0> d           0.006  -0.677  -1.159  0.00  0.00    -0.012 A 
ATOM     11  S1  <0> d           0.031  -2.384  -0.644  0.00  0.00    -0.076 SA
ATOM     12  C18 <0> d          -0.008  -0.124  -2.561  0.00  0.00     0.057 C 
ATOM     13  N2  <0> d           0.052  -2.952   2.199  0.00  0.00    -0.338 N 
ATOM     14  H1  <0> d           0.064  -3.914   2.080  0.00  0.00     0.168 HD
ENDBRANCH   1   2
BRANCH   1  15
ATOM     15  C9  <0> d           0.091  -2.543   5.919  0.00  0.00     0.110 C 
BRANCH  15  16
ATOM     16  C10 <0> d           0.115  -3.474   7.104  0.00  0.00     0.218 C 
ATOM     17  O2  <0> d           0.129  -4.674   6.931  0.00  0.00    -0.274 OA
ATOM     18  N3  <0> d           0.119  -2.973   8.355  0.00  0.00    -0.353 N 
ATOM     19  H10 <0> d           0.107  -2.013   8.493  0.00  0.00     0.163 HD
BRANCH  18  20
ATOM     20  C11 <0> d           0.142  -3.878   9.506  0.00  0.00     0.115 C 
ATOM     21  C12 <0> d           1.587  -4.273   9.816  0.00  0.00     0.037 C 
BRANCH  20  22
ATOM     22  C13 <0> d          -0.457  -3.185  10.703  0.00  0.00    -0.018 A 
ATOM     23  C17 <0> d          -0.186  -1.852  10.947  0.00  0.00     0.125 A 
ATOM     24  N4  <0> d          -0.711  -1.236  11.988  0.00  0.00    -0.273 NA
ATOM     25  C16 <0> d          -1.500  -1.863  12.839  0.00  0.00     0.116 A 
ATOM     26  C15 <0> d          -1.811  -3.199  12.662  0.00  0.00     0.020 A 
ATOM     27  C14 <0> d          -1.282  -3.877  11.575  0.00  0.00     0.012 A 
ENDBRANCH  20  22
ENDBRANCH  18  20
ENDBRANCH  15  16
ENDBRANCH   1  15
TORSDOF 5
