REMARK  1 active torsions:
REMARK  status: ('A' for Active; 'I' for Inactive)
REMARK    1  A    between atoms: N2_13  and  C12_15 
ROOT
ATOM      1  C1  <0> d          -0.021   1.360   0.014  0.00  0.00     0.007 C 
ATOM      2  C2  <0> d           1.195   2.052   0.004  0.00  0.00     0.026 C 
ATOM      3  C3  <0> d           2.374   1.378  -0.044  0.00  0.00     0.020 C 
ATOM      4  N1  <0> d           2.388   0.028  -0.141  0.00  0.00    -0.317 N 
ATOM      5  C4  <0> d           1.231  -0.669  -0.033  0.00  0.00     0.247 C 
ATOM      6  O1  <0> d           1.263  -1.888   0.031  0.00  0.00    -0.268 OA
ATOM      7  C5  <0> d          -0.003  -0.004   0.007  0.00  0.00     0.074 C 
ATOM      8  C6  <0> d           3.602  -0.741  -0.420  0.00  0.00     0.138 C 
ATOM      9  C7  <0> d           4.865   0.033  -0.089  0.00  0.00     0.023 C 
ATOM     10  C8  <0> d           4.780   1.443  -0.673  0.00  0.00     0.020 C 
ATOM     11  C9  <0> d           3.646   2.191   0.031  0.00  0.00     0.054 C 
ATOM     12  C10 <0> d           4.016   2.342   1.517  0.00  0.00     0.136 C 
ATOM     13  N2  <0> d           4.185   0.987   2.066  0.00  0.00    -0.357 N 
ATOM     14  C11 <0> d           5.121   0.091   1.411  0.00  0.00     0.131 C 
ENDROOT
BRANCH  13  15
ATOM     15  C12 <0> d           3.486   0.591   3.149  0.00  0.00     0.167 C 
ATOM     16  S1  <0> d           2.485   1.706   3.977  0.00  0.00    -0.041 SA
ATOM     17  N3  <0> d           3.575  -0.683   3.579  0.00  0.00    -0.376 N 
ATOM     18  H14 <0> d           4.198  -1.295   3.156  0.00  0.00     0.158 HD
ATOM     19  H15 <0> d           3.017  -0.988   4.312  0.00  0.00     0.158 HD
ENDBRANCH  13  15
TORSDOF 1
