REMARK  6 active torsions:
REMARK  status: ('A' for Active; 'I' for Inactive)
REMARK    1  A    between atoms: C2_2  and  C3_3 
REMARK    2  A    between atoms: C3_3  and  N1_5 
REMARK    3  A    between atoms: N1_5  and  C5_6 
REMARK    4  A    between atoms: C6_7  and  N6_21 
REMARK    5  A    between atoms: C7_8  and  N4_12 
REMARK    6  A    between atoms: N4_12  and  C10_14 
ROOT
ATOM      1  C5  <0> d           3.148  -1.098  -3.470  0.00  0.00     0.155 A 
ATOM      2  C6  <0> d           4.507  -0.778  -3.491  0.00  0.00     0.118 A 
ATOM      3  C7  <0> d           4.866   0.568  -3.567  0.00  0.00     0.157 A 
ATOM      4  N2  <0> d           3.908   1.490  -3.617  0.00  0.00    -0.222 NA
ATOM      5  C8  <0> d           2.636   1.146  -3.595  0.00  0.00     0.237 A 
ATOM      6  N3  <0> d           2.254  -0.114  -3.528  0.00  0.00    -0.222 NA
ENDROOT
BRANCH   3   7
ATOM      7  N4  <0> d           6.205   0.940  -3.591  0.00  0.00    -0.363 N 
ATOM      8  C9  <0> d           6.945   1.093  -2.336  0.00  0.00     0.152 C 
BRANCH   7   9
ATOM      9  C10 <0> d           6.877   1.180  -4.871  0.00  0.00     0.088 C 
ATOM     10  C14 <0> d           7.389   2.623  -4.918  0.00  0.00     0.053 C 
ATOM     11  C13 <0> d           8.157   2.843  -6.223  0.00  0.00     0.236 C 
ATOM     12  N5  <0> d           9.294   1.916  -6.288  0.00  0.00    -0.075 N 
ATOM     13  C12 <0> d           8.806   0.532  -6.315  0.00  0.00     0.236 C 
ATOM     14  C15 <0> d          10.073   2.183  -7.504  0.00  0.00     0.269 C 
ATOM     15  H29 <0> d           9.881   2.048  -5.478  0.00  0.00     0.279 HD
ATOM     16  C11 <0> d           8.063   0.223  -5.014  0.00  0.00     0.053 C 
ENDBRANCH   7   9
ENDBRANCH   3   7
BRANCH   2  17
ATOM     17  N6  <0> d           5.485  -1.785  -3.437  0.00  0.00    -0.393 N 
ATOM     18  H27 <0> d           5.223  -2.710  -3.310  0.00  0.00     0.156 HD
ATOM     19  H28 <0> d           6.423  -1.554  -3.525  0.00  0.00     0.156 HD
ENDBRANCH   2  17
BRANCH   1  20
ATOM     20  N1  <0> d           2.735  -2.423  -3.396  0.00  0.00    -0.369 N 
ATOM     21  H10 <0> d           3.393  -3.134  -3.353  0.00  0.00     0.161 HD
BRANCH  20  22
ATOM     22  C3  <0> d           1.306  -2.745  -3.381  0.00  0.00     0.078 C 
ATOM     23  C4  <0> d           0.784  -2.817  -4.817  0.00  0.00     0.032 C 
BRANCH  22  24
ATOM     24  C2  <0> d           1.095  -4.096  -2.693  0.00  0.00     0.020 C 
ATOM     25  C1  <0> d           1.502  -3.988  -1.222  0.00  0.00     0.007 C 
ENDBRANCH  22  24
ENDBRANCH  20  22
ENDBRANCH   1  20
TORSDOF 6
