REMARK  2 active torsions:
REMARK  status: ('A' for Active; 'I' for Inactive)
REMARK    1  A    between atoms: C2_2  and  C9_12 
REMARK    2  A    between atoms: C10_14  and  C12_17 
ROOT
ATOM      1  C1  <0> d          -0.011   1.383  -0.116  0.00  0.00     0.049 A 
ATOM      2  C2  <0> d           1.170   2.092   0.002  0.00  0.00    -0.013 A 
ATOM      3  C3  <0> d           2.373   1.421   0.113  0.00  0.00     0.037 A 
ATOM      4  C4  <0> d           2.399   0.038   0.104  0.00  0.00     0.070 A 
ATOM      5  C5  <0> d           1.217  -0.679  -0.016  0.00  0.00     0.123 A 
ATOM      6  C6  <0> d           0.007  -0.003  -0.124  0.00  0.00     0.104 A 
ATOM      7  O1  <0> d          -1.164  -0.687  -0.234  0.00  0.00    -0.346 OA
ATOM      8  C7  <0> d          -1.073  -2.064  -0.614  0.00  0.00     0.202 C 
ATOM      9  C8  <0> d           0.027  -2.723   0.230  0.00  0.00     0.202 C 
ATOM     10  O2  <0> d           1.259  -2.039  -0.028  0.00  0.00    -0.344 OA
ATOM     11 Cl1  <0> d           3.913  -0.802   0.241  0.00  0.00    -0.081 Cl
ENDROOT
BRANCH   2  12
ATOM     12  C9  <0> d           1.145   3.599   0.010  0.00  0.00     0.281 C 
ATOM     13  S1  <0> d           1.739   4.254   1.625  0.00  0.00    -0.129 SA
ATOM     14  C11 <0> d           3.147   5.276   0.995  0.00  0.00     0.120 C 
ATOM     15  C10 <0> d           2.699   5.432  -0.489  0.00  0.00     0.296 C 
ATOM     16  N1  <0> d           2.139   4.148  -0.949  0.00  0.00    -0.043 N 
ATOM     17  H9  <0> d           2.890   3.483  -1.060  0.00  0.00     0.280 HD
ATOM     18  H12 <0> d           1.691   4.287  -1.842  0.00  0.00     0.280 HD
BRANCH  15  19
ATOM     19  C12 <0> d           3.888   5.801  -1.339  0.00  0.00     0.205 C 
ATOM     20  O3  <0> d           4.384   6.910  -1.244  0.00  0.00    -0.646 OA
ATOM     21  O4  <0> d           4.353   4.989  -2.121  0.00  0.00    -0.646 OA
ENDBRANCH  15  19
ENDBRANCH   2  12
TORSDOF 2
