REMARK  6 active torsions:
REMARK  status: ('A' for Active; 'I' for Inactive)
REMARK    1  A    between atoms: C2_2  and  N1_3 
REMARK       I    between atoms: N1_3  and  C3_4 
REMARK    2  A    between atoms: C3_4  and  C4_6 
REMARK    3  A    between atoms: C4_6  and  N2_7 
REMARK    4  A    between atoms: C7_10  and  N4_12 
REMARK    5  A    between atoms: N4_12  and  S1_13 
REMARK    6  A    between atoms: S1_13  and  C8_16 
ROOT
ATOM      1  S1  <0> d          -1.129  -6.808  -2.642  0.00  0.00     0.285 S 
ATOM      2  O2  <0> d          -1.965  -6.222  -3.631  0.00  0.00    -0.198 OA
ATOM      3  O3  <0> d           0.083  -6.203  -2.212  0.00  0.00    -0.198 OA
ENDROOT
BRANCH   1   4
ATOM      4  N4  <0> d          -2.064  -7.008  -1.290  0.00  0.00    -0.138 NA
BRANCH   4   5
ATOM      5  C7  <0> d          -2.550  -5.889  -0.604  0.00  0.00     0.183 A 
ATOM      6  C6  <0> d          -3.350  -5.912   0.550  0.00  0.00     0.073 A 
ATOM      7  C5  <0> d          -3.606  -4.632   0.903  0.00  0.00     0.116 A 
ATOM      8  N2  <0> d          -2.994  -3.826   0.010  0.00  0.00    -0.270 N 
ATOM      9  N3  <0> d          -2.342  -4.635  -0.929  0.00  0.00    -0.152 NA
BRANCH   8  10
ATOM     10  C4  <0> d          -3.014  -2.361   0.018  0.00  0.00     0.253 C 
BRANCH  10  11
ATOM     11  C3  <0> d          -1.601  -1.839   0.007  0.00  0.00     0.237 C 
ATOM     12  N1  <0> d          -1.372  -0.511   0.012  0.00  0.00    -0.360 N 
ATOM     13  H6  <0> d          -2.118   0.109   0.023  0.00  0.00     0.162 HD
ATOM     14  O1  <0> d          -0.668  -2.615  -0.006  0.00  0.00    -0.272 OA
BRANCH  12  15
ATOM     15  C2  <0> d           0.002  -0.004   0.002  0.00  0.00     0.118 C 
ATOM     16  C1  <0> d          -0.019   1.526   0.010  0.00  0.00     0.026 C 
ENDBRANCH  12  15
ENDBRANCH  10  11
ENDBRANCH   8  10
ENDBRANCH   4   5
ENDBRANCH   1   4
BRANCH   1  17
ATOM     17  C8  <0> d          -0.709  -8.416  -3.227  0.00  0.00     0.084 A 
ATOM     18  C13 <0> d          -1.530  -9.053  -4.138  0.00  0.00     0.065 A 
ATOM     19  C12 <0> d          -1.198 -10.316  -4.603  0.00  0.00     0.109 A 
ATOM     20  C11 <0> d          -0.041 -10.941  -4.140  0.00  0.00     0.073 A 
ATOM     21  O4  <0> d          -1.792 -11.164  -5.478  0.00  0.00    -0.259 OA
ATOM     22  C10 <0> d           0.775 -10.299  -3.222  0.00  0.00     0.034 A 
ATOM     23  N5  <0> d           0.022 -12.182  -4.773  0.00  0.00    -0.295 N 
ATOM     24  C9  <0> d           0.439  -9.038  -2.768  0.00  0.00     0.028 A 
ATOM     25  C14 <0> d          -1.056 -12.282  -5.577  0.00  0.00     0.372 A 
ATOM     26  C15 <0> d           1.068 -13.193  -4.597  0.00  0.00     0.162 C 
ATOM     27  O5  <0> d          -1.320 -13.237  -6.282  0.00  0.00    -0.238 OA
ENDBRANCH   1  17
TORSDOF 6
