REMARK  6 active torsions:
REMARK  status: ('A' for Active; 'I' for Inactive)
REMARK    1  A    between atoms: N3_7  and  C6_10 
REMARK    2  A    between atoms: C6_10  and  C7_11 
REMARK    3  A    between atoms: C7_11  and  C8_12 
REMARK    4  A    between atoms: C8_12  and  N4_13 
REMARK       I    between atoms: N4_13  and  C9_14 
REMARK       I    between atoms: C9_14  and  N5_16 
REMARK    5  A    between atoms: N6_19  and  C14_22 
REMARK    6  A    between atoms: C14_22  and  C15_23 
ROOT
ATOM      1  N4  <0> d           4.975  -5.469  -3.010  0.00  0.00    -0.343 N 
ATOM      2  C9  <0> d           5.504  -6.558  -3.604  0.00  0.00     0.318 C 
ATOM      3  O2  <0> d           5.052  -6.954  -4.661  0.00  0.00    -0.247 OA
ATOM      4  N5  <0> d           6.534  -7.207  -3.026  0.00  0.00    -0.331 N 
ATOM      5  C10 <0> d           7.021  -6.816  -1.694  0.00  0.00     0.158 C 
ATOM      6  C11 <0> d           8.538  -6.618  -1.769  0.00  0.00     0.292 C 
ATOM      7  N6  <0> d           9.160  -7.826  -2.328  0.00  0.00     0.094 N 
ATOM      8  C12 <0> d           8.711  -8.067  -3.706  0.00  0.00     0.292 C 
ATOM      9  C13 <0> d           7.197  -8.329  -3.707  0.00  0.00     0.158 C 
ATOM     10  H14 <0> d           5.284  -5.197  -2.132  0.00  0.00     0.164 HD
ENDROOT
BRANCH   1  11
ATOM     11  C8  <0> d           3.934  -4.696  -3.692  0.00  0.00     0.126 C 
BRANCH  11  12
ATOM     12  C7  <0> d           3.510  -3.521  -2.808  0.00  0.00     0.042 C 
BRANCH  12  13
ATOM     13  C6  <0> d           2.423  -2.714  -3.520  0.00  0.00     0.158 C 
BRANCH  13  14
ATOM     14  N3  <0> d           2.017  -1.589  -2.674  0.00  0.00    -0.218 N 
ATOM     15  N2  <0> d           0.993  -1.597  -1.715  0.00  0.00    -0.154 NA
ATOM     16  C4  <0> d           0.932  -0.425  -1.184  0.00  0.00     0.130 A 
ATOM     17  N1  <0> d           1.882   0.382  -1.776  0.00  0.00    -0.284 N 
ATOM     18  C19 <0> d           0.014   0.035  -0.075  0.00  0.00     0.081 C 
ATOM     19  C3  <0> d           2.073   1.801  -1.455  0.00  0.00     0.135 C 
ATOM     20  C5  <0> d           2.559  -0.351  -2.674  0.00  0.00     0.346 A 
ATOM     21  C2  <0> d           1.441   2.084  -0.088  0.00  0.00     0.021 C 
ATOM     22  C1  <0> d          -0.002   1.570  -0.078  0.00  0.00     0.009 C 
ATOM     23  O1  <0> d           3.491   0.028  -3.361  0.00  0.00    -0.245 OA
ENDBRANCH  13  14
ENDBRANCH  12  13
ENDBRANCH  11  12
ENDBRANCH   1  11
BRANCH   7  24
ATOM     24  C14 <0> d          10.625  -7.745  -2.258  0.00  0.00     0.304 C 
BRANCH  24  25
ATOM     25  C15 <0> d          11.081  -7.987  -0.818  0.00  0.00     0.149 C 
ATOM     26  O3  <0> d          10.691  -9.301  -0.400  0.00  0.00    -0.384 OA
ATOM     27  C18 <0> d          11.859 -10.083  -0.095  0.00  0.00     0.168 C 
ATOM     28  C17 <0> d          12.957  -9.050   0.261  0.00  0.00     0.029 C 
ATOM     29  C16 <0> d          12.620  -7.907  -0.735  0.00  0.00     0.036 C 
ENDBRANCH  24  25
ENDBRANCH   7  24
TORSDOF 6
