REMARK  14 active torsions:
REMARK  status: ('A' for Active; 'I' for Inactive)
REMARK    1  A    between atoms: C2_2  and  C3_3 
REMARK    2  A    between atoms: C4_4  and  C5_5 
REMARK    3  A    between atoms: C5_5  and  C6_6 
REMARK    4  A    between atoms: C6_6  and  C7_7 
REMARK    5  A    between atoms: C6_6  and  O5_25 
REMARK    6  A    between atoms: C8_8  and  C9_9 
REMARK    7  A    between atoms: C10_10  and  O4_24 
REMARK    8  A    between atoms: C12_12  and  O3_23 
REMARK    9  A    between atoms: C13_13  and  C14_14 
REMARK   10  A    between atoms: C14_14  and  C15_15 
REMARK   11  A    between atoms: C16_16  and  C17_17 
REMARK   12  A    between atoms: C17_17  and  C18_18 
REMARK   13  A    between atoms: C18_18  and  C19_19 
REMARK   14  A    between atoms: C19_19  and  C20_20 
ROOT
ATOM      1  C9  <0> d           2.532   2.242   1.223  0.00  0.00     0.043 C 
ATOM      2  C10 <0> d           2.628   2.707   2.689  0.00  0.00     0.128 C 
ATOM      3  C11 <0> d           1.352   2.204   3.395  0.00  0.00     0.064 C 
ATOM      4  C12 <0> d           0.327   2.027   2.247  0.00  0.00     0.125 C 
ATOM      5  C13 <0> d           1.199   1.477   1.092  0.00  0.00     0.028 C 
ENDROOT
BRANCH   1   6
ATOM      6  C8  <0> d           2.535   3.435   0.302  0.00  0.00    -0.021 C 
ATOM      7  C7  <0> d           3.445   3.537  -0.635  0.00  0.00     0.001 C 
BRANCH   7   8
ATOM      8  C6  <0> d           3.448   4.730  -1.555  0.00  0.00     0.144 C 
BRANCH   8   9
ATOM      9  C5  <0> d           4.775   5.479  -1.415  0.00  0.00     0.062 C 
BRANCH   9  10
ATOM     10  C4  <0> d           4.731   6.738  -2.242  0.00  0.00    -0.028 C 
ATOM     11  C3  <0> d           5.000   7.895  -1.688  0.00  0.00    -0.031 C 
BRANCH  11  12
ATOM     12  C2  <0> d           5.512   7.952  -0.272  0.00  0.00     0.022 C 
ATOM     13  C1  <0> d           6.814   8.755  -0.233  0.00  0.00     0.009 C 
ENDBRANCH  11  12
ENDBRANCH   9  10
ENDBRANCH   8   9
BRANCH   8  14
ATOM     14  O5  <0> d           3.290   4.291  -2.906  0.00  0.00    -0.391 OA
ATOM     15  H31 <0> d           2.390   3.731  -3.200  0.00  0.00     0.210 HD
ENDBRANCH   8  14
ENDBRANCH   7   8
ENDBRANCH   1   6
BRANCH   5  16
ATOM     16  C14 <0> d           0.544   1.770  -0.260  0.00  0.00     0.034 C 
BRANCH  16  17
ATOM     17  C15 <0> d          -0.715   0.953  -0.395  0.00  0.00    -0.030 C 
ATOM     18  C16 <0> d          -1.831   1.528  -0.770  0.00  0.00    -0.031 C 
BRANCH  18  19
ATOM     19  C17 <0> d          -1.828   2.972  -1.200  0.00  0.00     0.027 C 
BRANCH  19  20
ATOM     20  C18 <0> d          -2.457   3.091  -2.590  0.00  0.00     0.014 C 
BRANCH  20  21
ATOM     21  C19 <0> d          -2.453   4.558  -3.027  0.00  0.00     0.113 C 
BRANCH  21  22
ATOM     22  C20 <0> d          -3.072   4.675  -4.396  0.00  0.00     0.172 C 
ATOM     23  O1  <0> d          -3.475   3.688  -4.964  0.00  0.00    -0.648 OA
ATOM     24  O2  <0> d          -3.177   5.877  -4.984  0.00  0.00    -0.648 OA
ENDBRANCH  21  22
ENDBRANCH  20  21
ENDBRANCH  19  20
ENDBRANCH  18  19
ENDBRANCH  16  17
ENDBRANCH   5  16
BRANCH   2  25
ATOM     25  O4  <0> d           3.785   2.139   3.306  0.00  0.00    -0.395 OA
ATOM     26  H30 <0> d           4.013   2.364   4.358  0.00  0.00     0.210 HD
ENDBRANCH   2  25
BRANCH   4  27
ATOM     27  O3  <0> d          -0.254   3.283   1.890  0.00  0.00    -0.395 OA
ATOM     28  H29 <0> d          -1.005   3.333   1.088  0.00  0.00     0.210 HD
ENDBRANCH   4  27
TORSDOF 14
