REMARK  4 active torsions:
REMARK  status: ('A' for Active; 'I' for Inactive)
REMARK    1  A    between atoms: C4_5  and  C6_7 
REMARK    2  A    between atoms: C6_7  and  N2_8 
REMARK    3  A    between atoms: N2_8  and  C7_9 
REMARK    4  A    between atoms: C9_11  and  C11_13 
ROOT
ATOM      1  C7  <0> d           1.250  -5.352   1.886  0.00  0.00     0.187 C 
ATOM      2  C8  <0> d           1.926  -5.542   3.254  0.00  0.00     0.042 C 
ATOM      3  C9  <0> d           1.933  -7.050   2.953  0.00  0.00     0.022 C 
ATOM      4  C10 <0> d           1.914  -6.673   1.462  0.00  0.00     0.042 C 
ENDROOT
BRANCH   1   5
ATOM      5  N2  <0> d           1.740  -4.182   1.145  0.00  0.00    -0.070 N 
ATOM      6  H13 <0> d           1.634  -4.343   0.154  0.00  0.00     0.277 HD
ATOM      7  H24 <0> d           2.714  -4.033   1.359  0.00  0.00     0.277 HD
BRANCH   5   8
ATOM      8  C6  <0> d           0.965  -2.996   1.534  0.00  0.00     0.239 C 
BRANCH   8   9
ATOM      9  C4  <0> d           1.476  -1.778   0.762  0.00  0.00     0.039 C 
ATOM     10  C3  <0> d           1.175  -1.934  -0.746  0.00  0.00     0.035 C 
ATOM     11  C2  <0> d           0.770  -0.499  -1.169  0.00  0.00     0.234 C 
ATOM     12  N1  <0> d           0.002  -0.004   0.002  0.00  0.00    -0.074 N 
ATOM     13  C1  <0> d          -0.018   1.465   0.010  0.00  0.00     0.269 C 
ATOM     14  C5  <0> d           0.715  -0.511   1.195  0.00  0.00     0.240 C 
ATOM     15  H25 <0> d          -0.940  -0.365  -0.020  0.00  0.00     0.279 HD
ENDBRANCH   8   9
ENDBRANCH   5   8
ENDBRANCH   1   5
BRANCH   3  16
ATOM     16  C11 <0> d           3.200  -7.745   3.383  0.00  0.00    -0.053 A 
ATOM     17  C16 <0> d           3.144  -8.771   4.307  0.00  0.00     0.026 A 
ATOM     18  C15 <0> d           4.306  -9.413   4.698  0.00  0.00     0.011 A 
ATOM     19  C14 <0> d           5.523  -9.020   4.172  0.00  0.00     0.019 A 
ATOM     20 Br1  <0> d           4.230 -10.823   5.956  0.00  0.00    -0.051 Br
ATOM     21  C13 <0> d           5.578  -7.990   3.252  0.00  0.00     0.002 A 
ATOM     22  C12 <0> d           4.417  -7.353   2.857  0.00  0.00     0.007 A 
ENDBRANCH   3  16
TORSDOF 4
