REMARK  3 active torsions:
REMARK  status: ('A' for Active; 'I' for Inactive)
REMARK    1  A    between atoms: C5_5  and  N1_8 
REMARK       I    between atoms: N1_8  and  C9_10 
REMARK    2  A    between atoms: C9_10  and  C10_12 
REMARK    3  A    between atoms: C10_12  and  N2_13 
ROOT
ATOM      1  N2  <0> d          -3.233  -3.638   5.230  0.00  0.00    -0.259 N 
ATOM      2  C11 <0> d          -4.463  -4.148   5.013  0.00  0.00     0.261 A 
ATOM      3  O2  <0> d          -5.287  -3.762   4.211  0.00  0.00    -0.270 OA
ATOM      4  C12 <0> d          -4.598  -5.302   5.979  0.00  0.00     0.148 A 
ATOM      5  C13 <0> d          -5.752  -5.054   6.946  0.00  0.00     0.073 C 
ATOM      6  C14 <0> d          -6.022  -6.352   7.719  0.00  0.00     0.179 C 
ATOM      7  O3  <0> d          -6.448  -7.351   6.792  0.00  0.00    -0.350 OA
ATOM      8  C15 <0> d          -5.702  -7.543   5.673  0.00  0.00     0.078 A 
ATOM      9  C16 <0> d          -4.797  -6.590   5.231  0.00  0.00     0.013 A 
ATOM     10  C17 <0> d          -4.061  -6.824   4.082  0.00  0.00     0.013 A 
ATOM     11  C18 <0> d          -4.222  -8.000   3.377  0.00  0.00     0.001 A 
ATOM     12  C19 <0> d          -5.122  -8.953   3.817  0.00  0.00     0.003 A 
ATOM     13  C20 <0> d          -5.860  -8.726   4.961  0.00  0.00     0.037 A 
ATOM     14  N3  <0> d          -3.318  -5.317   6.698  0.00  0.00    -0.320 N 
ATOM     15  C21 <0> d          -2.583  -4.311   6.187  0.00  0.00     0.326 A 
ATOM     16  O4  <0> d          -1.456  -4.041   6.556  0.00  0.00    -0.247 OA
ATOM     17  H27 <0> d          -3.052  -5.932   7.399  0.00  0.00     0.165 HD
ENDROOT
BRANCH   1  18
ATOM     18  C10 <0> d          -2.677  -2.493   4.504  0.00  0.00     0.239 C 
BRANCH  18  19
ATOM     19  C9  <0> d          -1.954  -2.981   3.275  0.00  0.00     0.238 C 
ATOM     20  N1  <0> d          -1.358  -2.098   2.449  0.00  0.00    -0.350 N 
ATOM     21  C8  <0> d          -1.414  -0.664   2.746  0.00  0.00     0.153 C 
ATOM     22  O1  <0> d          -1.908  -4.167   3.030  0.00  0.00    -0.272 OA
BRANCH  20  23
ATOM     23  C5  <0> d          -0.655  -2.572   1.255  0.00  0.00     0.086 C 
ATOM     24  C4  <0> d          -1.631  -3.339   0.359  0.00  0.00     0.026 C 
ATOM     25  C3  <0> d          -2.776  -2.414  -0.056  0.00  0.00     0.006 C 
ATOM     26  C2  <0> d          -2.213  -1.217  -0.825  0.00  0.00    -0.019 C 
ATOM     27  C1  <0> d          -3.358  -0.292  -1.240  0.00  0.00     0.010 C 
ATOM     28  C7  <0> d          -1.237  -0.450   0.070  0.00  0.00     0.006 C 
ATOM     29  C6  <0> d          -0.091  -1.375   0.486  0.00  0.00     0.026 C 
ENDBRANCH  20  23
ENDBRANCH  18  19
ENDBRANCH   1  18
TORSDOF 3
