REMARK  4 active torsions:
REMARK  status: ('A' for Active; 'I' for Inactive)
REMARK    1  A    between atoms: O1_2  and  C2_3 
REMARK    2  A    between atoms: C4_5  and  C8_10 
REMARK    3  A    between atoms: C7_8  and  O2_9 
REMARK    4  A    between atoms: N2_17  and  C13_20 
ROOT
ATOM      1  C8  <0> d           4.880   5.579  -0.216  0.00  0.00     0.034 C 
ATOM      2  C9  <0> d           4.897   4.295   0.293  0.00  0.00     0.101 A 
ATOM      3  C10 <0> d           6.062   3.407   0.108  0.00  0.00     0.265 A 
ATOM      4  O3  <0> d           7.045   3.785  -0.501  0.00  0.00    -0.267 OA
ATOM      5  N1  <0> d           6.007   2.166   0.632  0.00  0.00    -0.274 N 
ATOM      6  C11 <0> d           4.932   1.738   1.309  0.00  0.00     0.337 A 
ATOM      7  O4  <0> d           4.949   0.610   1.761  0.00  0.00    -0.246 OA
ATOM      8  N2  <0> d           3.838   2.485   1.511  0.00  0.00    -0.229 N 
ATOM      9  C12 <0> d           3.750   3.748   1.045  0.00  0.00     0.272 A 
ATOM     10  O5  <0> d           2.754   4.418   1.239  0.00  0.00    -0.266 OA
ATOM     11  H9  <0> d           6.764   1.570   0.520  0.00  0.00     0.173 HD
ENDROOT
BRANCH   1  12
ATOM     12  C4  <0> d           3.639   6.354  -0.204  0.00  0.00    -0.032 A 
ATOM     13  C3  <0> d           2.437   5.765  -0.622  0.00  0.00     0.051 A 
ATOM     14  C2  <0> d           1.270   6.501  -0.604  0.00  0.00     0.102 A 
ATOM     15  C7  <0> d           1.289   7.830  -0.179  0.00  0.00     0.099 A 
ATOM     16  C6  <0> d           2.480   8.418   0.230  0.00  0.00     0.040 A 
ATOM     17  C5  <0> d           3.649   7.692   0.221  0.00  0.00     0.014 A 
BRANCH  14  18
ATOM     18  O1  <0> d           0.102   5.932  -1.004  0.00  0.00    -0.353 OA
ATOM     19  C1  <0> d           0.155   4.567  -1.425  0.00  0.00     0.210 C 
ENDBRANCH  14  18
BRANCH  15  20
ATOM     20  O2  <0> d           0.140   8.552  -0.167  0.00  0.00    -0.358 OA
ATOM     21  H7  <0> d          -0.037   9.024  -0.993  0.00  0.00     0.217 HD
ENDBRANCH  15  20
ENDBRANCH   1  12
BRANCH   8  22
ATOM     22  C13 <0> d           2.762   1.944   2.228  0.00  0.00     0.047 A 
ATOM     23  C18 <0> d           2.034   0.888   1.697  0.00  0.00     0.031 A 
ATOM     24  C17 <0> d           0.974   0.356   2.405  0.00  0.00     0.021 A 
ATOM     25  C16 <0> d           0.639   0.875   3.644  0.00  0.00     0.011 A 
ATOM     26  C15 <0> d           1.363   1.927   4.175  0.00  0.00     0.021 A 
ATOM     27 Br1  <0> d          -0.812   0.143   4.612  0.00  0.00    -0.051 Br
ATOM     28  C14 <0> d           2.424   2.462   3.471  0.00  0.00     0.031 A 
ENDBRANCH   8  22
TORSDOF 4
