REMARK  4 active torsions:
REMARK  status: ('A' for Active; 'I' for Inactive)
REMARK    1  A    between atoms: C3_3  and  C8_11 
REMARK    2  A    between atoms: C8_11  and  C9_13 
REMARK    3  A    between atoms: C9_13  and  C11_16 
REMARK    4  A    between atoms: C12_18  and  C14_21 
ROOT
ATOM      1  C9  <0> d           3.598   3.720  -0.013  0.00  0.00     0.226 C 
ATOM      2  C10 <0> d           3.598   4.203   1.377  0.00  0.00     0.079 C 
ATOM      3  N3  <0> d           3.598   4.576   2.450  0.00  0.00    -0.196 NA
ENDROOT
BRANCH   1   4
ATOM      4  C8  <0> d           3.641   2.213  -0.021  0.00  0.00     0.184 C 
ATOM      5  O1  <0> d           4.708   1.637  -0.035  0.00  0.00    -0.290 OA
BRANCH   4   6
ATOM      6  C3  <0> d           2.392   1.444  -0.013  0.00  0.00     0.025 A 
ATOM      7  C2  <0> d           1.162   2.100   0.002  0.00  0.00     0.016 A 
ATOM      8  C1  <0> d          -0.017   1.375   0.010  0.00  0.00     0.003 A 
ATOM      9  C7  <0> d           0.002  -0.004   0.002  0.00  0.00     0.032 A 
ATOM     10  C6  <0> d           1.214  -0.690  -0.013  0.00  0.00     0.062 A 
ATOM     11  C4  <0> d           2.423   0.029  -0.021  0.00  0.00     0.025 A 
ATOM     12  N2  <0> d           1.549  -2.020  -0.023  0.00  0.00    -0.278 N 
ATOM     13  C5  <0> d           3.467  -0.920  -0.036  0.00  0.00     0.153 A 
ATOM     14  N1  <0> d           2.946  -2.115  -0.037  0.00  0.00    -0.186 NA
ATOM     15  H1  <0> d           0.928  -2.765  -0.021  0.00  0.00     0.189 HD
ENDBRANCH   4   6
ENDBRANCH   1   4
BRANCH   1  16
ATOM     16  C11 <0> d           4.807   4.260  -0.733  0.00  0.00     0.101 A 
ATOM     17  S1  <0> d           6.431   4.028  -0.359  0.00  0.00    -0.082 SA
ATOM     18  C13 <0> d           7.133   4.991  -1.689  0.00  0.00     0.084 A 
ATOM     19  C12 <0> d           5.994   5.423  -2.317  0.00  0.00     0.074 A 
ATOM     20  N4  <0> d           4.843   5.025  -1.792  0.00  0.00    -0.243 NA
BRANCH  19  21
ATOM     21  C14 <0> d           6.046   6.290  -3.517  0.00  0.00    -0.007 A 
ATOM     22  C19 <0> d           4.862   6.709  -4.126  0.00  0.00     0.015 A 
ATOM     23  C18 <0> d           4.908   7.515  -5.235  0.00  0.00     0.023 A 
ATOM     24  C17 <0> d           6.142   7.908  -5.761  0.00  0.00     0.044 A 
ATOM     25  C16 <0> d           7.327   7.484  -5.153  0.00  0.00     0.023 A 
ATOM     26  C20 <0> d           6.192   8.746  -6.921  0.00  0.00     0.099 C 
ATOM     27  C15 <0> d           7.278   6.682  -4.042  0.00  0.00     0.015 A 
ATOM     28  N5  <0> d           6.231   9.410  -7.842  0.00  0.00    -0.191 NA
ENDBRANCH  19  21
ENDBRANCH   1  16
TORSDOF 4
