REMARK  4 active torsions:
REMARK  status: ('A' for Active; 'I' for Inactive)
REMARK    1  A    between atoms: C10_10  and  N1_11 
REMARK       I    between atoms: N1_11  and  C11_12 
REMARK    2  A    between atoms: C11_12  and  C12_14 
REMARK       I    between atoms: C12_14  and  N2_16 
REMARK    3  A    between atoms: N2_16  and  C13_17 
REMARK    4  A    between atoms: C14_20  and  C15_22 
ROOT
ATOM      1  N1  <0> d           4.631   0.029  -0.946  0.00  0.00    -0.344 N 
ATOM      2  C11 <0> d           5.321   1.107  -0.525  0.00  0.00     0.310 C 
ATOM      3  O1  <0> d           5.202   1.495   0.619  0.00  0.00    -0.262 OA
ATOM      4  H12 <0> d           4.726  -0.282  -1.860  0.00  0.00     0.163 HD
ENDROOT
BRANCH   2   5
ATOM      5  C12 <0> d           6.232   1.824  -1.466  0.00  0.00     0.315 C 
ATOM      6  O2  <0> d           6.352   1.436  -2.610  0.00  0.00    -0.262 OA
ATOM      7  N2  <0> d           6.923   2.902  -1.045  0.00  0.00    -0.296 N 
ATOM      8  H13 <0> d           6.827   3.213  -0.131  0.00  0.00     0.171 HD
BRANCH   7   9
ATOM      9  C13 <0> d           7.770   3.569  -1.919  0.00  0.00     0.197 A 
ATOM     10  S1  <0> d           8.801   5.009  -1.652  0.00  0.00    -0.028 SA
ATOM     11  C14 <0> d           9.469   5.074  -3.312  0.00  0.00     0.165 A 
ATOM     12  N4  <0> d           8.850   4.041  -3.849  0.00  0.00    -0.139 NA
ATOM     13  N3  <0> d           8.044   3.326  -3.194  0.00  0.00    -0.123 NA
BRANCH  11  14
ATOM     14  C15 <0> d          10.455   6.037  -3.922  0.00  0.00     0.414 C 
ATOM     15  F1  <0> d          10.188   6.174  -5.288  0.00  0.00    -0.207 F 
ATOM     16  F2  <0> d          10.338   7.282  -3.296  0.00  0.00    -0.207 F 
ENDBRANCH  11  14
ENDBRANCH   7   9
ENDBRANCH   2   5
BRANCH   1  17
ATOM     17  C10 <0> d           3.737  -0.675  -0.023  0.00  0.00     0.118 C 
ATOM     18  C4  <0> d           2.393   0.006  -0.017  0.00  0.00    -0.029 A 
ATOM     19  C3  <0> d           2.372   1.395  -0.010  0.00  0.00     0.010 A 
ATOM     20  C5  <0> d           1.208  -0.694  -0.015  0.00  0.00    -0.050 A 
ATOM     21  C2  <0> d           1.174   2.078   0.002  0.00  0.00     0.001 A 
ATOM     22  C1  <0> d          -0.017   1.375   0.010  0.00  0.00     0.001 A 
ATOM     23  C6  <0> d           0.002  -0.004   0.002  0.00  0.00     0.007 A 
ATOM     24  C7  <0> d           1.155  -2.199  -0.038  0.00  0.00     0.039 C 
ATOM     25  C8  <0> d           2.501  -2.790   0.375  0.00  0.00     0.007 C 
ATOM     26  C9  <0> d           3.599  -2.130  -0.467  0.00  0.00     0.030 C 
ENDBRANCH   1  17
TORSDOF 4
