REMARK  6 active torsions:
REMARK  status: ('A' for Active; 'I' for Inactive)
REMARK    1  A    between atoms: C5_5  and  S1_9 
REMARK    2  A    between atoms: S1_9  and  N1_12 
REMARK    3  A    between atoms: C10_14  and  N4_23 
REMARK    4  A    between atoms: N4_23  and  C17_24 
REMARK    5  A    between atoms: C17_24  and  C18_25 
REMARK    6  A    between atoms: C18_25  and  C19_26 
ROOT
ATOM      1  N1  <0> d           1.506  -5.005   0.635  0.00  0.00    -0.142 NA
ATOM      2  C9  <0> d           1.784  -6.270   0.749  0.00  0.00     0.171 A 
ATOM      3  C10 <0> d           3.097  -6.716   1.353  0.00  0.00     0.390 A 
ATOM      4  N2  <0> d           3.351  -8.162   1.454  0.00  0.00    -0.353 N 
ATOM      5  C11 <0> d           2.438  -8.986   1.019  0.00  0.00     0.057 A 
ATOM      6  C12 <0> d           2.643 -10.439   1.097  0.00  0.00     0.031 A 
ATOM      7  C13 <0> d           1.675 -11.261   0.637  0.00  0.00     0.002 A 
ATOM      8  C14 <0> d           0.482 -10.762   0.088  0.00  0.00     0.002 A 
ATOM      9  C15 <0> d           0.222  -9.441  -0.016  0.00  0.00     0.032 A 
ATOM     10  C16 <0> d           1.169  -8.487   0.435  0.00  0.00     0.060 A 
ATOM     11  N3  <0> d           0.908  -7.200   0.335  0.00  0.00    -0.339 N 
ATOM     12  H27 <0> d           4.178  -8.495   1.835  0.00  0.00     0.162 HD
ATOM     13  H28 <0> d           0.064  -6.917  -0.049  0.00  0.00     0.167 HD
ENDROOT
BRANCH   1  14
ATOM     14  S1  <0> d           0.063  -4.530  -0.023  0.00  0.00     0.285 S 
ATOM     15  O1  <0> d          -0.953  -4.955   0.876  0.00  0.00    -0.198 OA
ATOM     16  O2  <0> d           0.087  -4.929  -1.387  0.00  0.00    -0.198 OA
BRANCH  14  17
ATOM     17  C5  <0> d           0.040  -2.768  -0.013  0.00  0.00     0.087 A 
ATOM     18  C4  <0> d           0.025  -2.071  -1.207  0.00  0.00     0.026 A 
ATOM     19  C3  <0> d           0.006  -0.689  -1.199  0.00  0.00     0.008 A 
ATOM     20  C2  <0> d           0.002  -0.004   0.002  0.00  0.00    -0.061 A 
ATOM     21  C1  <0> d          -0.018   1.503   0.010  0.00  0.00     0.048 C 
ATOM     22  C7  <0> d           0.023  -0.702   1.195  0.00  0.00     0.015 A 
ATOM     23  C6  <0> d           0.037  -2.084   1.188  0.00  0.00    -0.038 A 
ATOM     24  C8  <0> d           0.054  -2.845   2.489  0.00  0.00     0.050 C 
ENDBRANCH  14  17
ENDBRANCH   1  14
BRANCH   3  25
ATOM     25  N4  <0> d           4.181  -6.125   0.557  0.00  0.00     0.114 N 
ATOM     26  H15 <0> d           4.571  -6.802  -0.081  0.00  0.00     0.319 HD
BRANCH  25  27
ATOM     27  C17 <0> d           5.223  -5.559   1.425  0.00  0.00     0.273 C 
BRANCH  27  28
ATOM     28  C18 <0> d           6.332  -4.955   0.562  0.00  0.00     0.034 C 
BRANCH  28  29
ATOM     29  C19 <0> d           7.417  -4.365   1.466  0.00  0.00    -0.021 C 
ATOM     30  C20 <0> d           8.584  -3.873   0.607  0.00  0.00     0.009 C 
ATOM     31  C21 <0> d           6.838  -3.193   2.260  0.00  0.00     0.009 C 
ENDBRANCH  28  29
ENDBRANCH  27  28
ENDBRANCH  25  27
ENDBRANCH   3  25
TORSDOF 6
