REMARK  7 active torsions:
REMARK  status: ('A' for Active; 'I' for Inactive)
REMARK    1  A    between atoms: C5_5  and  S1_24 
REMARK    2  A    between atoms: C7_7  and  N1_8 
REMARK       I    between atoms: N1_8  and  C8_9 
REMARK    3  A    between atoms: C8_9  and  C9_11 
REMARK       I    between atoms: C9_11  and  N2_13 
REMARK    4  A    between atoms: N2_13  and  C10_14 
REMARK    5  A    between atoms: C10_14  and  C11_15 
REMARK    6  A    between atoms: C11_15  and  C12_16 
REMARK    7  A    between atoms: C17_21  and  O3_22 
ROOT
ATOM      1  N1  <0> d           0.025  -0.016   2.416  0.00  0.00    -0.318 N 
ATOM      2  C8  <0> d          -0.056  -0.696   3.577  0.00  0.00     0.313 C 
ATOM      3  O1  <0> d          -0.040  -1.910   3.572  0.00  0.00    -0.262 OA
ATOM      4  H7  <0> d           0.078   0.952   2.424  0.00  0.00     0.169 HD
ENDROOT
BRANCH   2   5
ATOM      5  C9  <0> d          -0.167   0.044   4.869  0.00  0.00     0.309 C 
ATOM      6  O2  <0> d          -0.183   1.257   4.874  0.00  0.00    -0.262 OA
ATOM      7  N2  <0> d          -0.248  -0.636   6.030  0.00  0.00    -0.353 N 
ATOM      8  H8  <0> d          -0.235  -1.606   6.026  0.00  0.00     0.162 HD
BRANCH   7   9
ATOM      9  C10 <0> d          -0.356   0.090   7.298  0.00  0.00     0.128 C 
BRANCH   9  10
ATOM     10  C11 <0> d          -0.433  -0.910   8.453  0.00  0.00     0.061 C 
BRANCH  10  11
ATOM     11  C12 <0> d          -0.545  -0.164   9.758  0.00  0.00    -0.023 A 
ATOM     12  C17 <0> d          -1.786   0.255  10.214  0.00  0.00     0.074 A 
ATOM     13  C16 <0> d          -1.886   0.938  11.418  0.00  0.00     0.037 A 
ATOM     14  C15 <0> d          -0.748   1.207  12.154  0.00  0.00     0.003 A 
ATOM     15  C14 <0> d           0.488   0.793  11.694  0.00  0.00     0.001 A 
ATOM     16  C13 <0> d           0.590   0.109  10.497  0.00  0.00     0.010 A 
BRANCH  12  17
ATOM     17  O3  <0> d          -2.903  -0.006   9.485  0.00  0.00    -0.355 OA
ATOM     18  C18 <0> d          -4.146   0.455  10.016  0.00  0.00     0.210 C 
ENDBRANCH  12  17
ENDBRANCH  10  11
ENDBRANCH   9  10
ENDBRANCH   7   9
ENDBRANCH   2   5
BRANCH   1  19
ATOM     19  C7  <0> d           0.033  -0.706   1.201  0.00  0.00     0.042 A 
ATOM     20  C2  <0> d          -0.586  -0.159   0.085  0.00  0.00    -0.035 A 
ATOM     21  C1  <0> d          -1.268   1.182   0.182  0.00  0.00     0.050 C 
ATOM     22  C3  <0> d          -0.571  -0.841  -1.116  0.00  0.00     0.010 A 
ATOM     23  C4  <0> d           0.055  -2.071  -1.206  0.00  0.00     0.024 A 
ATOM     24  C5  <0> d           0.667  -2.622  -0.095  0.00  0.00     0.061 A 
ATOM     25  C6  <0> d           0.655  -1.946   1.108  0.00  0.00     0.053 A 
BRANCH  24  26
ATOM     26  S1  <0> d           1.462  -4.190  -0.216  0.00  0.00     0.172 S 
ATOM     27  O4  <0> d           1.419  -4.720   1.102  0.00  0.00    -0.223 OA
ATOM     28  O5  <0> d           0.800  -4.851  -1.285  0.00  0.00    -0.223 OA
ATOM     29  C19 <0> d           3.174  -3.810  -0.681  0.00  0.00     0.167 C 
ENDBRANCH  24  26
ENDBRANCH   1  19
TORSDOF 7
