REMARK  2 active torsions:
REMARK  status: ('A' for Active; 'I' for Inactive)
REMARK    1  A    between atoms: C2_2  and  C9_9 
REMARK       I    between atoms: C9_9  and  N1_11 
REMARK    2  A    between atoms: N1_11  and  C10_12 
ROOT
ATOM      1  C10 <0> d           1.516   2.793  -4.816  0.00  0.00     0.089 C 
ATOM      2  C11 <0> d           2.464   3.953  -5.134  0.00  0.00     0.031 C 
ATOM      3  C12 <0> d           3.599   3.453  -6.033  0.00  0.00     0.059 C 
ATOM      4  C13 <0> d           2.997   2.698  -7.195  0.00  0.00     0.017 A 
ATOM      5  C14 <0> d           1.728   2.237  -7.213  0.00  0.00    -0.019 A 
ATOM      6  C15 <0> d           1.532   1.578  -8.488  0.00  0.00     0.021 A 
ATOM      7  C16 <0> d           2.763   1.695  -9.183  0.00  0.00     0.046 A 
ATOM      8  N2  <0> d           3.624   2.376  -8.371  0.00  0.00    -0.358 N 
ATOM      9  H4  <0> d           4.671   2.672  -8.535  0.00  0.00     0.166 HD
ATOM     10  C17 <0> d           2.912   1.160 -10.460  0.00  0.00     0.054 A 
ATOM     11  C18 <0> d           1.814   0.517 -11.007  0.00  0.00     0.037 A 
ATOM     12  C19 <0> d           0.611   0.402 -10.328  0.00  0.00     0.048 A 
ATOM     13  C20 <0> d           0.434   0.924  -9.059  0.00  0.00     0.048 A 
ATOM     14 Cl1  <0> d          -1.076   0.775  -8.215  0.00  0.00    -0.083 Cl
ATOM     15 Cl2  <0> d           1.948  -0.169 -12.596  0.00  0.00    -0.084 Cl
ATOM     16  C21 <0> d           0.744   2.407  -6.083  0.00  0.00     0.066 C 
ENDROOT
BRANCH   1  17
ATOM     17  N1  <0> d           0.573   3.204  -3.774  0.00  0.00    -0.355 N 
ATOM     18  C9  <0> d           0.917   3.104  -2.475  0.00  0.00     0.227 C 
ATOM     19  O1  <0> d           2.009   2.674  -2.169  0.00  0.00    -0.273 OA
ATOM     20  H14 <0> d          -0.418   3.594  -4.052  0.00  0.00     0.162 HD
BRANCH  18  21
ATOM     21  C2  <0> d          -0.054   3.526  -1.403  0.00  0.00     0.045 C 
ATOM     22  C1  <0> d          -0.468   4.986  -1.600  0.00  0.00     0.026 C 
ATOM     23  C6  <0> d           0.569   3.318   0.015  0.00  0.00     0.026 C 
ATOM     24  C5  <0> d          -0.737   3.165   0.878  0.00  0.00     0.018 C 
ATOM     25  C7  <0> d           1.046   1.861   0.002  0.00  0.00    -0.024 C 
ATOM     26  C4  <0> d          -1.269   1.956   0.018  0.00  0.00     0.010 C 
ATOM     27  C3  <0> d          -1.297   2.604  -1.396  0.00  0.00     0.028 C 
ATOM     28  C8  <0> d          -0.013   1.076   0.008  0.00  0.00    -0.026 C 
ENDBRANCH  18  21
ENDBRANCH   1  17
TORSDOF 2
