REMARK  4 active torsions:
REMARK  status: ('A' for Active; 'I' for Inactive)
REMARK    1  A    between atoms: C5_9  and  N4_26 
REMARK    2  A    between atoms: C7_11  and  C8_12 
REMARK    3  A    between atoms: C10_14  and  C13_18 
REMARK    4  A    between atoms: C13_18  and  N5_29 
ROOT
ATOM      1  C1  <0> d          -1.029  -0.920  -2.802  0.00  0.00     0.070 C 
ATOM      2  C2  <0> d          -2.105  -0.060  -2.190  0.00  0.00     0.035 A 
ATOM      3  C3  <0> d          -2.215   0.269  -0.894  0.00  0.00     0.035 A 
ATOM      4  C4  <0> d          -3.360   1.083  -0.744  0.00  0.00     0.199 A 
ATOM      5  N1  <0> d          -3.906   1.229  -1.916  0.00  0.00    -0.148 NA
ATOM      6  N2  <0> d          -3.136   0.518  -2.849  0.00  0.00    -0.280 N 
ATOM      7  H1  <0> d          -3.317   0.451  -3.830  0.00  0.00     0.189 HD
ATOM      8  O1  <0> d          -3.739   1.577   0.465  0.00  0.00    -0.272 OA
ATOM      9  C5  <0> d          -3.153   1.054   1.561  0.00  0.00     0.161 C 
ATOM     10  C6  <0> d          -2.052   0.275   1.542  0.00  0.00     0.086 C 
ATOM     11  C7  <0> d          -1.334  -0.103   0.271  0.00  0.00     0.113 C 
ATOM     12  C18 <0> d          -1.541  -0.216   2.786  0.00  0.00     0.100 C 
ATOM     13  N3  <0> d          -1.136  -0.606   3.773  0.00  0.00    -0.191 NA
ENDROOT
BRANCH   9  14
ATOM     14  N4  <0> d          -3.717   1.333   2.781  0.00  0.00    -0.379 N 
ATOM     15  H20 <0> d          -3.323   0.973   3.591  0.00  0.00     0.158 HD
ATOM     16  H21 <0> d          -4.510   1.890   2.833  0.00  0.00     0.158 HD
ENDBRANCH   9  14
BRANCH  11  17
ATOM     17  C8  <0> d          -0.029   0.645   0.182  0.00  0.00    -0.003 A 
ATOM     18  S1  <0> d           0.257   2.406   0.144  0.00  0.00    -0.098 SA
ATOM     19  C11 <0> d           2.038   2.370   0.035  0.00  0.00    -0.013 A 
ATOM     20  C10 <0> d           2.292   1.039   0.035  0.00  0.00    -0.019 A 
ATOM     21  C12 <0> d           3.008   3.521  -0.038  0.00  0.00     0.057 C 
ATOM     22  C9  <0> d           1.233   0.154   0.110  0.00  0.00     0.025 A 
BRANCH  20  23
ATOM     23  C13 <0> d           3.709   0.530  -0.045  0.00  0.00     0.274 C 
BRANCH  23  24
ATOM     24  N5  <0> d           4.205   0.718  -1.426  0.00  0.00    -0.063 N 
ATOM     25  C14 <0> d           3.578  -0.271  -2.327  0.00  0.00     0.261 C 
ATOM     26  C15 <0> d           4.083  -0.028  -3.751  0.00  0.00     0.195 C 
ATOM     27  O2  <0> d           5.510  -0.123  -3.768  0.00  0.00    -0.388 OA
ATOM     28  C16 <0> d           6.159   0.803  -2.892  0.00  0.00     0.195 C 
ATOM     29  C17 <0> d           5.675   0.568  -1.459  0.00  0.00     0.261 C 
ATOM     30  H22 <0> d           3.958   1.663  -1.743  0.00  0.00     0.280 HD
ENDBRANCH  23  24
ENDBRANCH  20  23
ENDBRANCH  11  17
TORSDOF 4
