REMARK  6 active torsions:
REMARK  status: ('A' for Active; 'I' for Inactive)
REMARK    1  A    between atoms: C4_4  and  O4_30 
REMARK    2  A    between atoms: C9_11  and  C12_14 
REMARK    3  A    between atoms: C12_14  and  C13_15 
REMARK       I    between atoms: C13_15  and  N1_17 
REMARK    4  A    between atoms: N1_17  and  C14_18 
REMARK    5  A    between atoms: C14_18  and  C15_19 
REMARK    6  A    between atoms: C15_19  and  C16_20 
ROOT
ATOM      1  C13 <0> d           2.567  -5.320   2.633  0.00  0.00     0.218 C 
ATOM      2  O3  <0> d           1.786  -5.846   3.396  0.00  0.00    -0.274 OA
ATOM      3  N1  <0> d           3.883  -5.297   2.925  0.00  0.00    -0.361 N 
ATOM      4  H13 <0> d           4.508  -4.876   2.315  0.00  0.00     0.162 HD
ENDROOT
BRANCH   1   5
ATOM      5  C12 <0> d           2.068  -4.691   1.358  0.00  0.00     0.118 C 
BRANCH   5   6
ATOM      6  C9  <0> d           0.549  -4.854   1.270  0.00  0.00     0.103 C 
ATOM      7  C8  <0> d          -0.117  -4.072   2.385  0.00  0.00     0.269 C 
ATOM      8  O1  <0> d           0.072  -2.738   2.391  0.00  0.00    -0.278 OA
ATOM      9  O2  <0> d          -0.787  -4.620   3.228  0.00  0.00    -0.264 OA
ATOM     10  C6  <0> d           0.038  -2.092   1.193  0.00  0.00     0.089 A 
ATOM     11  C5  <0> d           0.035  -2.781  -0.006  0.00  0.00     0.014 A 
ATOM     12  C7  <0> d           0.023  -0.701   1.193  0.00  0.00     0.044 A 
ATOM     13  C4  <0> d           0.021  -2.075  -1.204  0.00  0.00     0.075 A 
ATOM     14  C10 <0> d           0.041  -4.287  -0.060  0.00  0.00     0.034 C 
ATOM     15  C3  <0> d           0.006  -0.689  -1.198  0.00  0.00     0.044 A 
ATOM     16  C2  <0> d           0.002  -0.004   0.002  0.00  0.00    -0.057 A 
ATOM     17  C1  <0> d          -0.018   1.503   0.010  0.00  0.00     0.048 C 
ATOM     18  C11 <0> d          -1.381  -4.792  -0.317  0.00  0.00     0.016 C 
BRANCH  13  19
ATOM     19  O4  <0> d           0.022  -2.746  -2.386  0.00  0.00    -0.360 OA
ATOM     20  H23 <0> d           0.905  -2.931  -2.732  0.00  0.00     0.217 HD
ENDBRANCH  13  19
ENDBRANCH   5   6
ENDBRANCH   1   5
BRANCH   3  21
ATOM     21  C14 <0> d           4.368  -5.909   4.165  0.00  0.00     0.127 C 
BRANCH  21  22
ATOM     22  C15 <0> d           5.887  -5.746   4.253  0.00  0.00     0.060 C 
BRANCH  22  23
ATOM     23  C16 <0> d           6.387  -6.375   5.528  0.00  0.00    -0.029 A 
ATOM     24  C17 <0> d           6.721  -7.787   5.730  0.00  0.00     0.001 A 
ATOM     25  C18 <0> d           6.698  -8.916   4.909  0.00  0.00     0.056 A 
ATOM     26  C22 <0> d           7.139  -7.900   7.069  0.00  0.00     0.043 A 
ATOM     27  C19 <0> d           7.086 -10.137   5.418  0.00  0.00     0.117 A 
ATOM     28  C20 <0> d           7.499 -10.247   6.740  0.00  0.00     0.044 A 
ATOM     29  F1  <0> d           7.065 -11.232   4.627  0.00  0.00    -0.206 F 
ATOM     30  C21 <0> d           7.526  -9.141   7.562  0.00  0.00     0.033 A 
ATOM     31  N2  <0> d           7.059  -6.643   7.626  0.00  0.00    -0.365 N 
ATOM     32  H22 <0> d           7.288  -6.424   8.543  0.00  0.00     0.165 HD
ATOM     33  C23 <0> d           6.615  -5.747   6.692  0.00  0.00     0.096 A 
ENDBRANCH  22  23
ENDBRANCH  21  22
ENDBRANCH   3  21
TORSDOF 6
