REMARK  8 active torsions:
REMARK  status: ('A' for Active; 'I' for Inactive)
REMARK    1  A    between atoms: C3_3  and  C11_15 
REMARK    2  A    between atoms: C5_5  and  O1_7 
REMARK    3  A    between atoms: O1_7  and  C7_8 
REMARK    4  A    between atoms: C7_8  and  C8_9 
REMARK    5  A    between atoms: C11_15  and  C12_16 
REMARK    6  A    between atoms: C12_16  and  C13_17 
REMARK    7  A    between atoms: C12_16  and  N2_19 
REMARK    8  A    between atoms: C13_17  and  O2_18 
ROOT
ATOM      1  C1  <0> d          -0.017   1.377   0.010  0.00  0.00     0.003 A 
ATOM      2  C2  <0> d           1.171   2.086   0.002  0.00  0.00     0.007 A 
ATOM      3  C3  <0> d           2.379   1.415  -0.013  0.00  0.00    -0.053 A 
ATOM      4  C4  <0> d           2.403   0.033  -0.021  0.00  0.00     0.044 A 
ATOM      5  C5  <0> d           1.214  -0.680  -0.013  0.00  0.00     0.069 A 
ATOM      6  C6  <0> d           0.002  -0.004   0.002  0.00  0.00     0.037 A 
ENDROOT
BRANCH   3   7
ATOM      7  C11 <0> d           3.671   2.190  -0.021  0.00  0.00     0.073 C 
BRANCH   7   8
ATOM      8  C12 <0> d           4.122   2.445   1.419  0.00  0.00     0.211 C 
BRANCH   8   9
ATOM      9  C13 <0> d           5.494   3.122   1.411  0.00  0.00     0.197 C 
BRANCH   9  10
ATOM     10  O2  <0> d           5.968   3.255   2.753  0.00  0.00    -0.399 OA
ATOM     11  H13 <0> d           6.835   3.677   2.824  0.00  0.00     0.209 HD
ENDBRANCH   9  10
ENDBRANCH   8   9
BRANCH   8  12
ATOM     12  N2  <0> d           3.149   3.318   2.089  0.00  0.00    -0.073 N 
ATOM     13  H14 <0> d           3.088   4.195   1.595  0.00  0.00     0.274 HD
ATOM     14  H15 <0> d           2.244   2.871   2.094  0.00  0.00     0.274 HD
ATOM     15  H16 <0> d           3.447   3.486   3.039  0.00  0.00     0.274 HD
ENDBRANCH   8  12
ENDBRANCH   7   8
ENDBRANCH   3   7
BRANCH   5  16
ATOM     16  O1  <0> d           1.235  -2.039  -0.021  0.00  0.00    -0.346 OA
BRANCH  16  17
ATOM     17  C7  <0> d          -0.028  -2.708  -0.013  0.00  0.00     0.223 C 
BRANCH  17  18
ATOM     18  C8  <0> d           0.192  -4.198  -0.024  0.00  0.00     0.027 A 
ATOM     19  S1  <0> d           0.345  -5.318  -1.406  0.00  0.00    -0.059 SA
ATOM     20  C10 <0> d           0.565  -6.738  -0.530  0.00  0.00     0.167 A 
ATOM     21  N1  <0> d           0.510  -6.333   0.716  0.00  0.00    -0.240 NA
ATOM     22 Cl1  <0> d           0.800  -8.350  -1.130  0.00  0.00    -0.054 Cl
ATOM     23  C9  <0> d           0.324  -5.062   1.015  0.00  0.00     0.135 A 
ENDBRANCH  17  18
ENDBRANCH  16  17
ENDBRANCH   5  16
TORSDOF 8
