REMARK  9 active torsions:
REMARK  status: ('A' for Active; 'I' for Inactive)
REMARK    1  A    between atoms: C3_4  and  S1_16 
REMARK    2  A    between atoms: C4_7  and  C5_8 
REMARK    3  A    between atoms: C5_8  and  C6_9 
REMARK    4  A    between atoms: C9_12  and  O1_15 
REMARK    5  A    between atoms: S1_16  and  C12_17 
REMARK    6  A    between atoms: C12_17  and  C13_18 
REMARK       I    between atoms: C13_18  and  N3_20 
REMARK    7  A    between atoms: N3_20  and  C14_21 
REMARK    8  A    between atoms: C15_23  and  C17_26 
REMARK    9  A    between atoms: C20_29  and  O3_32 
ROOT
ATOM      1  S1  <0> d          -3.949   2.700  -3.088  0.00  0.00    -0.085 SA
ENDROOT
BRANCH   1   2
ATOM      2  C3  <0> d          -2.347   2.253  -2.506  0.00  0.00     0.145 A 
ATOM      3  N1  <0> d          -2.060   1.830  -1.296  0.00  0.00    -0.339 N 
ATOM      4  C2  <0> d          -0.742   1.585  -1.213  0.00  0.00     0.030 A 
ATOM      5  H25 <0> d          -2.699   1.713  -0.576  0.00  0.00     0.168 HD
ATOM      6  C1  <0> d          -0.013   1.086   0.008  0.00  0.00     0.070 C 
ATOM      7  C4  <0> d          -0.183   1.867  -2.402  0.00  0.00     0.037 A 
ATOM      8  N2  <0> d          -1.197   2.287  -3.233  0.00  0.00    -0.338 N 
ATOM      9  H1  <0> d          -1.109   2.559  -4.160  0.00  0.00     0.168 HD
BRANCH   7  10
ATOM     10  C5  <0> d           1.276   1.742  -2.760  0.00  0.00     0.097 C 
BRANCH  10  11
ATOM     11  C6  <0> d           1.571   0.326  -3.182  0.00  0.00    -0.052 A 
ATOM     12  C11 <0> d           1.451  -0.037  -4.511  0.00  0.00     0.010 A 
ATOM     13  C10 <0> d           1.726  -1.334  -4.901  0.00  0.00     0.037 A 
ATOM     14  C9  <0> d           2.112  -2.274  -3.957  0.00  0.00     0.065 A 
ATOM     15  C8  <0> d           2.225  -1.909  -2.623  0.00  0.00     0.037 A 
ATOM     16  C7  <0> d           1.954  -0.610  -2.239  0.00  0.00     0.010 A 
BRANCH  14  17
ATOM     17  O1  <0> d           2.379  -3.551  -4.338  0.00  0.00    -0.361 OA
ATOM     18  H12 <0> d           1.609  -4.137  -4.317  0.00  0.00     0.217 HD
ENDBRANCH  14  17
ENDBRANCH  10  11
ENDBRANCH   7  10
ENDBRANCH   1   2
BRANCH   1  19
ATOM     19  C12 <0> d          -4.746   3.456  -1.644  0.00  0.00     0.185 C 
BRANCH  19  20
ATOM     20  C13 <0> d          -6.142   3.889  -2.010  0.00  0.00     0.229 C 
ATOM     21  O2  <0> d          -6.558   3.706  -3.134  0.00  0.00    -0.273 OA
ATOM     22  N3  <0> d          -6.928   4.480  -1.088  0.00  0.00    -0.329 N 
ATOM     23  H15 <0> d          -6.594   4.626  -0.189  0.00  0.00     0.165 HD
BRANCH  22  24
ATOM     24  C14 <0> d          -8.285   4.901  -1.444  0.00  0.00     0.272 C 
ATOM     25  S2  <0> d          -8.267   6.508  -2.353  0.00  0.00    -0.115 SA
ATOM     26  C16 <0> d          -9.693   7.253  -1.443  0.00  0.00     0.137 C 
ATOM     27  C15 <0> d          -9.724   6.354  -0.216  0.00  0.00     0.051 C 
ATOM     28  N4  <0> d          -9.061   5.269  -0.243  0.00  0.00    -0.257 NA
BRANCH  27  29
ATOM     29  C17 <0> d         -10.504   6.731   0.977  0.00  0.00    -0.011 A 
ATOM     30  C22 <0> d         -10.522   5.895   2.096  0.00  0.00     0.016 A 
ATOM     31  C21 <0> d         -11.247   6.254   3.211  0.00  0.00     0.037 A 
ATOM     32  C20 <0> d         -11.970   7.441   3.218  0.00  0.00     0.068 A 
ATOM     33  C19 <0> d         -11.960   8.273   2.105  0.00  0.00     0.037 A 
ATOM     34  C18 <0> d         -11.232   7.924   0.989  0.00  0.00     0.016 A 
BRANCH  32  35
ATOM     35  O3  <0> d         -12.689   7.789   4.316  0.00  0.00    -0.356 OA
ATOM     36  C23 <0> d         -12.656   6.888   5.425  0.00  0.00     0.210 C 
ENDBRANCH  32  35
ENDBRANCH  27  29
ENDBRANCH  22  24
ENDBRANCH  19  20
ENDBRANCH   1  19
TORSDOF 9
