REMARK  4 active torsions:
REMARK  status: ('A' for Active; 'I' for Inactive)
REMARK    1  A    between atoms: C5_5  and  N1_7 
REMARK    2  A    between atoms: C7_8  and  C11_15 
REMARK    3  A    between atoms: C8_9  and  C10_12 
REMARK    4  A    between atoms: C11_15  and  N3_16 
ROOT
ATOM      1  N1  <0> d           1.239  -2.287  -0.195  0.00  0.00    -0.234 N 
ATOM      2  C7  <0> d           0.128  -2.988   0.088  0.00  0.00     0.081 A 
ATOM      3  C8  <0> d           0.503  -4.311   0.239  0.00  0.00     0.086 A 
ATOM      4  C9  <0> d           1.901  -4.374   0.033  0.00  0.00     0.159 A 
ATOM      5  N2  <0> d           2.325  -3.168  -0.229  0.00  0.00    -0.178 NA
ENDROOT
BRANCH   1   6
ATOM      6  C5  <0> d           1.298  -0.905  -0.423  0.00  0.00     0.080 A 
ATOM      7  C4  <0> d           2.229  -0.127   0.254  0.00  0.00     0.062 A 
ATOM      8  C3  <0> d           2.285   1.236   0.026  0.00  0.00     0.026 A 
ATOM      9 Cl1  <0> d           3.320  -0.865   1.385  0.00  0.00    -0.082 Cl
ATOM     10  C2  <0> d           1.417   1.823  -0.875  0.00  0.00     0.002 A 
ATOM     11  C1  <0> d           0.490   1.050  -1.551  0.00  0.00     0.002 A 
ATOM     12  C6  <0> d           0.428  -0.311  -1.327  0.00  0.00     0.033 A 
ENDBRANCH   1   6
BRANCH   2  13
ATOM     13  C11 <0> d          -1.268  -2.436   0.217  0.00  0.00     0.295 C 
BRANCH  13  14
ATOM     14  N3  <0> d          -1.567  -2.186   1.633  0.00  0.00    -0.066 N 
ATOM     15  C15 <0> d          -2.971  -1.747   1.788  0.00  0.00     0.235 C 
ATOM     16  C14 <0> d          -2.997  -0.710   2.926  0.00  0.00     0.029 C 
ATOM     17  C13 <0> d          -1.525  -0.570   3.378  0.00  0.00     0.029 C 
ATOM     18  C12 <0> d          -0.734  -1.066   2.142  0.00  0.00     0.235 C 
ATOM     19  H16 <0> d          -1.401  -3.019   2.177  0.00  0.00     0.280 HD
ENDBRANCH  13  14
ENDBRANCH   2  13
BRANCH   3  20
ATOM     20  C10 <0> d          -0.384  -5.440   0.556  0.00  0.00     0.213 C 
ATOM     21  O1  <0> d           0.087  -6.551   0.757  0.00  0.00    -0.644 OA
ATOM     22  O2  <0> d          -1.594  -5.268   0.618  0.00  0.00    -0.644 OA
ENDBRANCH   3  20
TORSDOF 4
