REMARK  6 active torsions:
REMARK  status: ('A' for Active; 'I' for Inactive)
REMARK    1  A    between atoms: O1_2  and  C2_3 
REMARK    2  A    between atoms: C5_6  and  C15_18 
REMARK    3  A    between atoms: C7_8  and  O2_9 
REMARK    4  A    between atoms: O2_9  and  C8_10 
REMARK    5  A    between atoms: C8_10  and  C9_11 
REMARK    6  A    between atoms: C20_26  and  N3_28 
ROOT
ATOM      1  C2  <0> d          -1.201  -0.638   0.010  0.00  0.00     0.101 A 
ATOM      2  C3  <0> d          -2.374   0.099   0.019  0.00  0.00     0.040 A 
ATOM      3  C4  <0> d          -3.596  -0.546   0.027  0.00  0.00     0.011 A 
ATOM      4  C5  <0> d          -3.652  -1.928   0.026  0.00  0.00    -0.046 A 
ATOM      5  C6  <0> d          -2.485  -2.669   0.017  0.00  0.00     0.047 A 
ATOM      6  C7  <0> d          -1.257  -2.028   0.003  0.00  0.00     0.102 A 
ENDROOT
BRANCH   4   7
ATOM      7  C15 <0> d          -4.987  -2.627   0.035  0.00  0.00     0.071 C 
ATOM      8  C19 <0> d          -5.772  -2.226  -1.165  0.00  0.00     0.041 A 
ATOM      9  C18 <0> d          -7.131  -2.099  -1.229  0.00  0.00     0.147 A 
ATOM     10  S1  <0> d          -5.268  -1.806  -2.805  0.00  0.00    -0.052 SA
ATOM     11  N1  <0> d          -7.889  -2.362  -0.059  0.00  0.00    -0.311 N 
ATOM     12  N2  <0> d          -7.604  -1.750  -2.420  0.00  0.00    -0.206 NA
ATOM     13  C17 <0> d          -7.240  -2.517   1.110  0.00  0.00     0.224 C 
ATOM     14  H16 <0> d          -8.856  -2.429  -0.100  0.00  0.00     0.170 HD
ATOM     15  C16 <0> d          -5.779  -2.216   1.285  0.00  0.00     0.118 C 
ATOM     16  O3  <0> d          -7.865  -2.920   2.068  0.00  0.00    -0.273 OA
ATOM     17  C20 <0> d          -6.803  -1.531  -3.445  0.00  0.00     0.166 A 
BRANCH  17  18
ATOM     18  N3  <0> d          -7.142  -1.160  -4.737  0.00  0.00    -0.378 N 
ATOM     19  H17 <0> d          -6.448  -1.028  -5.401  0.00  0.00     0.158 HD
ATOM     20  H18 <0> d          -8.073  -1.033  -4.976  0.00  0.00     0.158 HD
ENDBRANCH  17  18
ENDBRANCH   4   7
BRANCH   6  21
ATOM     21  O2  <0> d          -0.108  -2.756  -0.012  0.00  0.00    -0.344 OA
BRANCH  21  22
ATOM     22  C8  <0> d          -0.242  -4.179  -0.018  0.00  0.00     0.214 C 
BRANCH  22  23
ATOM     23  C9  <0> d           1.125  -4.812  -0.034  0.00  0.00    -0.034 A 
ATOM     24  C14 <0> d           1.764  -5.109   1.156  0.00  0.00     0.012 A 
ATOM     25  C13 <0> d           3.016  -5.694   1.142  0.00  0.00     0.043 A 
ATOM     26  C12 <0> d           3.635  -5.973  -0.064  0.00  0.00     0.116 A 
ATOM     27  C11 <0> d           2.998  -5.670  -1.256  0.00  0.00     0.043 A 
ATOM     28  F1  <0> d           4.861  -6.540  -0.079  0.00  0.00    -0.206 F 
ATOM     29  C10 <0> d           1.743  -5.090  -1.239  0.00  0.00     0.012 A 
ENDBRANCH  22  23
ENDBRANCH  21  22
ENDBRANCH   6  21
BRANCH   1  30
ATOM     30  O1  <0> d           0.002  -0.004   0.002  0.00  0.00    -0.353 OA
ATOM     31  C1  <0> d          -0.017   1.425   0.010  0.00  0.00     0.210 C 
ENDBRANCH   1  30
TORSDOF 6
