REMARK  6 active torsions:
REMARK  status: ('A' for Active; 'I' for Inactive)
REMARK    1  A    between atoms: C2_2  and  C4_4 
REMARK    2  A    between atoms: C4_4  and  N1_5 
REMARK    3  A    between atoms: N1_5  and  C5_6 
REMARK    4  A    between atoms: C5_6  and  C6_7 
REMARK    5  A    between atoms: C7_8  and  N4_15 
REMARK    6  A    between atoms: C13_18  and  O1_20 
ROOT
ATOM      1  C6  <0> d          -2.777  -4.006  -0.237  0.00  0.00     0.089 A 
ATOM      2  C7  <0> d          -2.806  -4.705  -1.391  0.00  0.00     0.153 A 
ATOM      3  N2  <0> d          -2.776  -6.015  -1.091  0.00  0.00    -0.204 NA
ATOM      4  C8  <0> d          -2.730  -6.154   0.204  0.00  0.00     0.179 A 
ATOM      5  N3  <0> d          -2.722  -4.927   0.813  0.00  0.00    -0.299 N 
ATOM      6  C9  <0> d          -2.669  -4.914   2.189  0.00  0.00     0.106 A 
ATOM      7  C10 <0> d          -2.625  -6.051   2.881  0.00  0.00     0.071 A 
ATOM      8  S1  <0> d          -2.668  -7.275   1.581  0.00  0.00    -0.062 SA
ENDROOT
BRANCH   1   9
ATOM      9  C5  <0> d          -2.795  -2.505  -0.105  0.00  0.00     0.293 C 
BRANCH   9  10
ATOM     10  N1  <0> d          -1.416  -1.997  -0.116  0.00  0.00    -0.070 N 
ATOM     11  H11 <0> d          -0.970  -2.253  -0.984  0.00  0.00     0.277 HD
ATOM     12  H23 <0> d          -0.905  -2.397   0.656  0.00  0.00     0.277 HD
BRANCH  10  13
ATOM     13  C4  <0> d          -1.433  -0.534   0.013  0.00  0.00     0.236 C 
BRANCH  13  14
ATOM     14  C2  <0> d           0.002  -0.004   0.002  0.00  0.00     0.003 C 
ATOM     15  C1  <0> d          -0.019   1.526   0.010  0.00  0.00     0.011 C 
ATOM     16  C3  <0> d           0.742  -0.511   1.242  0.00  0.00     0.011 C 
ENDBRANCH  13  14
ENDBRANCH  10  13
ENDBRANCH   9  10
ENDBRANCH   1   9
BRANCH   2  17
ATOM     17  N4  <0> d          -2.857  -4.159  -2.682  0.00  0.00    -0.362 N 
ATOM     18  C14 <0> d          -2.888  -4.925  -3.937  0.00  0.00     0.156 C 
ATOM     19  C13 <0> d          -2.918  -3.906  -5.096  0.00  0.00     0.137 C 
ATOM     20  C12 <0> d          -2.322  -2.628  -4.447  0.00  0.00     0.053 C 
ATOM     21  C11 <0> d          -2.883  -2.720  -3.006  0.00  0.00     0.127 C 
BRANCH  19  22
ATOM     22  O1  <0> d          -2.101  -4.350  -6.181  0.00  0.00    -0.394 OA
ATOM     23  H22 <0> d          -2.022  -3.710  -6.902  0.00  0.00     0.210 HD
ENDBRANCH  19  22
ENDBRANCH   2  17
TORSDOF 6
