REMARK  6 active torsions:
REMARK  status: ('A' for Active; 'I' for Inactive)
REMARK    1  A    between atoms: C7_7  and  S1_8 
REMARK    2  A    between atoms: S1_8  and  N1_11 
REMARK    3  A    between atoms: N1_11  and  C8_12 
REMARK    4  A    between atoms: C8_12  and  C9_13 
REMARK    5  A    between atoms: C14_18  and  C15_19 
REMARK    6  A    between atoms: C15_19  and  N2_20 
ROOT
ATOM      1  N1  <0> d           1.177   1.030   2.916  0.00  0.00    -0.311 N 
ATOM      2  H7  <0> d           1.877   0.858   3.564  0.00  0.00     0.172 HD
ENDROOT
BRANCH   1   3
ATOM      3  S1  <0> d          -0.066  -0.050   2.734  0.00  0.00     0.259 S 
ATOM      4  O1  <0> d          -1.270   0.704   2.788  0.00  0.00    -0.201 OA
ATOM      5  O2  <0> d           0.199  -1.127   3.623  0.00  0.00    -0.201 OA
BRANCH   3   6
ATOM      6  C7  <0> d           0.046  -0.704   1.102  0.00  0.00     0.086 A 
ATOM      7  C2  <0> d           1.139  -1.469   0.738  0.00  0.00    -0.039 A 
ATOM      8  C1  <0> d           2.233  -1.743   1.737  0.00  0.00     0.050 C 
ATOM      9  C3  <0> d           1.224  -1.987  -0.541  0.00  0.00     0.009 A 
ATOM     10  C4  <0> d           0.221  -1.736  -1.458  0.00  0.00     0.019 A 
ATOM     11  C5  <0> d          -0.870  -0.966  -1.095  0.00  0.00     0.012 A 
ATOM     12  C6  <0> d          -0.955  -0.447   0.184  0.00  0.00     0.044 A 
ATOM     13 Br1  <0> d          -2.243  -0.621  -2.349  0.00  0.00    -0.051 Br
ENDBRANCH   3   6
ENDBRANCH   1   3
BRANCH   1  14
ATOM     14  C8  <0> d           1.217   2.244   2.098  0.00  0.00     0.171 C 
BRANCH  14  15
ATOM     15  C9  <0> d           2.192   3.223   2.699  0.00  0.00    -0.032 A 
ATOM     16  C14 <0> d           3.548   3.071   2.479  0.00  0.00    -0.025 A 
ATOM     17  C13 <0> d           4.443   3.972   3.028  0.00  0.00     0.009 A 
ATOM     18  C12 <0> d           3.982   5.019   3.803  0.00  0.00     0.001 A 
ATOM     19  C11 <0> d           2.625   5.168   4.027  0.00  0.00     0.001 A 
ATOM     20  C10 <0> d           1.731   4.270   3.476  0.00  0.00     0.009 A 
BRANCH  16  21
ATOM     21  C15 <0> d           4.052   1.927   1.638  0.00  0.00     0.268 C 
BRANCH  21  22
ATOM     22  N2  <0> d           3.896   2.259   0.216  0.00  0.00    -0.075 N 
ATOM     23  H16 <0> d           2.921   2.421   0.013  0.00  0.00     0.274 HD
ATOM     24  H17 <0> d           4.427   3.090   0.004  0.00  0.00     0.274 HD
ATOM     25  H18 <0> d           4.233   1.492  -0.347  0.00  0.00     0.274 HD
ENDBRANCH  21  22
ENDBRANCH  16  21
ENDBRANCH  14  15
ENDBRANCH   1  14
TORSDOF 6
