REMARK  10 active torsions:
REMARK  status: ('A' for Active; 'I' for Inactive)
REMARK    1  A    between atoms: C5_5  and  C8_8 
REMARK    2  A    between atoms: C8_8  and  N1_9 
REMARK    3  A    between atoms: N1_9  and  C9_10 
REMARK    4  A    between atoms: C9_10  and  C10_11 
REMARK    5  A    between atoms: C12_13  and  O5_32 
REMARK    6  A    between atoms: C13_14  and  O1_18 
REMARK    7  A    between atoms: O1_18  and  C16_19 
REMARK    8  A    between atoms: C16_19  and  C17_20 
REMARK    9  A    between atoms: C17_20  and  C18_21 
REMARK   10  A    between atoms: C17_20  and  O4_31 
ROOT
ATOM      1  C10 <0> d          -7.309  -2.158   5.104  0.00  0.00    -0.029 A 
ATOM      2  C11 <0> d          -6.310  -3.038   4.729  0.00  0.00     0.048 A 
ATOM      3  C12 <0> d          -5.675  -2.886   3.507  0.00  0.00     0.103 A 
ATOM      4  C13 <0> d          -6.039  -1.841   2.663  0.00  0.00     0.119 A 
ATOM      5  C14 <0> d          -7.041  -0.963   3.044  0.00  0.00     0.047 A 
ATOM      6  C15 <0> d          -7.674  -1.123   4.263  0.00  0.00     0.031 A 
ATOM      7 Br1  <0> d          -7.543   0.455   1.897  0.00  0.00    -0.048 Br
ENDROOT
BRANCH   4   8
ATOM      8  O1  <0> d          -5.416  -1.685   1.464  0.00  0.00    -0.344 OA
BRANCH   8   9
ATOM      9  C16 <0> d          -4.250  -0.858   1.441  0.00  0.00     0.212 C 
BRANCH   9  10
ATOM     10  C17 <0> d          -3.692  -0.803   0.018  0.00  0.00     0.175 C 
BRANCH  10  11
ATOM     11  C18 <0> d          -2.397  -0.033   0.016  0.00  0.00    -0.025 A 
ATOM     12  C23 <0> d          -1.192  -0.710   0.004  0.00  0.00     0.049 A 
ATOM     13  C22 <0> d           0.002  -0.004   0.002  0.00  0.00     0.102 A 
ATOM     14  C21 <0> d          -0.017   1.385   0.010  0.00  0.00     0.102 A 
ATOM     15  O2  <0> d           1.181  -0.685  -0.007  0.00  0.00    -0.346 OA
ATOM     16  C20 <0> d          -1.229   2.059   0.019  0.00  0.00     0.040 A 
ATOM     17  O3  <0> d           1.143   2.098   0.002  0.00  0.00    -0.346 OA
ATOM     18  C19 <0> d          -2.415   1.349   0.026  0.00  0.00     0.013 A 
ATOM     19  C25 <0> d           2.334   1.392   0.364  0.00  0.00     0.202 C 
ATOM     20  C24 <0> d           2.347   0.053  -0.387  0.00  0.00     0.202 C 
ENDBRANCH  10  11
BRANCH  10  21
ATOM     21  O4  <0> d          -4.634  -0.153  -0.839  0.00  0.00    -0.389 OA
ATOM     22  H25 <0> d          -4.405  -0.020  -1.906  0.00  0.00     0.210 HD
ENDBRANCH  10  21
ENDBRANCH   9  10
ENDBRANCH   8   9
ENDBRANCH   4   8
BRANCH   3  23
ATOM     23  O5  <0> d          -4.696  -3.753   3.136  0.00  0.00    -0.353 OA
ATOM     24  C26 <0> d          -4.375  -4.801   4.052  0.00  0.00     0.210 C 
ENDBRANCH   3  23
BRANCH   1  25
ATOM     25  C9  <0> d          -8.002  -2.329   6.431  0.00  0.00     0.271 C 
BRANCH  25  26
ATOM     26  N1  <0> d          -9.172  -3.202   6.265  0.00  0.00    -0.067 N 
ATOM     27  H11 <0> d          -8.832  -4.177   5.885  0.00  0.00     0.277 HD
ATOM     28  H29 <0> d          -9.855  -2.742   5.536  0.00  0.00     0.277 HD
BRANCH  26  29
ATOM     29  C8  <0> d          -9.873  -3.391   7.542  0.00  0.00     0.271 C 
BRANCH  29  30
ATOM     30  C5  <0> d         -11.064  -4.290   7.332  0.00  0.00    -0.033 A 
ATOM     31  C4  <0> d         -10.929  -5.659   7.468  0.00  0.00     0.009 A 
ATOM     32  C3  <0> d         -12.022  -6.484   7.276  0.00  0.00     0.007 A 
ATOM     33  C2  <0> d         -13.249  -5.940   6.948  0.00  0.00    -0.062 A 
ATOM     34  C1  <0> d         -14.440  -6.839   6.738  0.00  0.00     0.048 C 
ATOM     35  C7  <0> d         -13.384  -4.571   6.812  0.00  0.00     0.007 A 
ATOM     36  C6  <0> d         -12.293  -3.746   7.008  0.00  0.00     0.009 A 
ENDBRANCH  29  30
ENDBRANCH  26  29
ENDBRANCH  25  26
ENDBRANCH   1  25
TORSDOF 10
