REMARK  3 active torsions:
REMARK  status: ('A' for Active; 'I' for Inactive)
REMARK    1  A    between atoms: C4_4  and  O4_24 
REMARK    2  A    between atoms: C7_7  and  N1_8 
REMARK       I    between atoms: N1_8  and  C8_9 
REMARK    3  A    between atoms: C8_9  and  C9_11 
ROOT
ATOM      1  C9  <0> d          -0.167   0.059   4.883  0.00  0.00     0.225 C 
ATOM      2  C10 <0> d           0.355  -0.804   6.003  0.00  0.00     0.267 C 
ATOM      3  O2  <0> d          -0.404  -1.508   6.635  0.00  0.00    -0.269 OA
ATOM      4  N2  <0> d           1.672  -0.790   6.301  0.00  0.00    -0.322 N 
ATOM      5  C11 <0> d           2.511   0.121   5.646  0.00  0.00     0.070 A 
ATOM      6  C12 <0> d           3.889   0.013   5.754  0.00  0.00     0.056 A 
ATOM      7  C13 <0> d           4.704   0.913   5.091  0.00  0.00     0.036 A 
ATOM      8  C14 <0> d           4.148   1.919   4.320  0.00  0.00     0.026 A 
ATOM      9  C15 <0> d           2.774   2.034   4.213  0.00  0.00     0.041 A 
ATOM     10  C16 <0> d           1.952   1.141   4.879  0.00  0.00     0.098 A 
ATOM     11  O3  <0> d           0.599   1.264   4.806  0.00  0.00    -0.319 OA
ATOM     12 Cl1  <0> d           6.430   0.780   5.227  0.00  0.00    -0.084 Cl
ATOM     13  C17 <0> d          -1.634   0.405   5.148  0.00  0.00     0.068 C 
ATOM     14  H8  <0> d           2.032  -1.403   6.960  0.00  0.00     0.169 HD
ENDROOT
BRANCH   1  15
ATOM     15  C8  <0> d          -0.056  -0.689   3.580  0.00  0.00     0.267 C 
ATOM     16  N1  <0> d           0.025  -0.011   2.418  0.00  0.00    -0.324 N 
ATOM     17  H7  <0> d           0.079   0.957   2.424  0.00  0.00     0.169 HD
ATOM     18  O1  <0> d          -0.040  -1.902   3.577  0.00  0.00    -0.269 OA
BRANCH  16  19
ATOM     19  C7  <0> d           0.034  -0.705   1.201  0.00  0.00     0.041 A 
ATOM     20  C2  <0> d          -0.584  -0.158   0.085  0.00  0.00    -0.033 A 
ATOM     21  C1  <0> d          -1.265   1.183   0.182  0.00  0.00     0.050 C 
ATOM     22  C3  <0> d          -0.571  -0.840  -1.116  0.00  0.00     0.045 A 
ATOM     23  C4  <0> d           0.055  -2.074  -1.206  0.00  0.00     0.068 A 
ATOM     24  C5  <0> d           0.668  -2.625  -0.089  0.00  0.00     0.039 A 
ATOM     25  C6  <0> d           0.655  -1.944   1.111  0.00  0.00     0.033 A 
BRANCH  23  26
ATOM     26  O4  <0> d           0.068  -2.746  -2.388  0.00  0.00    -0.356 OA
ATOM     27  C18 <0> d           0.730  -4.012  -2.409  0.00  0.00     0.210 C 
ENDBRANCH  23  26
ENDBRANCH  16  19
ENDBRANCH   1  15
TORSDOF 3
