REMARK  5 active torsions:
REMARK  status: ('A' for Active; 'I' for Inactive)
REMARK    1  A    between atoms: C12_14  and  C13_16 
REMARK    2  A    between atoms: C13_16  and  C14_17 
REMARK    3  A    between atoms: C14_17  and  C15_18 
REMARK       I    between atoms: C15_18  and  N3_20 
REMARK    4  A    between atoms: N4_23  and  C18_26 
REMARK    5  A    between atoms: C18_26  and  C19_27 
ROOT
ATOM      1  C1  <0> d          -0.018   1.503   0.010  0.00  0.00     0.052 C 
ATOM      2  C2  <0> d           0.002  -0.004   0.002  0.00  0.00    -0.013 A 
ATOM      3  C3  <0> d           0.006  -0.686  -1.199  0.00  0.00     0.042 A 
ATOM      4  C4  <0> d           0.025  -2.069  -1.216  0.00  0.00     0.025 A 
ATOM      5  C5  <0> d           0.040  -2.772  -0.025  0.00  0.00     0.014 A 
ATOM      6  C6  <0> d           0.036  -2.096   1.175  0.00  0.00     0.018 A 
ATOM      7  C7  <0> d           0.023  -0.704   1.205  0.00  0.00     0.051 A 
ATOM      8  N1  <0> d           0.029  -0.250   2.526  0.00  0.00    -0.323 N 
ATOM      9  C8  <0> d           0.051  -1.265   3.412  0.00  0.00     0.267 A 
ATOM     10  O1  <0> d           0.061  -1.170   4.621  0.00  0.00    -0.270 OA
ATOM     11  C9  <0> d           0.048  -2.538   2.611  0.00  0.00     0.279 A 
ATOM     12  C10 <0> d           1.283  -3.390   2.927  0.00  0.00     0.147 A 
ATOM     13  C11 <0> d           0.778  -4.857   2.838  0.00  0.00     0.128 A 
ATOM     14  C12 <0> d          -0.712  -4.741   2.452  0.00  0.00     0.237 C 
ATOM     15  N2  <0> d          -1.118  -3.384   2.925  0.00  0.00     0.113 N 
ATOM     16  C16 <0> d           0.903  -5.357   4.259  0.00  0.00     0.234 A 
ATOM     17  O3  <0> d           0.605  -6.468   4.640  0.00  0.00    -0.272 OA
ATOM     18  N4  <0> d           1.395  -4.381   5.032  0.00  0.00    -0.283 N 
ATOM     19  C17 <0> d           1.656  -3.223   4.383  0.00  0.00     0.235 A 
ATOM     20  O4  <0> d           2.110  -2.213   4.878  0.00  0.00    -0.272 OA
ATOM     21 Cl1  <0> d          -0.014   0.197  -2.694  0.00  0.00    -0.084 Cl
ATOM     22  H9  <0> d           0.019   0.687   2.776  0.00  0.00     0.169 HD
ATOM     23  H10 <0> d          -1.312  -3.379   3.915  0.00  0.00     0.318 HD
ENDROOT
BRANCH  14  24
ATOM     24  C13 <0> d          -1.534  -5.810   3.175  0.00  0.00     0.045 C 
BRANCH  24  25
ATOM     25  C14 <0> d          -2.982  -5.758   2.685  0.00  0.00     0.105 C 
BRANCH  25  26
ATOM     26  C15 <0> d          -3.792  -6.811   3.397  0.00  0.00     0.215 C 
ATOM     27  O2  <0> d          -3.262  -7.532   4.216  0.00  0.00    -0.274 OA
ATOM     28  N3  <0> d          -5.104  -6.951   3.124  0.00  0.00    -0.370 N 
ATOM     29  H15 <0> d          -5.528  -6.374   2.469  0.00  0.00     0.159 HD
ATOM     30  H16 <0> d          -5.625  -7.629   3.582  0.00  0.00     0.159 HD
ENDBRANCH  25  26
ENDBRANCH  24  25
ENDBRANCH  14  24
BRANCH  18  31
ATOM     31  C18 <0> d           1.639  -4.553   6.466  0.00  0.00     0.173 C 
BRANCH  31  32
ATOM     32  C19 <0> d           3.043  -5.057   6.680  0.00  0.00    -0.040 A 
ATOM     33  C24 <0> d           4.082  -4.159   6.846  0.00  0.00     0.009 A 
ATOM     34  C23 <0> d           5.369  -4.622   7.046  0.00  0.00     0.001 A 
ATOM     35  C22 <0> d           5.619  -5.981   7.072  0.00  0.00     0.000 A 
ATOM     36  C21 <0> d           4.582  -6.878   6.900  0.00  0.00     0.001 A 
ATOM     37  C20 <0> d           3.294  -6.416   6.704  0.00  0.00     0.009 A 
ENDBRANCH  31  32
ENDBRANCH  18  31
TORSDOF 5
