REMARK  3 active torsions:
REMARK  status: ('A' for Active; 'I' for Inactive)
REMARK    1  A    between atoms: C2_2  and  C4_4 
REMARK    2  A    between atoms: N1_8  and  C8_11 
REMARK    3  A    between atoms: C13_16  and  N2_17 
ROOT
ATOM      1  C4  <0> d           0.742  -0.511   1.242  0.00  0.00     0.049 A 
ATOM      2  C5  <0> d           0.684  -2.050   1.317  0.00  0.00     0.122 A 
ATOM      3  C6  <0> d          -0.051  -2.314   2.613  0.00  0.00     0.232 A 
ATOM      4  O1  <0> d          -0.315  -3.410   3.061  0.00  0.00    -0.273 OA
ATOM      5  N1  <0> d          -0.364  -1.146   3.188  0.00  0.00    -0.249 N 
ATOM      6  C7  <0> d           0.034  -0.067   2.503  0.00  0.00     0.240 A 
ATOM      7  O2  <0> d          -0.144   1.084   2.840  0.00  0.00    -0.272 OA
ATOM      8  C14 <0> d           2.192  -0.023   1.238  0.00  0.00     0.026 C 
ENDROOT
BRANCH   5   9
ATOM      9  C8  <0> d          -1.052  -1.060   4.408  0.00  0.00     0.071 A 
ATOM     10  C13 <0> d          -2.446  -1.007   4.422  0.00  0.00     0.053 A 
ATOM     11  C12 <0> d          -3.120  -0.928   5.632  0.00  0.00     0.031 A 
ATOM     12  C11 <0> d          -2.411  -0.891   6.818  0.00  0.00     0.002 A 
ATOM     13  C10 <0> d          -1.029  -0.938   6.803  0.00  0.00     0.002 A 
ATOM     14  C9  <0> d          -0.349  -1.022   5.602  0.00  0.00     0.032 A 
BRANCH  10  15
ATOM     15  N2  <0> d          -3.161  -1.038   3.221  0.00  0.00    -0.397 N 
ATOM     16  H14 <0> d          -2.688  -1.097   2.377  0.00  0.00     0.156 HD
ATOM     17  H15 <0> d          -4.130  -1.001   3.233  0.00  0.00     0.156 HD
ENDBRANCH  10  15
ENDBRANCH   5   9
BRANCH   1  18
ATOM     18  C2  <0> d           0.002  -0.004   0.002  0.00  0.00    -0.005 C 
ATOM     19  C1  <0> d          -0.019   1.526   0.010  0.00  0.00     0.011 C 
ATOM     20  C3  <0> d           0.718  -0.497  -1.257  0.00  0.00     0.011 C 
ENDBRANCH   1  18
TORSDOF 3
