REMARK  11 active torsions:
REMARK  status: ('A' for Active; 'I' for Inactive)
REMARK    1  A    between atoms: C2_2  and  C3_3 
REMARK    2  A    between atoms: C2_2  and  N1_11 
REMARK    3  A    between atoms: C3_3  and  C4_4 
REMARK    4  A    between atoms: C3_3  and  C7_7 
REMARK    5  A    between atoms: C3_3  and  O1_10 
REMARK    6  A    between atoms: C4_4  and  C5_5 
REMARK    7  A    between atoms: C7_7  and  C8_8 
REMARK    8  A    between atoms: C11_13  and  C21_25 
REMARK    9  A    between atoms: C12_14  and  O2_15 
REMARK   10  A    between atoms: C13_16  and  O3_18 
REMARK   11  A    between atoms: O3_18  and  C15_19 
ROOT
ATOM      1  N1  <0> d           1.210  -0.936  -0.670  0.00  0.00    -0.355 N 
ATOM      2  C10 <0> d           2.498  -0.688  -0.561  0.00  0.00     0.112 A 
ATOM      3  C11 <0> d           3.410  -1.244  -1.462  0.00  0.00     0.092 A 
ATOM      4  C12 <0> d           2.927  -2.076  -2.490  0.00  0.00     0.119 A 
ATOM      5  C13 <0> d           1.551  -2.305  -2.558  0.00  0.00     0.125 A 
ATOM      6  C14 <0> d           0.723  -1.716  -1.619  0.00  0.00     0.131 A 
ENDROOT
BRANCH   1   7
ATOM      7  C2  <0> d           0.288  -0.333   0.295  0.00  0.00     0.119 C 
ATOM      8  C1  <0> d           0.390   1.192   0.213  0.00  0.00     0.036 C 
BRANCH   7   9
ATOM      9  C3  <0> d           0.656  -0.793   1.707  0.00  0.00     0.084 C 
BRANCH   9  10
ATOM     10  C4  <0> d          -0.307  -0.163   2.716  0.00  0.00     0.066 C 
BRANCH  10  11
ATOM     11  C5  <0> d          -1.725  -0.506   2.338  0.00  0.00    -0.034 C 
ATOM     12  C6  <0> d          -2.501  -1.123   3.194  0.00  0.00     0.007 C 
ENDBRANCH  10  11
ENDBRANCH   9  10
BRANCH   9  13
ATOM     13  C7  <0> d           0.555  -2.318   1.789  0.00  0.00     0.066 C 
BRANCH  13  14
ATOM     14  C8  <0> d           0.948  -2.774   3.171  0.00  0.00    -0.034 C 
ATOM     15  C9  <0> d           0.102  -3.458   3.900  0.00  0.00     0.007 C 
ENDBRANCH  13  14
ENDBRANCH   9  13
BRANCH   9  16
ATOM     16  O1  <0> d           1.993  -0.388   2.008  0.00  0.00    -0.387 OA
ATOM     17  H15 <0> d           2.130   0.569   1.975  0.00  0.00     0.210 HD
ENDBRANCH   9  16
ENDBRANCH   7   9
ENDBRANCH   1   7
BRANCH   5  18
ATOM     18  O3  <0> d           1.032  -3.100  -3.531  0.00  0.00    -0.307 OA
BRANCH  18  19
ATOM     19  C15 <0> d          -0.320  -3.197  -3.623  0.00  0.00     0.076 A 
ATOM     20  C20 <0> d          -0.968  -4.334  -3.161  0.00  0.00     0.037 A 
ATOM     21  C19 <0> d          -2.343  -4.427  -3.251  0.00  0.00     0.003 A 
ATOM     22  C18 <0> d          -3.073  -3.394  -3.810  0.00  0.00     0.000 A 
ATOM     23  C17 <0> d          -2.429  -2.263  -4.277  0.00  0.00     0.003 A 
ATOM     24  C16 <0> d          -1.054  -2.162  -4.184  0.00  0.00     0.037 A 
ENDBRANCH  18  19
ENDBRANCH   5  18
BRANCH   3  25
ATOM     25  C21 <0> d           4.850  -0.965  -1.339  0.00  0.00     0.213 C 
ATOM     26  O4  <0> d           5.258  -0.240  -0.442  0.00  0.00    -0.644 OA
ATOM     27  O5  <0> d           5.639  -1.458  -2.134  0.00  0.00    -0.644 OA
ENDBRANCH   3  25
BRANCH   4  28
ATOM     28  O2  <0> d           3.773  -2.639  -3.387  0.00  0.00    -0.357 OA
ATOM     29  H23 <0> d           4.109  -3.505  -3.121  0.00  0.00     0.218 HD
ENDBRANCH   4  28
TORSDOF 11
