REMARK  3 active torsions:
REMARK  status: ('A' for Active; 'I' for Inactive)
REMARK    1  A    between atoms: N1_2  and  S1_4 
REMARK    2  A    between atoms: S1_4  and  N2_7 
REMARK    3  A    between atoms: C4_9  and  C11_16 
ROOT
ATOM      1  N2  <0> d          -1.501  -1.274  -1.528  0.00  0.00    -0.233 N 
ATOM      2  C3  <0> d          -1.628  -2.498  -2.070  0.00  0.00     0.123 A 
ATOM      3  C4  <0> d          -2.445  -2.426  -3.187  0.00  0.00    -0.006 A 
ATOM      4  C5  <0> d          -2.841  -1.009  -3.315  0.00  0.00     0.003 A 
ATOM      5  C6  <0> d          -2.223  -0.341  -2.246  0.00  0.00     0.062 A 
ATOM      6  C7  <0> d          -2.416   1.028  -2.095  0.00  0.00     0.031 A 
ATOM      7  C8  <0> d          -3.211   1.713  -2.990  0.00  0.00     0.002 A 
ATOM      8  C9  <0> d          -3.823   1.051  -4.042  0.00  0.00     0.001 A 
ATOM      9  C10 <0> d          -3.636  -0.305  -4.213  0.00  0.00     0.014 A 
ENDROOT
BRANCH   3  10
ATOM     10  C11 <0> d          -2.822  -3.490  -4.029  0.00  0.00     0.035 C 
ATOM     11  C12 <0> d          -3.216  -4.707  -3.480  0.00  0.00     0.089 A 
ATOM     12  C15 <0> d          -3.425  -5.854  -4.298  0.00  0.00     0.220 A 
ATOM     13  C13 <0> d          -3.440  -4.855  -2.032  0.00  0.00     0.264 A 
ATOM     14  N4  <0> d          -3.793  -6.989  -3.732  0.00  0.00    -0.166 NA
ATOM     15  O3  <0> d          -3.243  -5.783  -5.634  0.00  0.00    -0.169 OA
ATOM     16  C14 <0> d          -3.988  -7.096  -2.420  0.00  0.00     0.351 A 
ATOM     17  N3  <0> d          -3.821  -6.067  -1.572  0.00  0.00    -0.273 N 
ATOM     18  O4  <0> d          -4.332  -8.173  -1.967  0.00  0.00    -0.244 OA
ATOM     19  H13 <0> d          -3.975  -6.195  -0.623  0.00  0.00     0.173 HD
ATOM     20  O5  <0> d          -3.285  -3.916  -1.274  0.00  0.00    -0.267 OA
ENDBRANCH   3  10
BRANCH   1  21
ATOM     21  S1  <0> d          -0.605  -0.933  -0.178  0.00  0.00     0.326 S 
ATOM     22  O1  <0> d          -0.108  -2.174   0.304  0.00  0.00    -0.182 OA
ATOM     23  O2  <0> d          -1.393  -0.065   0.625  0.00  0.00    -0.182 OA
BRANCH  21  24
ATOM     24  N1  <0> d           0.711  -0.056  -0.671  0.00  0.00    -0.302 N 
ATOM     25  C1  <0> d           0.685   1.407  -0.600  0.00  0.00     0.163 C 
ATOM     26  C2  <0> d           1.901  -0.744  -1.179  0.00  0.00     0.163 C 
ENDBRANCH  21  24
ENDBRANCH   1  21
TORSDOF 3
