REMARK  3 active torsions:
REMARK  status: ('A' for Active; 'I' for Inactive)
REMARK    1  A    between atoms: C4_4  and  C7_7 
REMARK    2  A    between atoms: C9_9  and  C10_13 
REMARK       I    between atoms: C10_13  and  N3_15 
REMARK    3  A    between atoms: N3_15  and  N4_16 
ROOT
ATOM      1  C7  <0> d           3.699  -0.689  -0.037  0.00  0.00     0.107 A 
ATOM      2  C8  <0> d           3.978  -1.913   0.600  0.00  0.00     0.076 A 
ATOM      3  C9  <0> d           5.301  -2.185   0.304  0.00  0.00     0.139 A 
ATOM      4  N1  <0> d           5.744  -1.150  -0.472  0.00  0.00    -0.271 N 
ATOM      5  H1  <0> d           6.641  -1.068  -0.833  0.00  0.00     0.189 HD
ATOM      6  N2  <0> d           4.795  -0.304  -0.656  0.00  0.00    -0.172 NA
ATOM      7 Br1  <0> d           2.796  -2.960   1.641  0.00  0.00    -0.046 Br
ENDROOT
BRANCH   3   8
ATOM      8  C10 <0> d           6.078  -3.357   0.737  0.00  0.00     0.289 C 
ATOM      9  O1  <0> d           5.557  -4.209   1.431  0.00  0.00    -0.264 OA
ATOM     10  N3  <0> d           7.367  -3.485   0.366  0.00  0.00    -0.258 N 
ATOM     11  H7  <0> d           7.782  -2.805  -0.187  0.00  0.00     0.190 HD
BRANCH  10  12
ATOM     12  N4  <0> d           8.107  -4.601   0.779  0.00  0.00    -0.231 N 
ATOM     13  C13 <0> d           8.010  -5.853   0.296  0.00  0.00     0.344 A 
ATOM     14  N5  <0> d           8.856  -6.698   0.896  0.00  0.00    -0.276 N 
ATOM     15  O3  <0> d           7.242  -6.179  -0.588  0.00  0.00    -0.245 OA
ATOM     16  C12 <0> d           9.589  -6.080   1.843  0.00  0.00     0.245 A 
ATOM     17  H10 <0> d           8.931  -7.641   0.678  0.00  0.00     0.173 HD
ATOM     18  C11 <0> d           9.138  -4.633   1.830  0.00  0.00     0.257 A 
ATOM     19  O2  <0> d          10.433  -6.578   2.557  0.00  0.00    -0.271 OA
ENDBRANCH  10  12
ENDBRANCH   3   8
BRANCH   1  20
ATOM     20  C4  <0> d           2.402   0.033  -0.021  0.00  0.00    -0.004 A 
ATOM     21  C3  <0> d           2.377   1.425  -0.013  0.00  0.00     0.014 A 
ATOM     22  C2  <0> d           1.169   2.092   0.002  0.00  0.00     0.001 A 
ATOM     23  C1  <0> d          -0.017   1.379   0.010  0.00  0.00     0.000 A 
ATOM     24  C6  <0> d           0.002  -0.004   0.002  0.00  0.00     0.001 A 
ATOM     25  C5  <0> d           1.205  -0.680  -0.013  0.00  0.00     0.014 A 
ENDBRANCH   1  20
TORSDOF 3
