REMARK  5 active torsions:
REMARK  status: ('A' for Active; 'I' for Inactive)
REMARK    1  A    between atoms: C3_4  and  C5_7 
REMARK    2  A    between atoms: C5_7  and  C6_8 
REMARK    3  A    between atoms: C6_8  and  C7_9 
REMARK       I    between atoms: C7_9  and  N3_11 
REMARK    4  A    between atoms: N3_11  and  C8_12 
REMARK    5  A    between atoms: C15_20  and  N6_22 
ROOT
ATOM      1  C8  <0> d           7.702   0.836  -2.677  0.00  0.00     0.121 C 
ATOM      2  C9  <0> d           8.207   0.243  -3.992  0.00  0.00     0.030 C 
ATOM      3  C10 <0> d           9.718   0.484  -4.085  0.00  0.00     0.008 C 
ATOM      4  C11 <0> d           9.959   1.978  -4.294  0.00  0.00     0.060 C 
ATOM      5  C12 <0> d           9.211   2.781  -3.264  0.00  0.00     0.063 A 
ATOM      6  C13 <0> d           8.172   2.256  -2.525  0.00  0.00     0.008 A 
ATOM      7  C14 <0> d           7.534   3.074  -1.601  0.00  0.00     0.147 A 
ATOM      8  N4  <0> d           7.938   4.324  -1.452  0.00  0.00    -0.075 NA
ATOM      9  C15 <0> d           8.942   4.797  -2.175  0.00  0.00     0.723 A 
ATOM     10  N5  <0> d           9.568   4.044  -3.065  0.00  0.00    -0.067 NA
ENDROOT
BRANCH   1  11
ATOM     11  N3  <0> d           6.237   0.806  -2.663  0.00  0.00    -0.352 N 
ATOM     12  C7  <0> d           5.575   0.786  -1.490  0.00  0.00     0.218 C 
ATOM     13  O1  <0> d           6.191   0.793  -0.445  0.00  0.00    -0.274 OA
ATOM     14  H11 <0> d           5.745   0.801  -3.498  0.00  0.00     0.163 HD
BRANCH  12  15
ATOM     15  C6  <0> d           4.068   0.756  -1.475  0.00  0.00     0.107 C 
BRANCH  15  16
ATOM     16  C5  <0> d           3.572   0.738  -0.028  0.00  0.00     0.051 C 
BRANCH  16  17
ATOM     17  C3  <0> d           2.066   0.708  -0.014  0.00  0.00    -0.021 A 
ATOM     18  C2  <0> d           1.292  -0.402  -0.012  0.00  0.00     0.120 A 
ATOM     19  N1  <0> d           0.002  -0.004   0.002  0.00  0.00    -0.285 N 
ATOM     20  C1  <0> d          -1.171  -0.882   0.009  0.00  0.00     0.179 C 
ATOM     21  N2  <0> d          -0.017   1.397   0.010  0.00  0.00    -0.185 NA
ATOM     22  C4  <0> d           1.220   1.822   0.000  0.00  0.00     0.147 A 
ENDBRANCH  16  17
ENDBRANCH  15  16
ENDBRANCH  12  15
ENDBRANCH   1  11
BRANCH   9  23
ATOM     23  N6  <0> d           9.344   6.109  -1.996  0.00  0.00    -0.223 N 
ATOM     24  C16 <0> d          10.452   6.650  -2.787  0.00  0.00     0.168 C 
ATOM     25  C17 <0> d           8.662   6.958  -1.016  0.00  0.00     0.168 C 
ENDBRANCH   9  23
TORSDOF 5
