REMARK  5 active torsions:
REMARK  status: ('A' for Active; 'I' for Inactive)
REMARK    1  A    between atoms: C3_4  and  C5_7 
REMARK    2  A    between atoms: C8_11  and  N5_13 
REMARK    3  A    between atoms: N5_13  and  C9_14 
REMARK    4  A    between atoms: C9_14  and  C10_15 
REMARK    5  A    between atoms: C10_15  and  N6_20 
ROOT
ATOM      1  C5  <0> d          -8.063   0.437  -1.429  0.00  0.00     0.090 A 
ATOM      2  C6  <0> d          -7.917  -0.602  -2.354  0.00  0.00     0.053 A 
ATOM      3  C7  <0> d          -6.648  -0.901  -2.814  0.00  0.00     0.139 A 
ATOM      4  N3  <0> d          -5.616  -0.201  -2.369  0.00  0.00    -0.075 NA
ATOM      5  C8  <0> d          -5.783   0.778  -1.492  0.00  0.00     0.722 A 
ATOM      6  N4  <0> d          -6.979   1.094  -1.021  0.00  0.00    -0.062 NA
ENDROOT
BRANCH   5   7
ATOM      7  N5  <0> d          -4.677   1.485  -1.052  0.00  0.00    -0.220 N 
ATOM      8  H8  <0> d          -4.800   2.301  -0.324  0.00  0.00     0.177 HD
BRANCH   7   9
ATOM      9  C9  <0> d          -3.344   1.148  -1.556  0.00  0.00     0.178 C 
BRANCH   9  10
ATOM     10  C10 <0> d          -2.294   1.985  -0.823  0.00  0.00     0.152 C 
ATOM     11  C13 <0> d          -2.361   1.651   0.684  0.00  0.00     0.114 C 
ATOM     12  S1  <0> d          -0.576   1.733   1.152  0.00  0.00    -0.166 SA
ATOM     13  C12 <0> d           0.116   1.167  -0.463  0.00  0.00     0.076 C 
ATOM     14  C11 <0> d          -0.935   1.720  -1.452  0.00  0.00     0.052 C 
BRANCH  10  15
ATOM     15  N6  <0> d          -2.623   3.406  -1.000  0.00  0.00    -0.068 N 
ATOM     16  C14 <0> d          -1.664   4.261  -0.289  0.00  0.00     0.270 C 
ATOM     17  C15 <0> d          -2.687   3.758  -2.425  0.00  0.00     0.270 C 
ATOM     18  H23 <0> d          -3.618   3.579  -0.564  0.00  0.00     0.280 HD
ENDBRANCH  10  15
ENDBRANCH   9  10
ENDBRANCH   7   9
ENDBRANCH   5   7
BRANCH   1  19
ATOM     19  C3  <0> d          -9.402   0.795  -0.905  0.00  0.00     0.030 A 
ATOM     20  C2  <0> d          -9.679   1.783  -0.003  0.00  0.00     0.127 A 
ATOM     21  N1  <0> d         -11.008   1.782   0.207  0.00  0.00    -0.285 N 
ATOM     22  C1  <0> d         -11.736   2.683   1.104  0.00  0.00     0.179 C 
ATOM     23  N2  <0> d         -11.576   0.773  -0.579  0.00  0.00    -0.185 NA
ATOM     24  C4  <0> d         -10.624   0.183  -1.251  0.00  0.00     0.154 A 
ENDBRANCH   1  19
TORSDOF 5
