REMARK  3 active torsions:
REMARK  status: ('A' for Active; 'I' for Inactive)
REMARK    1  A    between atoms: C4_6  and  C5_7 
REMARK    2  A    between atoms: C8_10  and  O3_15 
REMARK    3  A    between atoms: C9_11  and  O2_13 
ROOT
ATOM      1  C1  <0> d           0.572  -8.470   2.449  0.00  0.00     0.162 C 
ATOM      2  N1  <0> d           0.438  -7.012   2.397  0.00  0.00    -0.294 N 
ATOM      3  C2  <0> d           0.319  -6.405   1.198  0.00  0.00     0.265 A 
ATOM      4  O1  <0> d           0.322  -7.050   0.167  0.00  0.00    -0.267 OA
ATOM      5  C3  <0> d           0.185  -4.934   1.173  0.00  0.00     0.101 A 
ATOM      6  C4  <0> d           0.060  -4.242  -0.016  0.00  0.00     0.034 C 
ATOM      7  C12 <0> d           0.198  -4.237   2.474  0.00  0.00     0.265 A 
ATOM      8  O4  <0> d           0.097  -3.026   2.535  0.00  0.00    -0.267 OA
ATOM      9  N2  <0> d           0.319  -4.979   3.593  0.00  0.00    -0.294 N 
ATOM     10  C13 <0> d           0.437  -6.314   3.540  0.00  0.00     0.185 A 
ATOM     11  S1  <0> d           0.593  -7.172   5.014  0.00  0.00    -0.040 SA
ATOM     12  C14 <0> d           0.329  -4.312   4.897  0.00  0.00     0.162 C 
ENDROOT
BRANCH   6  13
ATOM     13  C5  <0> d          -0.293  -2.822  -0.002  0.00  0.00    -0.032 A 
ATOM     14  C10 <0> d           0.409  -1.914  -0.809  0.00  0.00     0.051 A 
ATOM     15  C9  <0> d           0.068  -0.578  -0.794  0.00  0.00     0.102 A 
ATOM     16  C8  <0> d          -0.966  -0.130   0.030  0.00  0.00     0.099 A 
ATOM     17  C7  <0> d          -1.663  -1.028   0.830  0.00  0.00     0.040 A 
ATOM     18  C6  <0> d          -1.334  -2.364   0.819  0.00  0.00     0.014 A 
BRANCH  15  19
ATOM     19  O2  <0> d           0.742   0.304  -1.579  0.00  0.00    -0.353 OA
ATOM     20  C11 <0> d           1.788  -0.223  -2.397  0.00  0.00     0.210 C 
ENDBRANCH  15  19
BRANCH  16  21
ATOM     21  O3  <0> d          -1.296   1.186   0.045  0.00  0.00    -0.358 OA
ATOM     22  H11 <0> d          -0.815   1.704   0.705  0.00  0.00     0.217 HD
ENDBRANCH  16  21
ENDBRANCH   6  13
TORSDOF 3
