REMARK  2 active torsions:
REMARK  status: ('A' for Active; 'I' for Inactive)
REMARK    1  A    between atoms: N2_9  and  S1_12 
REMARK    2  A    between atoms: S1_12  and  C10_15 
ROOT
ATOM      1  C1  <0> d          -0.018   1.503   0.010  0.00  0.00     0.068 C 
ATOM      2  C2  <0> d           0.002  -0.004   0.002  0.00  0.00     0.008 A 
ATOM      3  C3  <0> d           0.008  -0.789  -1.096  0.00  0.00     0.027 A 
ATOM      4  C4  <0> d           0.024  -2.130  -0.658  0.00  0.00     0.029 A 
ATOM      5  C5  <0> d           0.026  -2.111   0.684  0.00  0.00     0.035 A 
ATOM      6  N1  <0> d           0.023  -0.807   1.100  0.00  0.00    -0.351 N 
ATOM      7  C6  <0> d           0.044  -0.381   2.504  0.00  0.00     0.149 C 
ATOM      8  C7  <0> d          -0.395  -1.549   3.393  0.00  0.00     0.156 C 
ATOM      9  N2  <0> d           0.309  -2.770   2.975  0.00  0.00    -0.295 N 
ATOM     10  C8  <0> d           0.034  -3.295   1.623  0.00  0.00     0.142 C 
ATOM     11  C9  <0> d          -1.324  -3.999   1.587  0.00  0.00     0.040 C 
ENDROOT
BRANCH   9  12
ATOM     12  S1  <0> d           1.371  -3.532   3.991  0.00  0.00     0.264 S 
ATOM     13  O1  <0> d           2.260  -4.275   3.168  0.00  0.00    -0.200 OA
ATOM     14  O2  <0> d           1.827  -2.551   4.913  0.00  0.00    -0.200 OA
BRANCH  12  15
ATOM     15  C10 <0> d           0.447  -4.708   4.923  0.00  0.00     0.115 A 
ATOM     16  C12 <0> d           0.212  -6.040   4.566  0.00  0.00     0.165 A 
ATOM     17  N4  <0> d          -0.508  -6.595   5.507  0.00  0.00    -0.186 NA
ATOM     18  N3  <0> d          -0.762  -5.629   6.490  0.00  0.00    -0.288 N 
ATOM     19  C11 <0> d          -0.165  -4.481   6.108  0.00  0.00     0.136 A 
ATOM     20  H2  <0> d          -1.276  -5.763   7.301  0.00  0.00     0.188 HD
ENDBRANCH  12  15
ENDBRANCH   9  12
TORSDOF 2
