REMARK  3 active torsions:
REMARK  status: ('A' for Active; 'I' for Inactive)
REMARK    1  A    between atoms: C3_3  and  O1_14 
REMARK    2  A    between atoms: C4_4  and  N1_8 
REMARK    3  A    between atoms: O1_14  and  C11_15 
ROOT
ATOM      1  C1  <0> d          -0.006   1.361  -0.241  0.00  0.00     0.045 A 
ATOM      2  C2  <0> d           1.180   2.073  -0.238  0.00  0.00     0.042 A 
ATOM      3  C3  <0> d           2.381   1.419  -0.024  0.00  0.00     0.096 A 
ATOM      4  C4  <0> d           2.393   0.042   0.188  0.00  0.00     0.067 A 
ATOM      5  C5  <0> d           1.201  -0.668   0.184  0.00  0.00     0.074 A 
ATOM      6  C6  <0> d           0.004  -0.007  -0.031  0.00  0.00     0.118 A 
ATOM      7  F1  <0> d          -1.157  -0.698  -0.035  0.00  0.00    -0.206 F 
ENDROOT
BRANCH   3   8
ATOM      8  O1  <0> d           3.547   2.118  -0.022  0.00  0.00    -0.343 OA
BRANCH   8   9
ATOM      9  C11 <0> d           3.451   3.541  -0.125  0.00  0.00     0.143 C 
ATOM     10  C14 <0> d           4.717   4.199   0.495  0.00  0.00     0.172 C 
ATOM     11  S1  <0> d           4.646   5.866  -0.286  0.00  0.00     0.147 S 
ATOM     12  C13 <0> d           3.593   5.476  -1.742  0.00  0.00     0.143 C 
ATOM     13  O2  <0> d           3.938   6.750   0.574  0.00  0.00    -0.228 OA
ATOM     14  O3  <0> d           5.946   6.222  -0.737  0.00  0.00    -0.228 OA
ATOM     15  C12 <0> d           3.375   3.950  -1.605  0.00  0.00     0.048 C 
ENDBRANCH   8   9
ENDBRANCH   3   8
BRANCH   4  16
ATOM     16  N1  <0> d           3.604  -0.625   0.404  0.00  0.00    -0.375 N 
ATOM     17  C10 <0> d           4.376  -1.175  -0.721  0.00  0.00     0.150 C 
ATOM     18  C9  <0> d           4.726  -2.629  -0.410  0.00  0.00     0.252 C 
ATOM     19  N2  <0> d           5.410  -2.702   0.888  0.00  0.00    -0.072 N 
ATOM     20  C8  <0> d           4.498  -2.276   1.957  0.00  0.00     0.252 C 
ATOM     21  H9  <0> d           6.218  -2.098   0.875  0.00  0.00     0.277 HD
ATOM     22  H20 <0> d           5.705  -3.652   1.058  0.00  0.00     0.277 HD
ATOM     23  C7  <0> d           4.139  -0.800   1.763  0.00  0.00     0.150 C 
ENDBRANCH   4  16
TORSDOF 3
