REMARK  3 active torsions:
REMARK  status: ('A' for Active; 'I' for Inactive)
REMARK    1  A    between atoms: C5_5  and  N1_8 
REMARK    2  A    between atoms: C10_12  and  C11_13 
REMARK    3  A    between atoms: C15_19  and  O3_20 
ROOT
ATOM      1  C11 <0> d          -6.827  -0.558  -0.091  0.00  0.00     0.024 A 
ATOM      2  C12 <0> d          -7.940  -0.760   0.752  0.00  0.00    -0.021 A 
ATOM      3  C13 <0> d          -8.688  -1.922   0.605  0.00  0.00     0.119 A 
ATOM      4  C14 <0> d          -8.293  -2.891  -0.419  0.00  0.00     0.270 A 
ATOM      5  O2  <0> d          -8.933  -3.916  -0.567  0.00  0.00    -0.266 OA
ATOM      6  N2  <0> d          -7.222  -2.648  -1.197  0.00  0.00    -0.297 N 
ATOM      7  C15 <0> d          -6.498  -1.520  -1.059  0.00  0.00     0.155 A 
ATOM      8  C16 <0> d          -6.838  -3.627  -2.218  0.00  0.00     0.161 C 
ATOM      9  C17 <0> d          -9.825  -2.166   1.440  0.00  0.00     0.105 C 
ATOM     10  N3  <0> d         -10.727  -2.361   2.102  0.00  0.00    -0.191 NA
ATOM     11  C18 <0> d          -8.309   0.264   1.793  0.00  0.00     0.051 C 
ENDROOT
BRANCH   1  12
ATOM     12  C10 <0> d          -6.048   0.613   0.035  0.00  0.00     0.035 C 
ATOM     13  C9  <0> d          -4.688   0.518   0.299  0.00  0.00     0.061 A 
ATOM     14  C8  <0> d          -3.700   1.605   0.308  0.00  0.00     0.281 A 
ATOM     15  C19 <0> d          -3.924  -0.692   0.631  0.00  0.00     0.067 A 
ATOM     16  N1  <0> d          -2.518   1.032   0.614  0.00  0.00    -0.197 N 
ATOM     17  O1  <0> d          -3.906   2.786   0.083  0.00  0.00    -0.265 OA
ATOM     18  N4  <0> d          -2.685  -0.341   0.795  0.00  0.00    -0.168 NA
ATOM     19  C20 <0> d          -4.476  -2.089   0.752  0.00  0.00     0.073 C 
BRANCH  16  20
ATOM     20  C5  <0> d          -1.301   1.714   0.729  0.00  0.00     0.062 A 
ATOM     21  C4  <0> d          -0.141   1.021   1.050  0.00  0.00     0.032 A 
ATOM     22  C3  <0> d           1.059   1.696   1.157  0.00  0.00     0.009 A 
ATOM     23  C2  <0> d           1.106   3.062   0.948  0.00  0.00    -0.062 A 
ATOM     24  C1  <0> d           2.417   3.795   1.064  0.00  0.00     0.048 C 
ATOM     25  C7  <0> d          -0.047   3.756   0.632  0.00  0.00     0.009 A 
ATOM     26  C6  <0> d          -1.251   3.087   0.524  0.00  0.00     0.032 A 
ENDBRANCH  16  20
ENDBRANCH   1  12
BRANCH   7  27
ATOM     27  O3  <0> d          -5.438  -1.313  -1.861  0.00  0.00    -0.345 OA
ATOM     28  H9  <0> d          -5.242  -1.997  -2.516  0.00  0.00     0.219 HD
ENDBRANCH   7  27
TORSDOF 3
