REMARK  3 active torsions:
REMARK  status: ('A' for Active; 'I' for Inactive)
REMARK    1  A    between atoms: N1_4  and  C7_9 
REMARK    2  A    between atoms: C7_9  and  N2_10 
REMARK    3  A    between atoms: C9_13  and  C12_18 
ROOT
ATOM      1  N2  <0> d          -2.721  -3.926  -0.477  0.00  0.00    -0.239 N 
ATOM      2  C8  <0> d          -2.818  -4.244  -1.783  0.00  0.00     0.262 A 
ATOM      3  O2  <0> d          -2.954  -3.481  -2.714  0.00  0.00    -0.270 OA
ATOM      4  C9  <0> d          -2.720  -5.756  -1.845  0.00  0.00     0.140 A 
ATOM      5  N3  <0> d          -2.565  -6.151  -0.434  0.00  0.00    -0.321 N 
ATOM      6  C10 <0> d          -2.572  -5.014   0.287  0.00  0.00     0.328 A 
ATOM      7  O3  <0> d          -2.460  -4.981   1.496  0.00  0.00    -0.247 OA
ATOM      8  C11 <0> d          -3.999  -6.354  -2.434  0.00  0.00     0.054 C 
ATOM      9  H15 <0> d          -2.472  -7.053  -0.092  0.00  0.00     0.165 HD
ENDROOT
BRANCH   1  10
ATOM     10  C7  <0> d          -2.768  -2.557   0.042  0.00  0.00     0.409 C 
BRANCH  10  11
ATOM     11  N1  <0> d          -1.407  -2.003   0.085  0.00  0.00     0.111 N 
ATOM     12  C3  <0> d          -1.434  -0.535   0.015  0.00  0.00     0.306 C 
ATOM     13  C2  <0> d           0.002  -0.004   0.002  0.00  0.00     0.146 C 
ATOM     14  C1  <0> d          -0.019   1.526   0.010  0.00  0.00     0.041 C 
ATOM     15  O1  <0> d           0.692  -0.479   1.161  0.00  0.00    -0.378 OA
ATOM     16  C5  <0> d           0.736  -1.905   1.261  0.00  0.00     0.146 C 
ATOM     17  C4  <0> d          -0.692  -2.455   1.287  0.00  0.00     0.306 C 
ATOM     18  C6  <0> d           1.461  -2.305   2.548  0.00  0.00     0.041 C 
ENDBRANCH  10  11
ENDBRANCH   1  10
BRANCH   4  19
ATOM     19  C12 <0> d          -1.517  -6.176  -2.648  0.00  0.00    -0.021 A 
ATOM     20  C17 <0> d          -0.871  -7.364  -2.357  0.00  0.00     0.011 A 
ATOM     21  C16 <0> d           0.229  -7.752  -3.097  0.00  0.00     0.019 A 
ATOM     22  C15 <0> d           0.692  -6.948  -4.123  0.00  0.00     0.011 A 
ATOM     23  C14 <0> d           0.049  -5.757  -4.411  0.00  0.00     0.019 A 
ATOM     24 Br1  <0> d           2.202  -7.476  -5.131  0.00  0.00    -0.051 Br
ATOM     25  C13 <0> d          -1.055  -5.372  -3.674  0.00  0.00     0.011 A 
ENDBRANCH   4  19
TORSDOF 3
