REMARK  7 active torsions:
REMARK  status: ('A' for Active; 'I' for Inactive)
REMARK    1  A    between atoms: C3_3  and  C10_12 
REMARK    2  A    between atoms: C10_12  and  C11_14 
REMARK    3  A    between atoms: C11_14  and  N2_15 
REMARK    4  A    between atoms: N2_15  and  C13_17 
REMARK    5  A    between atoms: C13_17  and  C14_18 
REMARK       I    between atoms: C14_18  and  N3_20 
REMARK    6  A    between atoms: N3_20  and  C15_21 
REMARK    7  A    between atoms: C20_26  and  S1_27 
ROOT
ATOM      1  N2  <0> d          -0.376   0.989  -4.382  0.00  0.00    -0.060 N 
ATOM      2  C12 <0> d           0.658   0.158  -5.014  0.00  0.00     0.270 C 
ATOM      3  H24 <0> d          -1.288   0.659  -4.658  0.00  0.00     0.280 HD
ENDROOT
BRANCH   1   4
ATOM      4  C11 <0> d          -0.246   0.905  -2.921  0.00  0.00     0.318 C 
BRANCH   4   5
ATOM      5  C10 <0> d          -0.537  -0.503  -2.471  0.00  0.00     0.188 C 
ATOM      6  O1  <0> d          -0.927  -1.328  -3.272  0.00  0.00    -0.290 OA
BRANCH   5   7
ATOM      7  C3  <0> d          -0.355  -0.865  -1.113  0.00  0.00     0.046 A 
ATOM      8  C2  <0> d          -1.314  -0.876  -0.123  0.00  0.00     0.020 A 
ATOM      9  C1  <0> d          -2.760  -0.496  -0.311  0.00  0.00     0.069 C 
ATOM     10  N1  <0> d          -0.761  -1.272   1.039  0.00  0.00    -0.358 N 
ATOM     11  C9  <0> d           0.581  -1.550   0.871  0.00  0.00     0.043 A 
ATOM     12  H1  <0> d          -1.240  -1.354   1.879  0.00  0.00     0.166 HD
ATOM     13  C4  <0> d           0.900  -1.307  -0.473  0.00  0.00     0.006 A 
ATOM     14  C8  <0> d           1.576  -1.986   1.740  0.00  0.00     0.030 A 
ATOM     15  C5  <0> d           2.201  -1.502  -0.929  0.00  0.00     0.015 A 
ATOM     16  C6  <0> d           3.173  -1.934  -0.053  0.00  0.00     0.001 A 
ATOM     17  C7  <0> d           2.860  -2.175   1.276  0.00  0.00     0.002 A 
ENDBRANCH   5   7
ENDBRANCH   4   5
ENDBRANCH   1   4
BRANCH   1  18
ATOM     18  C13 <0> d          -0.211   2.385  -4.808  0.00  0.00     0.337 C 
BRANCH  18  19
ATOM     19  C14 <0> d          -0.465   2.491  -6.290  0.00  0.00     0.248 C 
ATOM     20  O2  <0> d          -0.755   1.501  -6.928  0.00  0.00    -0.271 OA
ATOM     21  N3  <0> d          -0.370   3.686  -6.906  0.00  0.00    -0.325 N 
ATOM     22  H16 <0> d          -0.189   4.486  -6.388  0.00  0.00     0.169 HD
BRANCH  21  23
ATOM     23  C15 <0> d          -0.532   3.772  -8.296  0.00  0.00     0.051 A 
ATOM     24  C20 <0> d           0.096   4.792  -9.011  0.00  0.00     0.026 A 
ATOM     25  C19 <0> d          -0.064   4.868 -10.388  0.00  0.00     0.021 A 
ATOM     26  C18 <0> d          -0.853   3.942 -11.044  0.00  0.00     0.002 A 
ATOM     27  C17 <0> d          -1.480   2.935 -10.333  0.00  0.00     0.002 A 
ATOM     28  C16 <0> d          -1.322   2.848  -8.963  0.00  0.00     0.031 A 
BRANCH  24  29
ATOM     29  S1  <0> d           1.096   5.975  -8.171  0.00  0.00    -0.132 SA
ATOM     30  C21 <0> d           1.682   7.071  -9.492  0.00  0.00     0.095 C 
ENDBRANCH  24  29
ENDBRANCH  21  23
ENDBRANCH  18  19
ENDBRANCH   1  18
TORSDOF 7
