REMARK  4 active torsions:
REMARK  status: ('A' for Active; 'I' for Inactive)
REMARK       I    between atoms: C2_2  and  N1_4 
REMARK    1  A    between atoms: N1_4  and  C3_5 
REMARK    2  A    between atoms: C3_5  and  C4_6 
REMARK    3  A    between atoms: C7_9  and  C8_11 
REMARK       I    between atoms: C8_11  and  N2_13 
REMARK       I    between atoms: N3_16  and  C13_19 
REMARK    4  A    between atoms: C13_19  and  C14_21 
ROOT
ATOM      1  C8  <0> d          -6.114  -4.491   1.147  0.00  0.00     0.260 C 
ATOM      2  O2  <0> d          -7.065  -4.614   0.398  0.00  0.00    -0.267 OA
ATOM      3  N2  <0> d          -6.296  -4.544   2.482  0.00  0.00    -0.344 N 
ATOM      4  C9  <0> d          -5.220  -4.147   3.400  0.00  0.00     0.146 C 
ATOM      5  C10 <0> d          -5.756  -3.062   4.343  0.00  0.00     0.146 C 
ATOM      6  N3  <0> d          -7.035  -3.519   4.905  0.00  0.00    -0.345 N 
ATOM      7  C11 <0> d          -8.111  -3.916   3.986  0.00  0.00     0.146 C 
ATOM      8  C12 <0> d          -7.577  -4.996   3.044  0.00  0.00     0.146 C 
ATOM      9  C13 <0> d          -7.218  -3.573   6.239  0.00  0.00     0.255 C 
ATOM     10  O3  <0> d          -8.244  -4.039   6.694  0.00  0.00    -0.267 OA
ENDROOT
BRANCH   1  11
ATOM     11  C7  <0> d          -4.771  -4.284   0.599  0.00  0.00     0.073 A 
ATOM     12  C6  <0> d          -4.387  -4.069  -0.716  0.00  0.00     0.026 A 
ATOM     13  C5  <0> d          -3.038  -3.907  -0.925  0.00  0.00     0.018 A 
ATOM     14  C4  <0> d          -2.195  -3.966   0.135  0.00  0.00     0.001 A 
ATOM     15  S1  <0> d          -3.203  -4.249   1.448  0.00  0.00    -0.088 SA
BRANCH  14  16
ATOM     16  C3  <0> d          -0.695  -3.817   0.134  0.00  0.00     0.168 C 
BRANCH  16  17
ATOM     17  N1  <0> d          -0.344  -2.408   0.324  0.00  0.00    -0.357 N 
ATOM     18  C2  <0> d           0.951  -2.035   0.357  0.00  0.00     0.213 C 
ATOM     19  C1  <0> d           1.312  -0.585   0.552  0.00  0.00     0.117 C 
ATOM     20  O1  <0> d           1.825  -2.866   0.230  0.00  0.00    -0.274 OA
ATOM     21  H4  <0> d          -1.043  -1.743   0.425  0.00  0.00     0.162 HD
ENDBRANCH  16  17
ENDBRANCH  14  16
ENDBRANCH   1  11
BRANCH   9  22
ATOM     22  C14 <0> d          -6.173  -3.067   7.147  0.00  0.00     0.056 A 
ATOM     23  C17 <0> d          -5.880  -3.517   8.401  0.00  0.00     0.158 A 
ATOM     24  O4  <0> d          -4.866  -2.793   8.884  0.00  0.00    -0.334 OA
ATOM     25  C16 <0> d          -4.474  -1.866   7.996  0.00  0.00     0.142 A 
ATOM     26  C15 <0> d          -5.231  -1.966   6.893  0.00  0.00     0.043 A 
ENDBRANCH   9  22
TORSDOF 4
