REMARK  6 active torsions:
REMARK  status: ('A' for Active; 'I' for Inactive)
REMARK    1  A    between atoms: C7_8  and  N4_25 
REMARK    2  A    between atoms: C8_9  and  C9_11 
REMARK       I    between atoms: C9_11  and  N2_13 
REMARK    3  A    between atoms: N2_13  and  N3_14 
REMARK    4  A    between atoms: C10_15  and  C11_16 
REMARK    5  A    between atoms: C14_19  and  O3_24 
REMARK    6  A    between atoms: C15_20  and  O2_22 
ROOT
ATOM      1  C9  <0> d           2.709   8.020   3.207  0.00  0.00     0.281 C 
ATOM      2  O1  <0> d           1.923   8.919   2.967  0.00  0.00    -0.265 OA
ATOM      3  N2  <0> d           4.032   8.273   3.240  0.00  0.00    -0.243 N 
ATOM      4  H5  <0> d           4.658   7.556   3.431  0.00  0.00     0.192 HD
ENDROOT
BRANCH   1   5
ATOM      5  C8  <0> d           2.231   6.708   3.450  0.00  0.00     0.103 A 
ATOM      6  C7  <0> d           0.928   6.262   3.459  0.00  0.00     0.062 A 
ATOM      7  C6  <0> d           0.682   4.855   3.737  0.00  0.00     0.034 A 
ATOM      8  C2  <0> d          -0.556   4.169   3.800  0.00  0.00    -0.045 A 
ATOM      9  C5  <0> d           1.840   4.079   3.975  0.00  0.00     0.111 A 
ATOM     10  C1  <0> d          -1.850   4.903   3.563  0.00  0.00     0.049 C 
ATOM     11  C3  <0> d          -0.558   2.821   4.076  0.00  0.00     0.034 A 
ATOM     12  C4  <0> d           0.635   2.149   4.300  0.00  0.00     0.032 A 
ATOM     13  N1  <0> d           1.785   2.792   4.240  0.00  0.00    -0.246 NA
ATOM     14  C18 <0> d           0.616   0.674   4.606  0.00  0.00     0.070 C 
ATOM     15  S1  <0> d           3.173   5.241   3.818  0.00  0.00    -0.062 SA
BRANCH   6  16
ATOM     16  N4  <0> d          -0.124   7.132   3.209  0.00  0.00    -0.397 N 
ATOM     17  H14 <0> d          -1.039   6.834   3.331  0.00  0.00     0.156 HD
ATOM     18  H15 <0> d           0.056   8.038   2.912  0.00  0.00     0.156 HD
ENDBRANCH   6  16
ENDBRANCH   1   5
BRANCH   3  19
ATOM     19  N3  <0> d           4.504   9.569   2.999  0.00  0.00    -0.183 NA
ATOM     20  C10 <0> d           5.780   9.790   2.914  0.00  0.00     0.150 C 
BRANCH  20  21
ATOM     21  C11 <0> d           6.720   8.658   2.817  0.00  0.00    -0.014 A 
ATOM     22  C16 <0> d           8.043   8.809   3.239  0.00  0.00     0.052 A 
ATOM     23  C15 <0> d           8.920   7.744   3.146  0.00  0.00     0.102 A 
ATOM     24  C14 <0> d           8.483   6.524   2.634  0.00  0.00     0.099 A 
ATOM     25  C13 <0> d           7.168   6.374   2.216  0.00  0.00     0.040 A 
ATOM     26  C12 <0> d           6.287   7.430   2.310  0.00  0.00     0.016 A 
BRANCH  23  27
ATOM     27  O2  <0> d          10.209   7.886   3.554  0.00  0.00    -0.353 OA
ATOM     28  C17 <0> d          10.589   9.165   4.068  0.00  0.00     0.210 C 
ENDBRANCH  23  27
BRANCH  24  29
ATOM     29  O3  <0> d           9.346   5.478   2.544  0.00  0.00    -0.358 OA
ATOM     30  H13 <0> d           9.367   4.916   3.330  0.00  0.00     0.217 HD
ENDBRANCH  24  29
ENDBRANCH  20  21
ENDBRANCH   3  19
TORSDOF 6
