REMARK  7 active torsions:
REMARK  status: ('A' for Active; 'I' for Inactive)
REMARK    1  A    between atoms: N1_2  and  C2_3 
REMARK    2  A    between atoms: N1_2  and  C8_10 
REMARK    3  A    between atoms: C2_3  and  C3_4 
REMARK    4  A    between atoms: C8_10  and  C9_11 
REMARK    5  A    between atoms: C11_13  and  C13_16 
REMARK    6  A    between atoms: C14_17  and  C15_18 
REMARK    7  A    between atoms: C15_18  and  O1_19 
ROOT
ATOM      1  C8  <0> d           0.690  -0.478  -1.207  0.00  0.00     0.280 C 
ENDROOT
BRANCH   1   2
ATOM      2  N1  <0> d           0.002  -0.004   0.002  0.00  0.00    -0.067 N 
ATOM      3  C1  <0> d          -0.018   1.465   0.010  0.00  0.00     0.270 C 
ATOM      4  H17 <0> d          -0.945  -0.353   0.009  0.00  0.00     0.280 HD
BRANCH   2   5
ATOM      5  C2  <0> d           0.713  -0.491   1.192  0.00  0.00     0.273 C 
BRANCH   5   6
ATOM      6  C3  <0> d          -0.059  -0.109   2.429  0.00  0.00    -0.030 A 
ATOM      7  C7  <0> d          -1.025  -0.955   2.952  0.00  0.00     0.028 A 
ATOM      8  C6  <0> d          -1.709  -0.575   4.091  0.00  0.00     0.116 A 
ATOM      9  N2  <0> d          -1.459   0.582   4.673  0.00  0.00    -0.273 NA
ATOM     10  C5  <0> d          -0.552   1.414   4.200  0.00  0.00     0.116 A 
ATOM     11  C4  <0> d           0.176   1.099   3.068  0.00  0.00     0.028 A 
ENDBRANCH   5   6
ENDBRANCH   2   5
ENDBRANCH   1   2
BRANCH   1  12
ATOM     12  C9  <0> d          -0.106  -0.083  -2.424  0.00  0.00     0.009 A 
ATOM     13  S1  <0> d          -1.398  -0.988  -3.259  0.00  0.00    -0.103 SA
ATOM     14  C12 <0> d          -1.752   0.197  -4.546  0.00  0.00     0.070 A 
ATOM     15  C11 <0> d          -0.863   1.198  -4.263  0.00  0.00     0.025 A 
ATOM     16  C10 <0> d          -0.018   1.043  -3.166  0.00  0.00     0.037 A 
BRANCH  15  17
ATOM     17  C13 <0> d          -0.802   2.377  -5.074  0.00  0.00    -0.064 C 
ATOM     18  C14 <0> d          -0.753   3.343  -5.739  0.00  0.00    -0.075 C 
BRANCH  18  19
ATOM     19  C15 <0> d          -0.690   4.554  -6.573  0.00  0.00     0.258 C 
BRANCH  19  20
ATOM     20  O1  <0> d          -1.655   4.460  -7.623  0.00  0.00    -0.389 OA
ATOM     21  H16 <0> d          -1.670   5.226  -8.213  0.00  0.00     0.210 HD
ENDBRANCH  19  20
ENDBRANCH  18  19
ENDBRANCH  15  17
ENDBRANCH   1  12
TORSDOF 7
