REMARK  6 active torsions:
REMARK  status: ('A' for Active; 'I' for Inactive)
REMARK    1  A    between atoms: C4_4  and  N1_7 
REMARK    2  A    between atoms: C8_9  and  C10_12 
REMARK    3  A    between atoms: C10_12  and  N3_13 
REMARK       I    between atoms: N3_13  and  C11_14 
REMARK    4  A    between atoms: C11_14  and  C12_16 
REMARK    5  A    between atoms: C12_16  and  C13_17 
REMARK    6  A    between atoms: C13_17  and  N4_18 
ROOT
ATOM      1  N3  <0> d           0.021  -0.500   1.381  0.00  0.00    -0.357 N 
ATOM      2  C11 <0> d           0.042  -1.826   1.619  0.00  0.00     0.219 C 
ATOM      3  O1  <0> d           0.044  -2.609   0.693  0.00  0.00    -0.274 OA
ATOM      4  H10 <0> d           0.019   0.127   2.121  0.00  0.00     0.162 HD
ENDROOT
BRANCH   1   5
ATOM      5  C10 <0> d           0.002  -0.004   0.002  0.00  0.00     0.164 C 
BRANCH   5   6
ATOM      6  C8  <0> d          -0.018   1.503   0.010  0.00  0.00    -0.004 A 
ATOM      7  C7  <0> d          -1.123   2.284   0.019  0.00  0.00     0.129 A 
ATOM      8  N1  <0> d          -0.716   3.573   0.027  0.00  0.00    -0.245 N 
ATOM      9  N2  <0> d           0.685   3.582   0.014  0.00  0.00    -0.180 NA
ATOM     10  C9  <0> d           1.102   2.341   0.004  0.00  0.00     0.149 A 
BRANCH   8  11
ATOM     11  C4  <0> d          -1.548   4.701   0.040  0.00  0.00     0.058 A 
ATOM     12  C3  <0> d          -0.993   5.974   0.041  0.00  0.00     0.031 A 
ATOM     13  C2  <0> d          -1.816   7.084   0.054  0.00  0.00     0.002 A 
ATOM     14  C1  <0> d          -3.189   6.928   0.066  0.00  0.00     0.000 A 
ATOM     15  C6  <0> d          -3.744   5.662   0.065  0.00  0.00     0.002 A 
ATOM     16  C5  <0> d          -2.928   4.548   0.045  0.00  0.00     0.031 A 
ENDBRANCH   8  11
ENDBRANCH   5   6
ENDBRANCH   1   5
BRANCH   2  17
ATOM     17  C12 <0> d           0.061  -2.336   3.037  0.00  0.00     0.123 C 
BRANCH  17  18
ATOM     18  C13 <0> d           0.082  -3.866   3.029  0.00  0.00     0.142 C 
BRANCH  18  19
ATOM     19  N4  <0> d           0.101  -4.362   4.407  0.00  0.00    -0.307 N 
ATOM     20  C17 <0> d          -1.063  -4.601   5.038  0.00  0.00     0.261 A 
ATOM     21  C16 <0> d          -1.035  -5.086   6.387  0.00  0.00     0.068 A 
ATOM     22  O2  <0> d          -2.125  -4.407   4.472  0.00  0.00    -0.267 OA
ATOM     23  C15 <0> d           0.245  -5.272   6.939  0.00  0.00     0.114 A 
ATOM     24  C18 <0> d          -2.138  -5.415   7.270  0.00  0.00     0.027 A 
ATOM     25  N5  <0> d           1.353  -5.013   6.250  0.00  0.00    -0.235 NA
ATOM     26  S1  <0> d          -0.094  -5.864   8.577  0.00  0.00    -0.081 SA
ATOM     27  C14 <0> d           1.294  -4.576   5.021  0.00  0.00     0.213 A 
ATOM     28  C19 <0> d          -1.875  -5.858   8.510  0.00  0.00     0.053 A 
ENDBRANCH  18  19
ENDBRANCH  17  18
ENDBRANCH   2  17
TORSDOF 6
