REMARK  4 active torsions:
REMARK  status: ('A' for Active; 'I' for Inactive)
REMARK    1  A    between atoms: C4_4  and  N4_27 
REMARK    2  A    between atoms: C7_7  and  N1_8 
REMARK       I    between atoms: N1_8  and  C8_9 
REMARK    3  A    between atoms: C8_9  and  C9_11 
REMARK    4  A    between atoms: C9_11  and  N2_12 
ROOT
ATOM      1  N1  <0> d          -3.296   5.336  -5.930  0.00  0.00    -0.325 N 
ATOM      2  C8  <0> d          -3.634   4.460  -6.897  0.00  0.00     0.240 C 
ATOM      3  O1  <0> d          -3.490   3.270  -6.715  0.00  0.00    -0.271 OA
ATOM      4  H8  <0> d          -3.490   6.410  -6.067  0.00  0.00     0.169 HD
ENDROOT
BRANCH   2   5
ATOM      5  C9  <0> d          -4.190   4.961  -8.205  0.00  0.00     0.240 C 
BRANCH   5   6
ATOM      6  N2  <0> d          -4.476   3.822  -9.082  0.00  0.00    -0.259 N 
ATOM      7  C20 <0> d          -5.648   3.178  -9.120  0.00  0.00     0.326 A 
ATOM      8  N3  <0> d          -5.651   2.169 -10.012  0.00  0.00    -0.324 N 
ATOM      9  O3  <0> d          -6.603   3.470  -8.427  0.00  0.00    -0.247 OA
ATOM     10  C11 <0> d          -4.318   2.156 -10.629  0.00  0.00     0.117 A 
ATOM     11  H26 <0> d          -6.407   1.431 -10.320  0.00  0.00     0.165 HD
ATOM     12  C10 <0> d          -3.591   3.298  -9.956  0.00  0.00     0.256 A 
ATOM     13  C16 <0> d          -4.423   2.408 -12.129  0.00  0.00     0.050 C 
ATOM     14  C12 <0> d          -3.614   0.833 -10.351  0.00  0.00     0.045 C 
ATOM     15  O2  <0> d          -2.453   3.664 -10.157  0.00  0.00    -0.270 OA
ATOM     16  C15 <0> d          -5.194   1.261 -12.787  0.00  0.00    -0.045 C 
ATOM     17  C14 <0> d          -4.466  -0.059 -12.523  0.00  0.00     0.013 C 
ATOM     18  C17 <0> d          -6.605   1.191 -12.200  0.00  0.00     0.015 C 
ATOM     19  C18 <0> d          -5.280   1.503 -14.296  0.00  0.00     0.015 C 
ATOM     20  C13 <0> d          -4.388  -0.308 -11.016  0.00  0.00    -0.015 C 
ATOM     21  C19 <0> d          -3.668  -1.633 -10.754  0.00  0.00     0.010 C 
ENDBRANCH   5   6
ENDBRANCH   2   5
BRANCH   1  22
ATOM     22  C7  <0> d          -2.696   4.877  -4.748  0.00  0.00     0.040 A 
ATOM     23  C2  <0> d          -1.742   5.655  -4.107  0.00  0.00    -0.034 A 
ATOM     24  C1  <0> d          -1.351   6.993  -4.681  0.00  0.00     0.050 C 
ATOM     25  C3  <0> d          -1.155   5.206  -2.941  0.00  0.00     0.032 A 
ATOM     26  C4  <0> d          -1.512   3.972  -2.415  0.00  0.00     0.011 A 
ATOM     27  C5  <0> d          -2.468   3.194  -3.056  0.00  0.00     0.026 A 
ATOM     28  C6  <0> d          -3.058   3.646  -4.219  0.00  0.00     0.032 A 
BRANCH  26  29
ATOM     29  N4  <0> d          -0.914   3.515  -1.235  0.00  0.00    -0.280 NA
ATOM     30  C24 <0> d          -1.092   4.484  -0.145  0.00  0.00     0.123 C 
ATOM     31  C23 <0> d          -0.358   3.985   1.102  0.00  0.00     0.249 C 
ATOM     32  N5  <0> d          -0.883   2.666   1.482  0.00  0.00    -0.073 N 
ATOM     33  C22 <0> d          -0.706   1.697   0.391  0.00  0.00     0.249 C 
ATOM     34  C25 <0> d          -0.255   2.185   2.720  0.00  0.00     0.269 C 
ATOM     35  H38 <0> d          -1.962   2.772   1.671  0.00  0.00     0.279 HD
ATOM     36  C21 <0> d          -1.440   2.196  -0.855  0.00  0.00     0.123 C 
ENDBRANCH  26  29
ENDBRANCH   1  22
TORSDOF 4
