REMARK  4 active torsions:
REMARK  status: ('A' for Active; 'I' for Inactive)
REMARK    1  A    between atoms: C7_7  and  S1_8 
REMARK    2  A    between atoms: S1_8  and  N1_11 
REMARK    3  A    between atoms: N1_11  and  C8_12 
REMARK    4  A    between atoms: N3_16  and  C11_17 
ROOT
ATOM      1  C8  <0> d           1.215   2.185   2.137  0.00  0.00     0.136 A 
ATOM      2  C9  <0> d           0.307   2.546   1.189  0.00  0.00     0.079 A 
ATOM      3  C10 <0> d           0.717   3.768   0.649  0.00  0.00     0.054 A 
ATOM      4  N2  <0> d           1.825   4.130   1.244  0.00  0.00    -0.175 NA
ATOM      5  N3  <0> d           2.158   3.153   2.190  0.00  0.00    -0.247 N 
ATOM      6  C15 <0> d           0.005   4.537  -0.434  0.00  0.00     0.072 C 
ENDROOT
BRANCH   1   7
ATOM      7  N1  <0> d           1.176   1.031   2.915  0.00  0.00    -0.264 N 
ATOM      8  H8  <0> d           1.908   0.829   3.519  0.00  0.00     0.180 HD
BRANCH   7   9
ATOM      9  S1  <0> d          -0.118   0.004   2.810  0.00  0.00     0.264 S 
ATOM     10  O1  <0> d          -1.285   0.810   2.910  0.00  0.00    -0.200 OA
ATOM     11  O2  <0> d           0.143  -1.072   3.700  0.00  0.00    -0.200 OA
BRANCH   9  12
ATOM     12  C7  <0> d          -0.114  -0.675   1.184  0.00  0.00     0.088 A 
ATOM     13  C2  <0> d           0.935  -1.476   0.773  0.00  0.00    -0.038 A 
ATOM     14  C1  <0> d           2.074  -1.768   1.716  0.00  0.00     0.050 C 
ATOM     15  C3  <0> d           0.937  -2.014  -0.500  0.00  0.00     0.011 A 
ATOM     16  C4  <0> d          -0.107  -1.748  -1.365  0.00  0.00     0.043 A 
ATOM     17  C5  <0> d          -1.155  -0.941  -0.957  0.00  0.00     0.117 A 
ATOM     18  C6  <0> d          -1.157  -0.403   0.319  0.00  0.00     0.068 A 
ATOM     19  F1  <0> d          -2.176  -0.680  -1.802  0.00  0.00    -0.206 F 
ENDBRANCH   9  12
ENDBRANCH   7   9
ENDBRANCH   1   7
BRANCH   5  20
ATOM     20  C11 <0> d           3.324   3.174   3.077  0.00  0.00     0.127 C 
ATOM     21  C14 <0> d           3.251   4.420   3.992  0.00  0.00     0.167 C 
ATOM     22  S2  <0> d           5.023   4.835   4.252  0.00  0.00     0.146 S 
ATOM     23  C13 <0> d           5.797   3.556   3.176  0.00  0.00     0.142 C 
ATOM     24  O3  <0> d           5.367   4.572   5.605  0.00  0.00    -0.228 OA
ATOM     25  O4  <0> d           5.282   6.120   3.702  0.00  0.00    -0.228 OA
ATOM     26  C12 <0> d           4.608   3.220   2.232  0.00  0.00     0.043 C 
ENDBRANCH   5  20
TORSDOF 4
