REMARK  7 active torsions:
REMARK  status: ('A' for Active; 'I' for Inactive)
REMARK    1  A    between atoms: C7_7  and  C8_8 
REMARK    2  A    between atoms: N1_13  and  C13_16 
REMARK    3  A    between atoms: C13_16  and  C14_17 
REMARK    4  A    between atoms: C14_17  and  O3_18 
REMARK    5  A    between atoms: C15_19  and  C16_21 
REMARK    6  A    between atoms: C15_19  and  C17_23 
REMARK    7  A    between atoms: C16_21  and  O4_22 
ROOT
ATOM      1  C8  <0> d           0.242   0.057   2.487  0.00  0.00     0.234 C 
ATOM      2  C9  <0> d           1.640   0.634   2.638  0.00  0.00     0.130 C 
ATOM      3  C10 <0> d           2.344  -0.624   3.278  0.00  0.00     0.143 C 
ATOM      4  C11 <0> d           3.737  -0.305   3.094  0.00  0.00     0.234 C 
ATOM      5  O1  <0> d           4.661  -0.584   3.828  0.00  0.00    -0.272 OA
ATOM      6  N1  <0> d           3.793   0.382   1.907  0.00  0.00    -0.286 N 
ATOM      7  C12 <0> d           2.554   0.787   1.462  0.00  0.00     0.234 C 
ATOM      8  O2  <0> d           2.258   1.180   0.354  0.00  0.00    -0.272 OA
ATOM      9  C15 <0> d           1.400  -0.990   4.348  0.00  0.00     0.246 C 
ATOM     10  N2  <0> d           0.065  -0.875   3.642  0.00  0.00    -0.044 N 
ATOM     11  H16 <0> d          -0.624  -0.503   4.279  0.00  0.00     0.279 HD
ATOM     12  H20 <0> d          -0.232  -1.780   3.308  0.00  0.00     0.279 HD
ENDROOT
BRANCH   1  13
ATOM     13  C7  <0> d           0.127  -0.696   1.187  0.00  0.00    -0.021 A 
ATOM     14  C2  <0> d          -0.321  -0.048   0.051  0.00  0.00    -0.054 A 
ATOM     15  C1  <0> d          -0.694   1.411   0.113  0.00  0.00     0.049 C 
ATOM     16  C3  <0> d          -0.422  -0.737  -1.143  0.00  0.00     0.007 A 
ATOM     17  C4  <0> d          -0.080  -2.075  -1.200  0.00  0.00     0.001 A 
ATOM     18  C5  <0> d           0.363  -2.724  -0.062  0.00  0.00     0.001 A 
ATOM     19  C6  <0> d           0.465  -2.035   1.131  0.00  0.00     0.010 A 
ENDBRANCH   1  13
BRANCH   9  20
ATOM     20  C16 <0> d           1.638  -2.427   4.816  0.00  0.00     0.215 C 
BRANCH  20  21
ATOM     21  O4  <0> d           0.637  -2.790   5.768  0.00  0.00    -0.398 OA
ATOM     22  H19 <0> d           0.726  -3.691   6.108  0.00  0.00     0.209 HD
ENDBRANCH  20  21
ENDBRANCH   9  20
BRANCH   9  23
ATOM     23  C17 <0> d           1.500  -0.026   5.503  0.00  0.00     0.214 C 
ATOM     24  O5  <0> d           0.524   0.622   5.841  0.00  0.00    -0.646 OA
ATOM     25  O6  <0> d           2.556   0.106   6.098  0.00  0.00    -0.646 OA
ENDBRANCH   9  23
BRANCH   6  26
ATOM     26  C13 <0> d           5.039   0.666   1.191  0.00  0.00     0.161 C 
BRANCH  26  27
ATOM     27  C14 <0> d           5.340  -0.475   0.217  0.00  0.00     0.184 C 
BRANCH  27  28
ATOM     28  O3  <0> d           4.327  -0.521  -0.790  0.00  0.00    -0.399 OA
ATOM     29  H15 <0> d           4.454  -1.223  -1.443  0.00  0.00     0.209 HD
ENDBRANCH  27  28
ENDBRANCH  26  27
ENDBRANCH   6  26
TORSDOF 7
