REMARK  7 active torsions:
REMARK  status: ('A' for Active; 'I' for Inactive)
REMARK    1  A    between atoms: O1_2  and  C2_3 
REMARK    2  A    between atoms: C2_3  and  C3_4 
REMARK    3  A    between atoms: C3_4  and  N1_5 
REMARK    4  A    between atoms: C4_6  and  C5_10 
REMARK    5  A    between atoms: C5_10  and  C6_11 
REMARK    6  A    between atoms: C5_10  and  N5_16 
REMARK    7  A    between atoms: C12_19  and  O2_22 
ROOT
ATOM      1  C5  <0> d          -0.145   1.005  -2.408  0.00  0.00     0.335 C 
ENDROOT
BRANCH   1   2
ATOM      2  C4  <0> d          -0.898   1.525  -3.605  0.00  0.00     0.186 A 
ATOM      3  N1  <0> d          -0.364   1.987  -4.751  0.00  0.00    -0.230 N 
ATOM      4  N4  <0> d          -1.345   2.333  -5.515  0.00  0.00    -0.044 NA
ATOM      5  N3  <0> d          -2.452   2.107  -4.897  0.00  0.00    -0.023 NA
ATOM      6  N2  <0> d          -2.199   1.611  -3.735  0.00  0.00    -0.111 NA
BRANCH   3   7
ATOM      7  C3  <0> d           1.062   2.079  -5.072  0.00  0.00     0.180 C 
BRANCH   7   8
ATOM      8  C2  <0> d           1.521   0.780  -5.738  0.00  0.00     0.189 C 
BRANCH   8   9
ATOM      9  O1  <0> d           2.912   0.870  -6.050  0.00  0.00    -0.394 OA
ATOM     10  C1  <0> d           3.443  -0.298  -6.679  0.00  0.00     0.201 C 
ENDBRANCH   8   9
ENDBRANCH   7   8
ENDBRANCH   3   7
ENDBRANCH   1   2
BRANCH   1  11
ATOM     11  C6  <0> d          -0.250  -0.498  -2.363  0.00  0.00     0.023 A 
ATOM     12  S1  <0> d          -1.591  -1.515  -1.767  0.00  0.00    -0.104 SA
ATOM     13  C9  <0> d          -0.862  -3.111  -2.095  0.00  0.00     0.050 A 
ATOM     14  C8  <0> d           0.339  -2.768  -2.623  0.00  0.00     0.008 A 
ATOM     15  C7  <0> d           0.653  -1.429  -2.760  0.00  0.00     0.017 A 
ENDBRANCH   1  11
BRANCH   1  16
ATOM     16  N5  <0> d          -0.723   1.572  -1.182  0.00  0.00     0.105 N 
ATOM     17  C14 <0> d          -0.729   3.040  -1.234  0.00  0.00     0.276 C 
ATOM     18  C13 <0> d          -1.466   3.591  -0.011  0.00  0.00     0.062 C 
ATOM     19  C12 <0> d          -0.764   3.110   1.262  0.00  0.00     0.121 C 
ATOM     20  C11 <0> d          -0.729   1.579   1.267  0.00  0.00     0.062 C 
ATOM     21  C10 <0> d          -0.013   1.086   0.008  0.00  0.00     0.276 C 
BRANCH  19  22
ATOM     22  O2  <0> d          -1.481   3.575   2.407  0.00  0.00    -0.395 OA
ATOM     23  H21 <0> d          -1.611   4.654   2.574  0.00  0.00     0.210 HD
ENDBRANCH  19  22
ENDBRANCH   1  16
TORSDOF 7
