REMARK  6 active torsions:
REMARK  status: ('A' for Active; 'I' for Inactive)
REMARK    1  A    between atoms: C2_2  and  C3_3 
REMARK    2  A    between atoms: C2_2  and  C4_5 
REMARK    3  A    between atoms: C3_3  and  O1_4 
REMARK    4  A    between atoms: C4_5  and  S1_6 
REMARK    5  A    between atoms: S1_6  and  N1_9 
REMARK    6  A    between atoms: N1_9  and  C5_10 
ROOT
ATOM      1  S1  <0> d          -2.265  -0.057  -1.527  0.00  0.00     0.227 S 
ATOM      2  O2  <0> d          -2.451   1.352  -1.567  0.00  0.00    -0.206 OA
ATOM      3  O3  <0> d          -1.687  -0.742  -2.629  0.00  0.00    -0.206 OA
ENDROOT
BRANCH   1   4
ATOM      4  C4  <0> d          -1.433  -0.534   0.013  0.00  0.00     0.169 C 
BRANCH   4   5
ATOM      5  C2  <0> d           0.002  -0.004   0.002  0.00  0.00     0.021 C 
ATOM      6  C1  <0> d          -0.019   1.526   0.010  0.00  0.00     0.013 C 
BRANCH   5   7
ATOM      7  C3  <0> d           0.742  -0.511   1.242  0.00  0.00     0.169 C 
BRANCH   7   8
ATOM      8  O1  <0> d           2.113  -0.114   1.173  0.00  0.00    -0.400 OA
ATOM      9  H8  <0> d           2.644  -0.402   1.929  0.00  0.00     0.209 HD
ENDBRANCH   7   8
ENDBRANCH   5   7
ENDBRANCH   4   5
ENDBRANCH   1   4
BRANCH   1  10
ATOM     10  N1  <0> d          -3.794  -0.681  -1.396  0.00  0.00    -0.314 N 
ATOM     11  H11 <0> d          -4.087  -1.377  -2.004  0.00  0.00     0.172 HD
BRANCH  10  12
ATOM     12  C5  <0> d          -4.703  -0.182  -0.361  0.00  0.00     0.107 C 
ATOM     13  C8  <0> d          -5.568  -1.350   0.170  0.00  0.00     0.166 C 
ATOM     14  S2  <0> d          -7.147  -0.517   0.608  0.00  0.00     0.146 S 
ATOM     15  C7  <0> d          -6.754   1.194   0.052  0.00  0.00     0.142 C 
ATOM     16  O4  <0> d          -8.187  -1.041  -0.208  0.00  0.00    -0.228 OA
ATOM     17  O5  <0> d          -7.298  -0.522   2.021  0.00  0.00    -0.228 OA
ATOM     18  C6  <0> d          -5.607   0.909  -0.959  0.00  0.00     0.041 C 
ENDBRANCH  10  12
ENDBRANCH   1  10
TORSDOF 6
