REMARK  9 active torsions:
REMARK  status: ('A' for Active; 'I' for Inactive)
REMARK    1  A    between atoms: C9_9  and  C11_14 
REMARK    2  A    between atoms: C11_14  and  N6_33 
REMARK    3  A    between atoms: C12_15  and  C13_16 
REMARK    4  A    between atoms: C12_15  and  N6_33 
REMARK    5  A    between atoms: C13_16  and  O2_17 
REMARK    6  A    between atoms: C14_18  and  C15_19 
REMARK    7  A    between atoms: C14_18  and  N6_33 
REMARK    8  A    between atoms: N5_23  and  C16_24 
REMARK    9  A    between atoms: C16_24  and  C17_25 
ROOT
ATOM      1  N6  <0> d           2.024  -2.426  -1.171  0.00  0.00    -0.058 N 
ATOM      2  H24 <0> d           1.177  -2.159  -1.687  0.00  0.00     0.280 HD
ENDROOT
BRANCH   1   3
ATOM      3  C11 <0> d           2.170  -3.896  -1.216  0.00  0.00     0.279 C 
BRANCH   3   4
ATOM      4  C9  <0> d           3.290  -4.343  -0.312  0.00  0.00     0.036 A 
ATOM      5  C8  <0> d           3.019  -4.725   0.960  0.00  0.00     0.028 A 
ATOM      6  C6  <0> d           4.129  -5.158   1.812  0.00  0.00    -0.008 A 
ATOM      7  C5  <0> d           5.434  -5.154   1.285  0.00  0.00     0.045 A 
ATOM      8  C7  <0> d           3.911  -5.567   3.132  0.00  0.00     0.020 A 
ATOM      9  C4  <0> d           6.495  -5.560   2.088  0.00  0.00     0.031 A 
ATOM     10  N1  <0> d           5.643  -4.750  -0.016  0.00  0.00    -0.322 N 
ATOM     11  C3  <0> d           6.258  -5.957   3.386  0.00  0.00     0.009 A 
ATOM     12  C2  <0> d           4.969  -5.960   3.902  0.00  0.00    -0.061 A 
ATOM     13  C1  <0> d           4.734  -6.400   5.324  0.00  0.00     0.048 C 
ATOM     14  C10 <0> d           4.617  -4.358  -0.792  0.00  0.00     0.253 A 
ATOM     15  H1  <0> d           6.571  -4.748  -0.389  0.00  0.00     0.169 HD
ATOM     16  O1  <0> d           4.839  -4.007  -1.938  0.00  0.00    -0.268 OA
ENDBRANCH   3   4
ENDBRANCH   1   3
BRANCH   1  17
ATOM     17  C12 <0> d           3.194  -1.782  -1.804  0.00  0.00     0.261 C 
BRANCH  17  18
ATOM     18  C13 <0> d           3.121  -2.004  -3.316  0.00  0.00     0.192 C 
BRANCH  18  19
ATOM     19  O2  <0> d           1.973  -1.333  -3.841  0.00  0.00    -0.399 OA
ATOM     20  H15 <0> d           1.863  -1.431  -4.796  0.00  0.00     0.209 HD
ENDBRANCH  18  19
ENDBRANCH  17  18
ENDBRANCH   1  17
BRANCH   1  21
ATOM     21  C14 <0> d           1.895  -1.974   0.230  0.00  0.00     0.317 C 
BRANCH  21  22
ATOM     22  C15 <0> d           1.519  -0.514   0.237  0.00  0.00     0.174 A 
ATOM     23  N5  <0> d           0.275  -0.005   0.298  0.00  0.00    -0.229 N 
ATOM     24  N4  <0> d           0.389   1.280   0.281  0.00  0.00    -0.044 NA
ATOM     25  N3  <0> d           1.638   1.585   0.212  0.00  0.00    -0.023 NA
ATOM     26  N2  <0> d           2.341   0.506   0.185  0.00  0.00    -0.112 NA
BRANCH  23  27
ATOM     27  C16 <0> d          -0.975  -0.767   0.371  0.00  0.00     0.193 C 
BRANCH  27  28
ATOM     28  C17 <0> d          -1.548  -0.924  -1.013  0.00  0.00    -0.038 A 
ATOM     29  C22 <0> d          -1.287  -2.069  -1.743  0.00  0.00     0.012 A 
ATOM     30  C21 <0> d          -1.813  -2.215  -3.013  0.00  0.00     0.043 A 
ATOM     31  C20 <0> d          -2.602  -1.214  -3.554  0.00  0.00     0.116 A 
ATOM     32  C19 <0> d          -2.863  -0.068  -2.822  0.00  0.00     0.043 A 
ATOM     33  F1  <0> d          -3.116  -1.355  -4.795  0.00  0.00    -0.206 F 
ATOM     34  C18 <0> d          -2.340   0.074  -1.551  0.00  0.00     0.012 A 
ENDBRANCH  27  28
ENDBRANCH  23  27
ENDBRANCH  21  22
ENDBRANCH   1  21
TORSDOF 9
