REMARK  3 active torsions:
REMARK  status: ('A' for Active; 'I' for Inactive)
REMARK    1  A    between atoms: C5_5  and  N1_9 
REMARK    2  A    between atoms: N1_9  and  S1_10 
REMARK    3  A    between atoms: S1_10  and  C8_13 
ROOT
ATOM      1  C8  <0> d           2.362  -0.120  -2.478  0.00  0.00     0.082 A 
ATOM      2  C9  <0> d           3.494   0.112  -3.242  0.00  0.00     0.028 A 
ATOM      3  C10 <0> d           3.384   0.314  -4.602  0.00  0.00     0.034 A 
ATOM      4  C11 <0> d           2.134   0.286  -5.212  0.00  0.00     0.064 A 
ATOM      5  C12 <0> d           0.994   0.052  -4.441  0.00  0.00     0.065 A 
ATOM      6  C13 <0> d           1.117  -0.156  -3.072  0.00  0.00     0.057 A 
ATOM      7  N2  <0> d          -0.266   0.020  -5.033  0.00  0.00    -0.312 N 
ATOM      8  C14 <0> d          -0.395   0.215  -6.361  0.00  0.00     0.316 A 
ATOM      9  O3  <0> d          -1.492   0.188  -6.881  0.00  0.00    -0.262 OA
ATOM     10  C15 <0> d           0.824   0.465  -7.184  0.00  0.00     0.316 A 
ATOM     11  O4  <0> d           0.729   0.644  -8.382  0.00  0.00    -0.262 OA
ATOM     12  N3  <0> d           2.032   0.491  -6.585  0.00  0.00    -0.312 N 
ATOM     13  C16 <0> d           3.238   0.735  -7.380  0.00  0.00     0.160 C 
ATOM     14  C17 <0> d          -1.454  -0.227  -4.211  0.00  0.00     0.160 C 
ENDROOT
BRANCH   1  15
ATOM     15  S1  <0> d           2.513  -0.377  -0.741  0.00  0.00     0.263 S 
ATOM     16  O1  <0> d           3.837  -0.841  -0.513  0.00  0.00    -0.200 OA
ATOM     17  O2  <0> d           1.367  -1.113  -0.338  0.00  0.00    -0.200 OA
BRANCH  15  18
ATOM     18  N1  <0> d           2.401   1.107  -0.015  0.00  0.00    -0.279 N 
ATOM     19  H7  <0> d           3.139   1.444   0.517  0.00  0.00     0.179 HD
BRANCH  18  20
ATOM     20  C5  <0> d           1.244   1.875  -0.169  0.00  0.00     0.060 A 
ATOM     21  C4  <0> d           0.002   1.256  -0.234  0.00  0.00     0.032 A 
ATOM     22  C3  <0> d          -1.140   2.017  -0.392  0.00  0.00     0.009 A 
ATOM     23  C2  <0> d          -1.049   3.394  -0.475  0.00  0.00    -0.061 A 
ATOM     24  C1  <0> d          -2.298   4.221  -0.642  0.00  0.00     0.048 C 
ATOM     25  C7  <0> d           0.185   4.014  -0.410  0.00  0.00     0.028 A 
ATOM     26  C6  <0> d           1.332   3.259  -0.257  0.00  0.00     0.038 A 
ATOM     27 Br1  <0> d           3.020   4.107  -0.168  0.00  0.00    -0.049 Br
ENDBRANCH  18  20
ENDBRANCH  15  18
ENDBRANCH   1  15
TORSDOF 3
