REMARK  5 active torsions:
REMARK  status: ('A' for Active; 'I' for Inactive)
REMARK    1  A    between atoms: C2_2  and  C3_3 
REMARK       I    between atoms: C3_3  and  N1_5 
REMARK    2  A    between atoms: N1_5  and  C4_6 
REMARK    3  A    between atoms: C5_7  and  C14_17 
REMARK    4  A    between atoms: N2_10  and  C8_11 
REMARK    5  A    between atoms: C8_11  and  C9_12 
ROOT
ATOM      1  C4  <0> d           1.991  -2.891  -2.759  0.00  0.00     0.198 C 
ATOM      2  C5  <0> d           1.572  -4.283  -3.286  0.00  0.00     0.107 C 
ATOM      3  C6  <0> d           2.497  -5.200  -2.450  0.00  0.00     0.042 C 
ATOM      4  C7  <0> d           3.649  -4.297  -2.066  0.00  0.00    -0.013 C 
ATOM      5  N2  <0> d           3.353  -3.070  -2.243  0.00  0.00    -0.365 N 
ATOM      6  C12 <0> d           4.975  -4.785  -1.543  0.00  0.00     0.063 C 
ATOM      7  C13 <0> d           2.994  -6.376  -3.294  0.00  0.00     0.017 C 
ENDROOT
BRANCH   2   8
ATOM      8  C14 <0> d           0.120  -4.562  -2.993  0.00  0.00     0.114 A 
ATOM      9  N3  <0> d          -0.862  -4.349  -3.820  0.00  0.00    -0.233 NA
ATOM     10  C15 <0> d          -2.035  -4.708  -3.238  0.00  0.00     0.085 A 
ATOM     11  C16 <0> d          -3.365  -4.693  -3.663  0.00  0.00     0.034 A 
ATOM     12  C20 <0> d          -1.726  -5.177  -1.950  0.00  0.00     0.062 A 
ATOM     13  C17 <0> d          -4.353  -5.131  -2.826  0.00  0.00     0.002 A 
ATOM     14  C18 <0> d          -4.048  -5.594  -1.554  0.00  0.00     0.002 A 
ATOM     15  C19 <0> d          -2.742  -5.619  -1.113  0.00  0.00     0.032 A 
ATOM     16  N4  <0> d          -0.354  -5.077  -1.827  0.00  0.00    -0.342 N 
ATOM     17  H24 <0> d           0.173  -5.326  -1.051  0.00  0.00     0.167 HD
ENDBRANCH   2   8
BRANCH   1  18
ATOM     18  N1  <0> d           1.092  -2.462  -1.685  0.00  0.00    -0.339 N 
ATOM     19  C3  <0> d           0.634  -1.194  -1.655  0.00  0.00     0.218 C 
ATOM     20  O1  <0> d           0.966  -0.409  -2.518  0.00  0.00    -0.274 OA
ATOM     21  H8  <0> d           0.826  -3.090  -0.995  0.00  0.00     0.164 HD
BRANCH  19  22
ATOM     22  C2  <0> d          -0.291  -0.753  -0.550  0.00  0.00     0.098 C 
ATOM     23  C1  <0> d          -0.659   0.719  -0.750  0.00  0.00     0.014 C 
ENDBRANCH  19  22
ENDBRANCH   1  18
BRANCH   5  24
ATOM     24  C8  <0> d           4.268  -1.961  -1.962  0.00  0.00     0.128 C 
BRANCH  24  25
ATOM     25  C9  <0> d           3.720  -1.127  -0.803  0.00  0.00    -0.005 C 
ATOM     26  C10 <0> d           3.634  -1.996   0.454  0.00  0.00     0.011 C 
ATOM     27  C11 <0> d           4.651   0.058  -0.541  0.00  0.00     0.011 C 
ENDBRANCH  24  25
ENDBRANCH   5  24
TORSDOF 5
