REMARK  5 active torsions:
REMARK  status: ('A' for Active; 'I' for Inactive)
REMARK    1  A    between atoms: C2_2  and  C3_3 
REMARK    2  A    between atoms: C2_2  and  N1_13 
REMARK    3  A    between atoms: C7_7  and  C9_9 
REMARK    4  A    between atoms: N1_13  and  C10_14 
REMARK    5  A    between atoms: C10_14  and  C12_16 
ROOT
ATOM      1  N1  <0> d           0.688  -0.596   1.199  0.00  0.00    -0.056 N 
ATOM      2  H11 <0> d           0.856  -1.588   1.124  0.00  0.00     0.278 HD
ATOM      3  H19 <0> d           1.567  -0.113   1.300  0.00  0.00     0.278 HD
ENDROOT
BRANCH   1   4
ATOM      4  C2  <0> d           0.004  -0.122  -0.011  0.00  0.00     0.215 C 
ATOM      5  C1  <0> d           0.937  -0.267  -1.214  0.00  0.00     0.045 C 
BRANCH   4   6
ATOM      6  C3  <0> d          -1.240  -0.942  -0.239  0.00  0.00    -0.027 A 
ATOM      7  C8  <0> d          -2.402  -0.330  -0.672  0.00  0.00     0.025 A 
ATOM      8  C7  <0> d          -3.542  -1.083  -0.885  0.00  0.00     0.048 A 
ATOM      9  C6  <0> d          -3.522  -2.446  -0.656  0.00  0.00     0.016 A 
ATOM     10  C5  <0> d          -2.362  -3.057  -0.218  0.00  0.00     0.001 A 
ATOM     11  C4  <0> d          -1.221  -2.305  -0.009  0.00  0.00     0.009 A 
BRANCH   8  12
ATOM     12  C9  <0> d          -4.806  -0.416  -1.362  0.00  0.00     0.417 C 
ATOM     13  F1  <0> d          -5.815  -1.376  -1.500  0.00  0.00    -0.166 F 
ATOM     14  F2  <0> d          -5.204   0.549  -0.432  0.00  0.00    -0.166 F 
ATOM     15  F3  <0> d          -4.572   0.195  -2.599  0.00  0.00    -0.166 F 
ENDBRANCH   8  12
ENDBRANCH   4   6
ENDBRANCH   1   4
BRANCH   1  16
ATOM     16  C10 <0> d          -0.154  -0.330   2.373  0.00  0.00     0.251 C 
ATOM     17  C11 <0> d          -0.289   1.181   2.572  0.00  0.00     0.048 C 
BRANCH  16  18
ATOM     18  C12 <0> d           0.480  -0.943   3.595  0.00  0.00     0.138 A 
ATOM     19  N3  <0> d           1.551  -1.661   3.439  0.00  0.00    -0.232 NA
ATOM     20  C19 <0> d           2.179  -2.238   4.494  0.00  0.00     0.074 A 
ATOM     21  C14 <0> d           1.646  -2.063   5.790  0.00  0.00     0.061 A 
ATOM     22  C18 <0> d           3.335  -3.005   4.327  0.00  0.00     0.032 A 
ATOM     23  C13 <0> d           0.429  -1.249   5.931  0.00  0.00     0.259 A 
ATOM     24  C15 <0> d           2.271  -2.651   6.887  0.00  0.00     0.019 A 
ATOM     25  N2  <0> d          -0.101  -0.721   4.803  0.00  0.00    -0.309 N 
ATOM     26  O1  <0> d          -0.082  -1.059   7.019  0.00  0.00    -0.267 OA
ATOM     27  H3  <0> d          -0.904  -0.179   4.858  0.00  0.00     0.170 HD
ATOM     28  C16 <0> d           3.410  -3.403   6.698  0.00  0.00     0.001 A 
ATOM     29  C17 <0> d           3.937  -3.578   5.425  0.00  0.00     0.002 A 
ENDBRANCH  16  18
ENDBRANCH   1  16
TORSDOF 5
