REMARK  3 active torsions:
REMARK  status: ('A' for Active; 'I' for Inactive)
REMARK    1  A    between atoms: C2_2  and  N1_3 
REMARK    2  A    between atoms: C4_5  and  N3_9 
REMARK       I    between atoms: N3_9  and  C7_10 
REMARK    3  A    between atoms: C7_10  and  C8_12 
ROOT
ATOM      1  C8  <0> d           5.356  -1.840   4.567  0.00  0.00     0.195 A 
ATOM      2  C9  <0> d           5.710  -1.883   5.998  0.00  0.00     0.220 A 
ATOM      3  O2  <0> d           4.882  -1.697   6.873  0.00  0.00    -0.285 OA
ATOM      4  C10 <0> d           7.124  -2.164   6.310  0.00  0.00     0.048 A 
ATOM      5  C11 <0> d           7.593  -2.233   7.618  0.00  0.00     0.060 A 
ATOM      6  C12 <0> d           8.928  -2.500   7.846  0.00  0.00     0.117 A 
ATOM      7  C13 <0> d           9.796  -2.697   6.777  0.00  0.00     0.044 A 
ATOM      8  C14 <0> d           9.343  -2.631   5.479  0.00  0.00     0.035 A 
ATOM      9  C15 <0> d           8.000  -2.364   5.225  0.00  0.00     0.067 A 
ATOM     10  N4  <0> d           7.515  -2.292   3.942  0.00  0.00    -0.273 N 
ATOM     11  N5  <0> d           6.288  -2.053   3.666  0.00  0.00    -0.163 NA
ATOM     12  C16 <0> d           8.449  -2.504   2.833  0.00  0.00     0.180 C 
ATOM     13  F1  <0> d           9.394  -2.569   9.112  0.00  0.00    -0.206 F 
ENDROOT
BRANCH   1  14
ATOM     14  C7  <0> d           3.968  -1.566   4.152  0.00  0.00     0.280 C 
ATOM     15  N3  <0> d           3.650  -1.534   2.842  0.00  0.00    -0.318 N 
ATOM     16  H9  <0> d           4.316  -1.764   2.176  0.00  0.00     0.169 HD
ATOM     17  O1  <0> d           3.109  -1.370   4.991  0.00  0.00    -0.265 OA
BRANCH  15  18
ATOM     18  C4  <0> d           2.352  -1.167   2.442  0.00  0.00     0.085 A 
ATOM     19  C3  <0> d           1.990   0.022   1.895  0.00  0.00     0.055 A 
ATOM     20  N1  <0> d           0.654  -0.028   1.654  0.00  0.00    -0.272 N 
ATOM     21  C17 <0> d           2.904   1.185   1.607  0.00  0.00     0.072 C 
ATOM     22  N2  <0> d           0.188  -1.281   2.072  0.00  0.00    -0.175 NA
ATOM     23  C5  <0> d           1.202  -1.964   2.537  0.00  0.00     0.079 A 
ATOM     24  C6  <0> d           1.143  -3.366   3.087  0.00  0.00     0.075 C 
BRANCH  20  25
ATOM     25  C2  <0> d          -0.156   1.042   1.067  0.00  0.00     0.147 C 
ATOM     26  C1  <0> d          -0.690   1.947   2.179  0.00  0.00     0.028 C 
ENDBRANCH  20  25
ENDBRANCH  15  18
ENDBRANCH   1  14
TORSDOF 3
