REMARK  6 active torsions:
REMARK  status: ('A' for Active; 'I' for Inactive)
REMARK    1  A    between atoms: C2_2  and  O1_3 
REMARK    2  A    between atoms: O1_3  and  C3_4 
REMARK    3  A    between atoms: C8_9  and  C9_10 
REMARK       I    between atoms: C9_10  and  N1_12 
REMARK    4  A    between atoms: C11_14  and  C18_22 
REMARK       I    between atoms: C18_22  and  N3_24 
REMARK    5  A    between atoms: N3_24  and  C19_25 
REMARK    6  A    between atoms: C19_25  and  C21_27 
ROOT
ATOM      1  C9  <0> d           1.862  -1.591  -3.416  0.00  0.00     0.256 C 
ATOM      2  O2  <0> d           1.729  -0.393  -3.253  0.00  0.00    -0.267 OA
ATOM      3  N1  <0> d           2.617  -2.053  -4.432  0.00  0.00    -0.346 N 
ATOM      4  C10 <0> d           2.809  -3.461  -4.853  0.00  0.00     0.141 C 
ATOM      5  C11 <0> d           2.821  -3.408  -6.397  0.00  0.00     0.106 C 
ATOM      6  C12 <0> d           3.238  -1.967  -6.738  0.00  0.00    -0.007 C 
ATOM      7  C13 <0> d           3.436  -1.267  -5.386  0.00  0.00     0.136 C 
ATOM      8  C14 <0> d           2.135  -1.271  -7.529  0.00  0.00     0.039 C 
ATOM      9  C15 <0> d           2.596   0.140  -7.905  0.00  0.00     0.233 C 
ATOM     10  N2  <0> d           3.824   0.059  -8.706  0.00  0.00    -0.075 N 
ATOM     11  C16 <0> d           4.906  -0.528  -7.906  0.00  0.00     0.233 C 
ATOM     12  C17 <0> d           4.542  -1.968  -7.530  0.00  0.00     0.039 C 
ATOM     13  H21 <0> d           3.657  -0.517  -9.517  0.00  0.00     0.277 HD
ATOM     14  H36 <0> d           4.092   0.985  -9.003  0.00  0.00     0.277 HD
ENDROOT
BRANCH   5  15
ATOM     15  C18 <0> d           3.822  -4.391  -6.948  0.00  0.00     0.224 C 
ATOM     16  O3  <0> d           4.821  -4.659  -6.315  0.00  0.00    -0.273 OA
ATOM     17  N3  <0> d           3.607  -4.972  -8.145  0.00  0.00    -0.349 N 
ATOM     18  H26 <0> d           2.808  -4.757  -8.652  0.00  0.00     0.163 HD
BRANCH  17  19
ATOM     19  C19 <0> d           4.580  -5.927  -8.681  0.00  0.00     0.150 C 
ATOM     20  C20 <0> d           4.291  -7.320  -8.118  0.00  0.00     0.040 C 
BRANCH  19  21
ATOM     21  C21 <0> d           4.476  -5.961 -10.184  0.00  0.00     0.127 A 
ATOM     22  N4  <0> d           3.412  -5.646 -10.864  0.00  0.00    -0.231 NA
ATOM     23  C22 <0> d           3.661  -5.788 -12.192  0.00  0.00     0.085 A 
ATOM     24  C23 <0> d           2.894  -5.590 -13.342  0.00  0.00     0.034 A 
ATOM     25  C27 <0> d           4.991  -6.226 -12.314  0.00  0.00     0.063 A 
ATOM     26  C24 <0> d           3.440  -5.823 -14.573  0.00  0.00     0.009 A 
ATOM     27  C25 <0> d           4.752  -6.256 -14.695  0.00  0.00    -0.060 A 
ATOM     28  C26 <0> d           5.528  -6.459 -13.573  0.00  0.00     0.038 A 
ATOM     29  C28 <0> d           5.334  -6.508 -16.062  0.00  0.00     0.048 C 
ATOM     30  N5  <0> d           5.481  -6.321 -11.027  0.00  0.00    -0.341 N 
ATOM     31  H3  <0> d           6.375  -6.596 -10.771  0.00  0.00     0.167 HD
ENDBRANCH  19  21
ENDBRANCH  17  19
ENDBRANCH   5  15
BRANCH   1  32
ATOM     32  C8  <0> d           1.197  -2.538  -2.500  0.00  0.00     0.065 A 
ATOM     33  C3  <0> d          -0.053  -2.226  -1.949  0.00  0.00     0.084 A 
ATOM     34  C4  <0> d          -0.671  -3.126  -1.094  0.00  0.00     0.038 A 
ATOM     35  C5  <0> d          -0.054  -4.322  -0.784  0.00  0.00     0.003 A 
ATOM     36  C6  <0> d           1.185  -4.631  -1.322  0.00  0.00     0.001 A 
ATOM     37  C7  <0> d           1.813  -3.749  -2.174  0.00  0.00     0.020 A 
BRANCH  33  38
ATOM     38  O1  <0> d          -0.658  -1.050  -2.254  0.00  0.00    -0.350 OA
BRANCH  38  39
ATOM     39  C2  <0> d          -1.930  -0.801  -1.654  0.00  0.00     0.171 C 
ATOM     40  C1  <0> d          -2.452   0.562  -2.113  0.00  0.00     0.034 C 
ENDBRANCH  38  39
ENDBRANCH  33  38
ENDBRANCH   1  32
TORSDOF 6
