REMARK  3 active torsions:
REMARK  status: ('A' for Active; 'I' for Inactive)
REMARK    1  A    between atoms: C6_9  and  N3_11 
REMARK       I    between atoms: N3_11  and  C8_12 
REMARK    2  A    between atoms: C8_12  and  C9_14 
REMARK    3  A    between atoms: C11_16  and  N4_22 
ROOT
ATOM      1  N3  <0> d           1.215  -2.084  -0.021  0.00  0.00    -0.322 N 
ATOM      2  C8  <0> d           0.060  -2.769   0.088  0.00  0.00     0.257 C 
ATOM      3  O1  <0> d          -1.001  -2.174   0.102  0.00  0.00    -0.267 OA
ATOM      4  H6  <0> d           2.055  -2.561  -0.113  0.00  0.00     0.169 HD
ENDROOT
BRANCH   2   5
ATOM      5  C9  <0> d           0.082  -4.242   0.190  0.00  0.00     0.052 A 
ATOM      6  C14 <0> d          -1.115  -4.954   0.304  0.00  0.00     0.029 A 
ATOM      7  C13 <0> d          -1.092  -6.332   0.394  0.00  0.00     0.064 A 
ATOM      8 Br1  <0> d          -2.766  -4.032   0.325  0.00  0.00    -0.050 Br
ATOM      9  C12 <0> d           0.115  -7.010   0.385  0.00  0.00     0.143 A 
ATOM     10  C11 <0> d           1.313  -6.307   0.278  0.00  0.00     0.065 A 
ATOM     11  F1  <0> d           0.131  -8.357   0.480  0.00  0.00    -0.204 F 
ATOM     12  C10 <0> d           1.299  -4.926   0.180  0.00  0.00     0.050 A 
BRANCH  10  13
ATOM     13  N4  <0> d           2.530  -6.997   0.268  0.00  0.00    -0.397 N 
ATOM     14  H9  <0> d           3.364  -6.508   0.193  0.00  0.00     0.156 HD
ATOM     15  H10 <0> d           2.540  -7.965   0.336  0.00  0.00     0.156 HD
ENDBRANCH  10  13
ENDBRANCH   2   5
BRANCH   1  16
ATOM     16  C6  <0> d           1.204  -0.688  -0.002  0.00  0.00     0.049 A 
ATOM     17  C4  <0> d           2.243   0.037  -0.613  0.00  0.00     0.038 A 
ATOM     18  C3  <0> d           2.216   1.443  -0.585  0.00  0.00     0.064 A 
ATOM     19  C5  <0> d           3.414  -0.340  -1.311  0.00  0.00     0.154 A 
ATOM     20  C2  <0> d           1.163   2.102   0.046  0.00  0.00     0.032 A 
ATOM     21  N2  <0> d           3.339   1.869  -1.248  0.00  0.00    -0.278 N 
ATOM     22  C1  <0> d           0.154   1.377   0.638  0.00  0.00     0.005 A 
ATOM     23  C7  <0> d           0.171  -0.010   0.616  0.00  0.00     0.030 A 
ATOM     24  N1  <0> d           4.045   0.739  -1.677  0.00  0.00    -0.186 NA
ATOM     25  H1  <0> d           3.598   2.792  -1.394  0.00  0.00     0.189 HD
ENDBRANCH   1  16
TORSDOF 3
