REMARK  3 active torsions:
REMARK  status: ('A' for Active; 'I' for Inactive)
REMARK    1  A    between atoms: C10_11  and  C12_14 
REMARK    2  A    between atoms: C11_12  and  N1_13 
REMARK    3  A    between atoms: C12_14  and  N2_15 
ROOT
ATOM      1  C1  <0> d          -0.227   1.362  -0.310  0.00  0.00     0.049 C 
ATOM      2  C2  <0> d          -0.076  -0.136  -0.247  0.00  0.00    -0.053 A 
ATOM      3  C3  <0> d           0.403  -0.830  -1.343  0.00  0.00     0.008 A 
ATOM      4  C4  <0> d           0.539  -2.203  -1.285  0.00  0.00     0.012 A 
ATOM      5  C5  <0> d           0.199  -2.891  -0.132  0.00  0.00     0.006 A 
ATOM      6  C6  <0> d          -0.277  -2.199   0.968  0.00  0.00     0.083 A 
ATOM      7  C7  <0> d          -0.409  -0.815   0.907  0.00  0.00    -0.022 A 
ATOM      8  C8  <0> d          -0.925  -0.057   2.103  0.00  0.00     0.052 C 
ATOM      9  O1  <0> d          -0.611  -2.832   2.122  0.00  0.00    -0.349 OA
ATOM     10  C9  <0> d          -0.823  -4.244   2.073  0.00  0.00     0.184 C 
ATOM     11  C10 <0> d           0.362  -4.886   1.340  0.00  0.00     0.071 C 
ATOM     12  C11 <0> d           0.357  -4.390  -0.108  0.00  0.00     0.226 C 
ENDROOT
BRANCH  11  13
ATOM     13  C12 <0> d           0.221  -6.409   1.366  0.00  0.00     0.244 C 
BRANCH  13  14
ATOM     14  N2  <0> d           0.874  -6.941   2.569  0.00  0.00    -0.063 N 
ATOM     15  C17 <0> d           0.225  -6.386   3.763  0.00  0.00     0.184 C 
ATOM     16  C16 <0> d           0.848  -6.999   5.019  0.00  0.00     0.033 C 
ATOM     17  C18 <0> d          -1.271  -6.709   3.726  0.00  0.00     0.040 C 
ATOM     18  C15 <0> d           2.343  -6.673   5.051  0.00  0.00     0.004 C 
ATOM     19  C14 <0> d           2.997  -7.191   3.767  0.00  0.00     0.033 C 
ATOM     20  C13 <0> d           2.294  -6.571   2.557  0.00  0.00     0.184 C 
ATOM     21  C19 <0> d           2.944  -7.087   1.272  0.00  0.00     0.040 C 
ATOM     22  H32 <0> d           0.790  -7.947   2.579  0.00  0.00     0.280 HD
ENDBRANCH  13  14
ENDBRANCH  11  13
BRANCH  12  23
ATOM     23  N1  <0> d           1.623  -4.759  -0.755  0.00  0.00    -0.070 N 
ATOM     24  H15 <0> d           2.391  -4.332  -0.259  0.00  0.00     0.275 HD
ATOM     25  H16 <0> d           1.729  -5.762  -0.740  0.00  0.00     0.275 HD
ATOM     26  H31 <0> d           1.619  -4.436  -1.711  0.00  0.00     0.275 HD
ENDBRANCH  12  23
TORSDOF 3
