REMARK  3 active torsions:
REMARK  status: ('A' for Active; 'I' for Inactive)
REMARK    1  A    between atoms: C4_5  and  C6_8 
REMARK    2  A    between atoms: C6_8  and  N3_9 
REMARK    3  A    between atoms: N3_9  and  C7_10 
ROOT
ATOM      1  C7  <0> d          -1.333  -6.161  -0.203  0.00  0.00     0.347 A 
ATOM      2  C8  <0> d          -2.683  -6.676   0.240  0.00  0.00     0.012 A 
ATOM      3  C9  <0> d          -3.395  -6.551   1.412  0.00  0.00     0.031 A 
ATOM      4  C10 <0> d          -4.638  -7.148   1.532  0.00  0.00     0.011 A 
ATOM      5  C11 <0> d          -5.160  -7.869   0.472  0.00  0.00     0.021 A 
ATOM      6  C12 <0> d          -4.449  -7.995  -0.702  0.00  0.00     0.031 A 
ATOM      7  C13 <0> d          -3.197  -7.397  -0.830  0.00  0.00     0.043 A 
ATOM      8  N4  <0> d          -2.298  -7.381  -1.898  0.00  0.00    -0.324 N 
ATOM      9  C14 <0> d          -1.182  -6.682  -1.616  0.00  0.00     0.260 A 
ATOM     10  O1  <0> d          -0.235  -6.503  -2.352  0.00  0.00    -0.270 OA
ATOM     11 Br1  <0> d          -5.620  -6.980   3.140  0.00  0.00    -0.051 Br
ATOM     12  H13 <0> d          -2.458  -7.824  -2.746  0.00  0.00     0.169 HD
ENDROOT
BRANCH   1  13
ATOM     13  N3  <0> d          -1.314  -4.692  -0.191  0.00  0.00     0.107 N 
ATOM     14  H9  <0> d          -1.898  -4.328   0.547  0.00  0.00     0.317 HD
BRANCH  13  15
ATOM     15  C6  <0> d           0.059  -4.184  -0.075  0.00  0.00     0.331 C 
BRANCH  15  16
ATOM     16  C4  <0> d           0.039  -2.677  -0.067  0.00  0.00     0.079 A 
ATOM     17  N1  <0> d           0.024  -2.010  -1.207  0.00  0.00    -0.260 NA
ATOM     18  C3  <0> d           0.006  -0.689  -1.200  0.00  0.00     0.143 A 
ATOM     19  C2  <0> d           0.002  -0.004   0.002  0.00  0.00     0.048 A 
ATOM     20  C1  <0> d          -0.018   1.503   0.010  0.00  0.00     0.072 C 
ATOM     21  N2  <0> d           0.022  -0.671   1.143  0.00  0.00    -0.262 NA
ATOM     22  C5  <0> d           0.035  -1.992   1.135  0.00  0.00     0.145 A 
ENDBRANCH  15  16
ENDBRANCH  13  15
ENDBRANCH   1  13
TORSDOF 3
