REMARK  4 active torsions:
REMARK  status: ('A' for Active; 'I' for Inactive)
REMARK    1  A    between atoms: C11_14  and  C14_19 
REMARK       I    between atoms: C14_19  and  N5_21 
REMARK    2  A    between atoms: N5_21  and  C15_22 
REMARK    3  A    between atoms: C15_22  and  C16_23 
REMARK    4  A    between atoms: C19_26  and  O3_29 
ROOT
ATOM      1  C1  <0> d           0.226   1.066  -0.024  0.00  0.00     0.052 C 
ATOM      2  C2  <0> d           0.108  -0.437  -0.044  0.00  0.00    -0.015 A 
ATOM      3  C3  <0> d           1.229  -1.212  -0.077  0.00  0.00     0.012 A 
ATOM      4  C4  <0> d           1.104  -2.608  -0.095  0.00  0.00     0.018 A 
ATOM      5  C5  <0> d          -0.121  -3.179  -0.079  0.00  0.00     0.102 A 
ATOM      6  N1  <0> d          -1.248  -2.412  -0.045  0.00  0.00    -0.272 N 
ATOM      7  C6  <0> d          -1.159  -1.048  -0.021  0.00  0.00     0.145 A 
ATOM      8  N2  <0> d          -2.247  -0.279   0.018  0.00  0.00    -0.211 NA
ATOM      9  C7  <0> d          -3.467  -0.800   0.041  0.00  0.00     0.149 A 
ATOM     10  C8  <0> d          -3.620  -2.205   0.024  0.00  0.00     0.080 A 
ATOM     11  C9  <0> d          -2.457  -3.016  -0.030  0.00  0.00     0.267 A 
ATOM     12  O1  <0> d          -2.545  -4.231  -0.046  0.00  0.00    -0.267 OA
ATOM     13  C10 <0> d          -4.895  -2.788   0.048  0.00  0.00     0.042 A 
ATOM     14  C11 <0> d          -6.018  -1.972   0.088  0.00  0.00     0.076 A 
ATOM     15  C12 <0> d          -5.839  -0.512   0.104  0.00  0.00     0.118 A 
ATOM     16  N3  <0> d          -6.882   0.278   0.142  0.00  0.00    -0.384 N 
ATOM     17  N4  <0> d          -4.568   0.021   0.080  0.00  0.00    -0.321 N 
ATOM     18  C13 <0> d          -4.389   1.475   0.096  0.00  0.00     0.159 C 
ATOM     19  H8  <0> d          -6.746   1.369   0.154  0.00  0.00     0.157 HD
ATOM     20  H22 <0> d          -7.895  -0.150   0.161  0.00  0.00     0.157 HD
ENDROOT
BRANCH  14  21
ATOM     21  C14 <0> d          -7.363  -2.557   0.114  0.00  0.00     0.255 C 
ATOM     22  O2  <0> d          -8.341  -1.837   0.044  0.00  0.00    -0.268 OA
ATOM     23  N5  <0> d          -7.515  -3.893   0.216  0.00  0.00    -0.353 N 
ATOM     24  H12 <0> d          -6.630  -4.544   0.279  0.00  0.00     0.163 HD
BRANCH  23  25
ATOM     25  C15 <0> d          -8.858  -4.477   0.242  0.00  0.00     0.161 C 
BRANCH  25  26
ATOM     26  C16 <0> d          -8.752  -5.976   0.360  0.00  0.00    -0.040 A 
ATOM     27  C21 <0> d          -8.720  -6.569   1.609  0.00  0.00     0.011 A 
ATOM     28  C20 <0> d          -8.622  -7.942   1.720  0.00  0.00     0.037 A 
ATOM     29  C19 <0> d          -8.556  -8.727   0.577  0.00  0.00     0.068 A 
ATOM     30  C18 <0> d          -8.588  -8.129  -0.674  0.00  0.00     0.037 A 
ATOM     31  C17 <0> d          -8.691  -6.755  -0.780  0.00  0.00     0.011 A 
BRANCH  29  32
ATOM     32  O3  <0> d          -8.460 -10.078   0.684  0.00  0.00    -0.356 OA
ATOM     33  C22 <0> d          -8.395 -10.822  -0.535  0.00  0.00     0.210 C 
ENDBRANCH  29  32
ENDBRANCH  25  26
ENDBRANCH  23  25
ENDBRANCH  14  21
TORSDOF 4
