REMARK  5 active torsions:
REMARK  status: ('A' for Active; 'I' for Inactive)
REMARK    1  A    between atoms: C2_2  and  C3_3 
REMARK    2  A    between atoms: N1_12  and  C11_17 
REMARK    3  A    between atoms: C10_13  and  N3_15 
REMARK    4  A    between atoms: N3_15  and  N4_16 
REMARK    5  A    between atoms: C14_20  and  O2_23 
ROOT
ATOM      1  C3  <0> d           4.333  -0.006  -9.394  0.00  0.00     0.061 C 
ATOM      2  C4  <0> d           4.087  -0.230  -7.899  0.00  0.00     0.078 C 
ATOM      3  C5  <0> d           4.100  -1.735  -7.639  0.00  0.00    -0.021 A 
ATOM      4  C6  <0> d           4.649  -2.564  -8.553  0.00  0.00     0.016 A 
ATOM      5  S1  <0> d           4.457  -4.187  -7.872  0.00  0.00    -0.071 SA
ATOM      6  C7  <0> d           3.639  -3.747  -6.359  0.00  0.00     0.133 A 
ATOM      7  C8  <0> d           3.542  -2.346  -6.435  0.00  0.00     0.077 A 
ATOM      8  C9  <0> d           2.907  -1.706  -5.324  0.00  0.00     0.280 A 
ATOM      9  O1  <0> d           2.774  -0.494  -5.303  0.00  0.00    -0.266 OA
ATOM     10  N1  <0> d           2.461  -2.458  -4.302  0.00  0.00    -0.107 N 
ATOM     11  C10 <0> d           2.596  -3.817  -4.310  0.00  0.00     0.725 A 
ATOM     12  N2  <0> d           3.174  -4.432  -5.321  0.00  0.00    -0.055 NA
ATOM     13  C18 <0> d           5.276  -2.162  -9.851  0.00  0.00     0.215 C 
ATOM     14  O3  <0> d           5.483  -0.741  -9.820  0.00  0.00    -0.375 OA
ATOM     15  C19 <0> d           3.111  -0.478 -10.186  0.00  0.00     0.046 C 
ENDROOT
BRANCH  10  16
ATOM     16  C11 <0> d           1.841  -1.835  -3.208  0.00  0.00     0.060 A 
ATOM     17  C16 <0> d           2.599  -1.429  -2.119  0.00  0.00     0.033 A 
ATOM     18  C15 <0> d           1.989  -0.812  -1.045  0.00  0.00     0.039 A 
ATOM     19  C14 <0> d           0.617  -0.607  -1.050  0.00  0.00     0.068 A 
ATOM     20  C13 <0> d          -0.142  -1.012  -2.139  0.00  0.00     0.039 A 
ATOM     21  C12 <0> d           0.469  -1.625  -3.216  0.00  0.00     0.033 A 
BRANCH  19  22
ATOM     22  O2  <0> d           0.015  -0.004   0.009  0.00  0.00    -0.356 OA
ATOM     23  C17 <0> d           0.857   0.388   1.096  0.00  0.00     0.210 C 
ENDBRANCH  19  22
ENDBRANCH  10  16
BRANCH  11  24
ATOM     24  N3  <0> d           2.124  -4.551  -3.251  0.00  0.00    -0.154 N 
ATOM     25  H8  <0> d           1.632  -4.114  -2.538  0.00  0.00     0.199 HD
BRANCH  24  26
ATOM     26  N4  <0> d           2.347  -5.898  -3.200  0.00  0.00    -0.235 NA
ATOM     27  H9  <0> d           3.333  -6.104  -3.259  0.00  0.00     0.143 HD
ATOM     28  H10 <0> d           1.944  -6.300  -2.367  0.00  0.00     0.143 HD
ENDBRANCH  24  26
ENDBRANCH  11  24
BRANCH   1  29
ATOM     29  C2  <0> d           4.559   1.485  -9.653  0.00  0.00     0.033 C 
ATOM     30  C1  <0> d           4.681   1.729 -11.158  0.00  0.00     0.008 C 
ENDBRANCH   1  29
TORSDOF 5
