REMARK  5 active torsions:
REMARK  status: ('A' for Active; 'I' for Inactive)
REMARK    1  A    between atoms: C2_2  and  N1_3 
REMARK    2  A    between atoms: N2_6  and  C7_9 
REMARK    3  A    between atoms: C8_10  and  N7_22 
REMARK    4  A    between atoms: C9_11  and  N5_15 
REMARK    5  A    between atoms: N5_15  and  C11_16 
ROOT
ATOM      1  C7  <0> d          -4.339  -2.891  -1.686  0.00  0.00     0.157 A 
ATOM      2  C8  <0> d          -4.316  -4.270  -1.466  0.00  0.00     0.118 A 
ATOM      3  C9  <0> d          -5.114  -5.080  -2.276  0.00  0.00     0.160 A 
ATOM      4  N3  <0> d          -5.862  -4.511  -3.219  0.00  0.00    -0.222 NA
ATOM      5  C10 <0> d          -5.855  -3.205  -3.393  0.00  0.00     0.237 A 
ATOM      6  N4  <0> d          -5.120  -2.405  -2.647  0.00  0.00    -0.222 NA
ENDROOT
BRANCH   1   7
ATOM      7  N2  <0> d          -3.564  -2.039  -0.908  0.00  0.00    -0.361 N 
ATOM      8  C4  <0> d          -4.125  -1.377   0.279  0.00  0.00     0.152 C 
ATOM      9  C3  <0> d          -3.813   0.120   0.194  0.00  0.00     0.254 C 
ATOM     10  N1  <0> d          -2.367   0.309   0.022  0.00  0.00    -0.068 N 
ATOM     11  C6  <0> d          -1.938  -0.258  -1.263  0.00  0.00     0.254 C 
ATOM     12  H22 <0> d          -1.878  -0.155   0.773  0.00  0.00     0.280 HD
ATOM     13  C5  <0> d          -2.158  -1.774  -1.250  0.00  0.00     0.152 C 
BRANCH  10  14
ATOM     14  C2  <0> d          -2.056   1.744   0.050  0.00  0.00     0.230 C 
ATOM     15  C1  <0> d          -2.387   2.311   1.432  0.00  0.00     0.034 C 
ENDBRANCH  10  14
ENDBRANCH   1   7
BRANCH   2  16
ATOM     16  N7  <0> d          -3.510  -4.826  -0.460  0.00  0.00    -0.393 N 
ATOM     17  H20 <0> d          -3.018  -4.247   0.143  0.00  0.00     0.156 HD
ATOM     18  H21 <0> d          -3.446  -5.790  -0.367  0.00  0.00     0.156 HD
ENDBRANCH   2  16
BRANCH   3  19
ATOM     19  N5  <0> d          -5.127  -6.460  -2.100  0.00  0.00    -0.324 N 
ATOM     20  H15 <0> d          -4.639  -6.859  -1.363  0.00  0.00     0.169 HD
BRANCH  19  21
ATOM     21  C11 <0> d          -5.840  -7.266  -2.981  0.00  0.00     0.128 A 
ATOM     22  N6  <0> d          -6.592  -6.710  -3.918  0.00  0.00    -0.243 NA
ATOM     23  C15 <0> d          -7.280  -7.439  -4.776  0.00  0.00     0.119 A 
ATOM     24  C14 <0> d          -7.248  -8.817  -4.720  0.00  0.00     0.019 A 
ATOM     25  C13 <0> d          -6.476  -9.441  -3.748  0.00  0.00     0.005 A 
ATOM     26  C12 <0> d          -5.761  -8.651  -2.866  0.00  0.00     0.050 A 
ENDBRANCH  19  21
ENDBRANCH   3  19
TORSDOF 5
