REMARK  3 active torsions:
REMARK  status: ('A' for Active; 'I' for Inactive)
REMARK    1  A    between atoms: C6_6  and  N1_8 
REMARK    2  A    between atoms: C8_9  and  O2_29 
REMARK    3  A    between atoms: C9_10  and  C12_16 
ROOT
ATOM      1  N1  <0> d           0.052  -2.797   2.392  0.00  0.00    -0.295 N 
ATOM      2  C8  <0> d           1.334  -3.140   3.012  0.00  0.00     0.242 C 
ATOM      3  C9  <0> d           1.204  -3.056   4.534  0.00  0.00     0.162 C 
ATOM      4  C10 <0> d          -0.056  -3.764   4.964  0.00  0.00     0.234 C 
ATOM      5  O1  <0> d          -0.086  -4.361   6.019  0.00  0.00    -0.273 OA
ATOM      6  N2  <0> d          -1.147  -3.733   4.177  0.00  0.00    -0.303 N 
ATOM      7  C11 <0> d          -1.109  -3.148   2.968  0.00  0.00     0.183 C 
ATOM      8  S1  <0> d          -2.577  -2.849   2.140  0.00  0.00    -0.040 SA
ATOM      9  H11 <0> d          -1.973  -4.135   4.489  0.00  0.00     0.171 HD
ENDROOT
BRANCH   3  10
ATOM     10  C12 <0> d           1.139  -1.588   4.961  0.00  0.00     0.264 C 
ATOM     11  N4  <0> d          -0.097  -0.977   4.446  0.00  0.00     0.091 N 
ATOM     12  C22 <0> d          -0.169   0.468   4.681  0.00  0.00     0.274 C 
ATOM     13  H20 <0> d          -0.225  -1.191   3.468  0.00  0.00     0.316 HD
ATOM     14  C21 <0> d          -0.240   0.757   6.192  0.00  0.00     0.067 C 
ATOM     15  C14 <0> d           0.883  -0.028   6.825  0.00  0.00    -0.041 A 
ATOM     16  C13 <0> d           1.121  -1.496   6.489  0.00  0.00     0.146 A 
ATOM     17  C15 <0> d           1.866   0.335   7.638  0.00  0.00    -0.005 A 
ATOM     18  N3  <0> d           2.406  -1.852   7.089  0.00  0.00    -0.379 N 
ATOM     19  C20 <0> d           2.822  -0.806   7.776  0.00  0.00     0.039 A 
ATOM     20  H25 <0> d           2.862  -2.702   6.990  0.00  0.00     0.160 HD
ATOM     21  C19 <0> d           3.981  -0.648   8.591  0.00  0.00     0.030 A 
ATOM     22  C18 <0> d           4.148   0.546   9.215  0.00  0.00     0.002 A 
ATOM     23  C17 <0> d           3.262   1.623   9.111  0.00  0.00     0.001 A 
ATOM     24  C16 <0> d           2.130   1.590   8.359  0.00  0.00     0.014 A 
ENDBRANCH   3  10
BRANCH   2  25
ATOM     25  O2  <0> d           2.337  -2.224   2.568  0.00  0.00    -0.375 OA
ATOM     26  H21 <0> d           2.474  -2.224   1.611  0.00  0.00     0.212 HD
ENDBRANCH   2  25
BRANCH   1  27
ATOM     27  C6  <0> d           0.037  -2.089   1.186  0.00  0.00     0.045 A 
ATOM     28  C5  <0> d           0.041  -2.773  -0.023  0.00  0.00    -0.035 A 
ATOM     29  C4  <0> d           0.025  -2.071  -1.212  0.00  0.00     0.009 A 
ATOM     30  C23 <0> d           0.061  -4.280  -0.037  0.00  0.00     0.050 C 
ATOM     31  C3  <0> d           0.006  -0.688  -1.200  0.00  0.00     0.007 A 
ATOM     32  C2  <0> d           0.002  -0.004   0.002  0.00  0.00    -0.060 A 
ATOM     33  C1  <0> d          -0.018   1.503   0.010  0.00  0.00     0.048 C 
ATOM     34  C7  <0> d           0.023  -0.700   1.194  0.00  0.00     0.037 A 
ENDBRANCH   1  27
TORSDOF 3
