REMARK  5 active torsions:
REMARK  status: ('A' for Active; 'I' for Inactive)
REMARK    1  A    between atoms: C7_7  and  C12_15 
REMARK    2  A    between atoms: N1_9  and  C9_10 
REMARK    3  A    between atoms: C9_10  and  C10_11 
REMARK    4  A    between atoms: C10_11  and  C11_12 
REMARK       I    between atoms: C11_12  and  N2_14 
REMARK    5  A    between atoms: C13_16  and  C15_19 
ROOT
ATOM      1  C12 <0> d           0.699  -3.253  -0.021  0.00  0.00     0.036 C 
ATOM      2  C13 <0> d           1.029  -4.375  -0.701  0.00  0.00     0.065 C 
ATOM      3  C14 <0> d           2.308  -4.478  -1.336  0.00  0.00     0.099 C 
ATOM      4  N3  <0> d           3.324  -4.559  -1.839  0.00  0.00    -0.192 NA
ENDROOT
BRANCH   2   5
ATOM      5  C15 <0> d           0.049  -5.517  -0.792  0.00  0.00     0.227 A 
ATOM      6  N5  <0> d          -0.282  -5.787  -2.197  0.00  0.00    -0.362 N 
ATOM      7  C21 <0> d           0.083  -7.009  -2.457  0.00  0.00     0.056 A 
ATOM      8  H19 <0> d          -0.698  -5.168  -2.817  0.00  0.00     0.162 HD
ATOM      9  C16 <0> d           0.679  -7.616  -1.235  0.00  0.00     0.056 A 
ATOM     10  C20 <0> d           0.015  -7.835  -3.670  0.00  0.00     0.031 A 
ATOM     11  N4  <0> d           0.658  -6.746  -0.267  0.00  0.00    -0.362 N 
ATOM     12  C17 <0> d           1.158  -9.002  -1.323  0.00  0.00     0.031 A 
ATOM     13  H18 <0> d           0.985  -6.884   0.636  0.00  0.00     0.162 HD
ATOM     14  C18 <0> d           1.046  -9.673  -2.487  0.00  0.00     0.002 A 
ATOM     15  C19 <0> d           0.484  -9.099  -3.641  0.00  0.00     0.002 A 
ENDBRANCH   2   5
BRANCH   1  16
ATOM     16  C7  <0> d           1.702  -2.208   0.199  0.00  0.00    -0.007 A 
ATOM     17  C5  <0> d           1.448  -0.809   0.592  0.00  0.00     0.002 A 
ATOM     18  C4  <0> d           2.709  -0.198   0.678  0.00  0.00     0.045 A 
ATOM     19  C6  <0> d           0.295  -0.075   0.861  0.00  0.00     0.014 A 
ATOM     20  C3  <0> d           2.793   1.144   1.035  0.00  0.00     0.030 A 
ATOM     21  N1  <0> d           3.655  -1.151   0.363  0.00  0.00    -0.355 N 
ATOM     22  C2  <0> d           1.645   1.859   1.300  0.00  0.00     0.002 A 
ATOM     23  C1  <0> d           0.400   1.253   1.213  0.00  0.00     0.001 A 
ATOM     24  C8  <0> d           3.056  -2.337   0.080  0.00  0.00     0.103 A 
BRANCH  21  25
ATOM     25  C9  <0> d           5.101  -0.917   0.336  0.00  0.00     0.138 C 
BRANCH  25  26
ATOM     26  C10 <0> d           5.671  -1.089   1.745  0.00  0.00     0.122 C 
BRANCH  26  27
ATOM     27  C11 <0> d           7.159  -0.849   1.717  0.00  0.00     0.216 C 
ATOM     28  O1  <0> d           7.708  -0.568   0.673  0.00  0.00    -0.274 OA
ATOM     29  N2  <0> d           7.878  -0.946   2.853  0.00  0.00    -0.370 N 
ATOM     30  H10 <0> d           7.439  -1.171   3.688  0.00  0.00     0.159 HD
ATOM     31  H11 <0> d           8.836  -0.791   2.835  0.00  0.00     0.159 HD
ENDBRANCH  26  27
ENDBRANCH  25  26
ENDBRANCH  21  25
ENDBRANCH   1  16
TORSDOF 5
