REMARK  3 active torsions:
REMARK  status: ('A' for Active; 'I' for Inactive)
REMARK    1  A    between atoms: C5_6  and  N3_10 
REMARK       I    between atoms: N3_10  and  C8_11 
REMARK    2  A    between atoms: C8_11  and  C9_13 
REMARK    3  A    between atoms: C9_13  and  N4_14 
ROOT
ATOM      1  N3  <0> d           3.522  -2.756  -1.248  0.00  0.00    -0.322 N 
ATOM      2  C8  <0> d           3.445  -4.099  -1.322  0.00  0.00     0.238 C 
ATOM      3  O1  <0> d           3.004  -4.734  -0.387  0.00  0.00    -0.272 OA
ATOM      4  H6  <0> d           3.874  -2.248  -1.996  0.00  0.00     0.166 HD
ENDROOT
BRANCH   1   5
ATOM      5  C5  <0> d           3.071  -2.062  -0.039  0.00  0.00     0.291 A 
ATOM      6  N1  <0> d           3.569  -0.680  -0.036  0.00  0.00    -0.351 N 
ATOM      7  C4  <0> d           2.533   0.108  -0.022  0.00  0.00     0.057 A 
ATOM      8  H14 <0> d           4.499  -0.405  -0.045  0.00  0.00     0.163 HD
ATOM      9  C3  <0> d           2.389   1.570  -0.013  0.00  0.00     0.031 A 
ATOM     10  C6  <0> d           1.290  -0.712  -0.014  0.00  0.00     0.057 A 
ATOM     11  C2  <0> d           1.158   2.118   0.002  0.00  0.00     0.002 A 
ATOM     12  C1  <0> d          -0.016   1.344   0.009  0.00  0.00     0.002 A 
ATOM     13  C7  <0> d           0.002  -0.004   0.002  0.00  0.00     0.031 A 
ATOM     14  N2  <0> d           1.606  -1.974  -0.024  0.00  0.00    -0.351 N 
ATOM     15  H15 <0> d           0.987  -2.721  -0.022  0.00  0.00     0.163 HD
ENDBRANCH   1   5
BRANCH   2  16
ATOM     16  C9  <0> d           3.908  -4.813  -2.565  0.00  0.00     0.231 C 
BRANCH  16  17
ATOM     17  N4  <0> d           3.723  -6.257  -2.397  0.00  0.00    -0.347 N 
ATOM     18  C13 <0> d           2.553  -6.939  -2.648  0.00  0.00     0.046 A 
ATOM     19  C12 <0> d           2.795  -8.295  -2.366  0.00  0.00     0.009 A 
ATOM     20  C14 <0> d           1.295  -6.547  -3.094  0.00  0.00     0.030 A 
ATOM     21  C11 <0> d           4.188  -8.374  -1.920  0.00  0.00     0.032 A 
ATOM     22  C17 <0> d           1.776  -9.235  -2.535  0.00  0.00     0.023 A 
ATOM     23  C10 <0> d           4.684  -7.128  -1.962  0.00  0.00     0.092 A 
ATOM     24  C16 <0> d           0.535  -8.824  -2.971  0.00  0.00     0.020 A 
ATOM     25 Br1  <0> d           2.092 -11.060  -2.151  0.00  0.00    -0.050 Br
ATOM     26  C15 <0> d           0.299  -7.486  -3.252  0.00  0.00     0.004 A 
ENDBRANCH  16  17
ENDBRANCH   2  16
TORSDOF 3
