REMARK  8 active torsions:
REMARK  status: ('A' for Active; 'I' for Inactive)
REMARK    1  A    between atoms: C3_3  and  C11_14 
REMARK    2  A    between atoms: C5_5  and  N1_7 
REMARK       I    between atoms: C11_14  and  N3_16 
REMARK    3  A    between atoms: N3_16  and  C12_17 
REMARK    4  A    between atoms: C12_17  and  C13_18 
REMARK    5  A    between atoms: C18_23  and  C19_24 
REMARK    6  A    between atoms: C19_24  and  S1_25 
REMARK    7  A    between atoms: S1_25  and  N4_28 
REMARK    8  A    between atoms: N4_28  and  C20_29 
ROOT
ATOM      1  C1  <0> d           4.263   5.717  -0.407  0.00  0.00     0.078 C 
ATOM      2  C2  <0> d           3.081   4.816  -0.654  0.00  0.00     0.069 A 
ATOM      3  C3  <0> d           3.118   3.457  -0.680  0.00  0.00     0.086 A 
ATOM      4  C4  <0> d           1.730   3.024  -0.955  0.00  0.00     0.114 A 
ATOM      5  C5  <0> d           1.000   4.190  -1.071  0.00  0.00     0.175 A 
ATOM      6  O1  <0> d           1.828   5.228  -0.882  0.00  0.00    -0.295 OA
ATOM      7  C10 <0> d           1.248   1.681  -1.080  0.00  0.00     0.105 C 
ATOM      8  N2  <0> d           0.865   0.616  -1.179  0.00  0.00    -0.191 NA
ENDROOT
BRANCH   3   9
ATOM      9  C11 <0> d           4.295   2.596  -0.477  0.00  0.00     0.256 C 
ATOM     10  O2  <0> d           4.922   2.187  -1.436  0.00  0.00    -0.268 OA
ATOM     11  N3  <0> d           4.678   2.262   0.771  0.00  0.00    -0.352 N 
ATOM     12  H8  <0> d           4.134   2.521   1.531  0.00  0.00     0.163 HD
BRANCH  11  13
ATOM     13  C12 <0> d           5.916   1.507   0.980  0.00  0.00     0.162 C 
BRANCH  13  14
ATOM     14  C13 <0> d           6.114   1.264   2.454  0.00  0.00    -0.033 A 
ATOM     15  C18 <0> d           5.454   0.223   3.078  0.00  0.00    -0.035 A 
ATOM     16  C17 <0> d           5.635   0.000   4.430  0.00  0.00     0.009 A 
ATOM     17  C16 <0> d           6.478   0.819   5.158  0.00  0.00     0.001 A 
ATOM     18  C15 <0> d           7.138   1.861   4.534  0.00  0.00     0.001 A 
ATOM     19  C14 <0> d           6.961   2.080   3.181  0.00  0.00     0.009 A 
BRANCH  15  20
ATOM     20  C19 <0> d           4.536  -0.670   2.284  0.00  0.00     0.202 C 
BRANCH  20  21
ATOM     21  S1  <0> d           5.439  -2.155   1.762  0.00  0.00     0.230 S 
ATOM     22  O3  <0> d           6.336  -1.836   0.707  0.00  0.00    -0.206 OA
ATOM     23  O4  <0> d           5.886  -2.881   2.898  0.00  0.00    -0.206 OA
BRANCH  21  24
ATOM     24  N4  <0> d           4.294  -3.126   1.063  0.00  0.00    -0.315 N 
ATOM     25  H17 <0> d           4.083  -3.987   1.456  0.00  0.00     0.172 HD
BRANCH  24  26
ATOM     26  C20 <0> d           3.599  -2.684  -0.148  0.00  0.00     0.084 C 
ATOM     27  C21 <0> d           3.413  -3.873  -1.093  0.00  0.00     0.032 C 
ATOM     28  C22 <0> d           2.230  -2.113   0.228  0.00  0.00     0.032 C 
ENDBRANCH  24  26
ENDBRANCH  21  24
ENDBRANCH  20  21
ENDBRANCH  15  20
ENDBRANCH  13  14
ENDBRANCH  11  13
ENDBRANCH   3   9
BRANCH   5  29
ATOM     29  N1  <0> d          -0.360   4.274  -1.335  0.00  0.00    -0.312 N 
ATOM     30  C9  <0> d          -1.081   5.430  -1.450  0.00  0.00     0.098 A 
ATOM     31  C8  <0> d          -2.363   5.103  -1.708  0.00  0.00     0.019 A 
ATOM     32  C7  <0> d          -2.440   3.696  -1.756  0.00  0.00     0.019 A 
ATOM     33  C6  <0> d          -1.202   3.214  -1.530  0.00  0.00     0.098 A 
ENDBRANCH   5  29
TORSDOF 8
