REMARK  3 active torsions:
REMARK  status: ('A' for Active; 'I' for Inactive)
REMARK    1  A    between atoms: C7_7  and  N1_15 
REMARK    2  A    between atoms: C10_10  and  S1_11 
REMARK       I    between atoms: N1_15  and  C11_16 
REMARK    3  A    between atoms: C11_16  and  C12_18 
ROOT
ATOM      1  C1  <0> d          -0.002   1.325   0.497  0.00  0.00     0.001 A 
ATOM      2  C2  <0> d           1.180   2.063   0.471  0.00  0.00     0.001 A 
ATOM      3  C3  <0> d           2.382   1.454   0.277  0.00  0.00     0.014 A 
ATOM      4  C4  <0> d           2.435   0.061   0.100  0.00  0.00     0.001 A 
ATOM      5  C5  <0> d           1.233  -0.688   0.126  0.00  0.00     0.003 A 
ATOM      6  C6  <0> d           0.012  -0.025   0.329  0.00  0.00     0.014 A 
ATOM      7  C7  <0> d           1.286  -2.087  -0.052  0.00  0.00     0.046 A 
ATOM      8  C8  <0> d           2.506  -2.698  -0.248  0.00  0.00     0.032 A 
ATOM      9  C9  <0> d           3.680  -1.952  -0.271  0.00  0.00     0.029 A 
ATOM     10  C10 <0> d           3.658  -0.601  -0.102  0.00  0.00     0.091 A 
ENDROOT
BRANCH   7  11
ATOM     11  N1  <0> d           0.115  -2.845  -0.029  0.00  0.00    -0.322 N 
ATOM     12  C11 <0> d           0.173  -4.168   0.215  0.00  0.00     0.258 C 
ATOM     13  O4  <0> d           1.230  -4.684   0.524  0.00  0.00    -0.267 OA
ATOM     14  H7  <0> d          -0.742  -2.418  -0.190  0.00  0.00     0.169 HD
BRANCH  12  15
ATOM     15  C12 <0> d          -1.046  -4.993   0.109  0.00  0.00     0.054 A 
ATOM     16  C16 <0> d          -0.992  -6.345   0.357  0.00  0.00     0.163 A 
ATOM     17  O6  <0> d          -2.094  -7.098   0.268  0.00  0.00    -0.287 OA
ATOM     18  C15 <0> d          -3.277  -6.562  -0.075  0.00  0.00     0.287 A 
ATOM     19  C14 <0> d          -3.386  -5.185  -0.346  0.00  0.00     0.084 A 
ATOM     20  O5  <0> d          -4.263  -7.274  -0.154  0.00  0.00    -0.260 OA
ATOM     21  C13 <0> d          -2.281  -4.398  -0.257  0.00  0.00     0.025 A 
ENDBRANCH  12  15
ENDBRANCH   7  11
BRANCH  10  22
ATOM     22  S1  <0> d           5.162   0.317  -0.138  0.00  0.00     0.138 S 
ATOM     23  O1  <0> d           5.567   0.518   1.244  0.00  0.00    -0.591 OA
ATOM     24  O2  <0> d           6.127  -0.483  -0.877  0.00  0.00    -0.591 OA
ATOM     25  O3  <0> d           4.873   1.575  -0.808  0.00  0.00    -0.591 OA
ENDBRANCH  10  22
TORSDOF 3
