REMARK  4 active torsions:
REMARK  status: ('A' for Active; 'I' for Inactive)
REMARK    1  A    between atoms: C7_7  and  N1_13 
REMARK    2  A    between atoms: N1_13  and  C10_14 
REMARK    3  A    between atoms: C10_14  and  C11_15 
REMARK    4  A    between atoms: C11_15  and  N2_16 
ROOT
ATOM      1  C1  <0> d          -0.378   1.206   0.597  0.00  0.00     0.001 A 
ATOM      2  C2  <0> d           0.731   2.030   0.647  0.00  0.00     0.002 A 
ATOM      3  C3  <0> d           1.987   1.487   0.471  0.00  0.00     0.024 A 
ATOM      4  C4  <0> d           2.144   0.126   0.252  0.00  0.00     0.067 A 
ATOM      5  C5  <0> d           1.047  -0.702   0.216  0.00  0.00    -0.004 A 
ATOM      6  C6  <0> d          -0.221  -0.145   0.382  0.00  0.00     0.011 A 
ATOM      7  C7  <0> d           1.108  -2.190   0.034  0.00  0.00     0.255 C 
ATOM      8  C8  <0> d           2.351  -2.670  -0.693  0.00  0.00     0.056 C 
ATOM      9  C9  <0> d           3.592  -2.295   0.130  0.00  0.00     0.148 C 
ATOM     10  S1  <0> d           3.782  -0.490   0.013  0.00  0.00     0.176 S 
ATOM     11  O1  <0> d           4.522  -0.000   1.122  0.00  0.00    -0.223 OA
ATOM     12  O2  <0> d           4.123  -0.117  -1.315  0.00  0.00    -0.223 OA
ENDROOT
BRANCH   7  13
ATOM     13  N1  <0> d          -0.073  -2.617  -0.729  0.00  0.00     0.094 N 
ATOM     14  H10 <0> d          -0.151  -3.623  -0.740  0.00  0.00     0.316 HD
BRANCH  13  15
ATOM     15  C10 <0> d          -0.041  -2.076  -2.094  0.00  0.00     0.290 C 
BRANCH  15  16
ATOM     16  C11 <0> d          -1.347  -2.424  -2.811  0.00  0.00     0.159 C 
BRANCH  16  17
ATOM     17  N2  <0> d          -1.316  -1.885  -4.172  0.00  0.00    -0.350 N 
ATOM     18  C14 <0> d          -0.856  -2.516  -5.274  0.00  0.00     0.182 A 
ATOM     19  N3  <0> d          -0.994  -1.720  -6.300  0.00  0.00    -0.361 N 
ATOM     20  C13 <0> d          -1.533  -0.562  -5.892  0.00  0.00     0.106 A 
ATOM     21  H18 <0> d          -0.742  -1.933  -7.212  0.00  0.00     0.166 HD
ATOM     22  C12 <0> d          -1.742  -0.644  -4.564  0.00  0.00     0.108 A 
ENDBRANCH  16  17
ENDBRANCH  15  16
ENDBRANCH  13  15
ENDBRANCH   7  13
TORSDOF 4
