REMARK  8 active torsions:
REMARK  status: ('A' for Active; 'I' for Inactive)
REMARK    1  A    between atoms: C2_2  and  C4_4 
REMARK    2  A    between atoms: C4_4  and  C5_5 
REMARK    3  A    between atoms: C4_4  and  N3_18 
REMARK       I    between atoms: C5_5  and  N1_7 
REMARK    4  A    between atoms: N1_7  and  C6_8 
REMARK    5  A    between atoms: C6_8  and  C7_9 
REMARK    6  A    between atoms: C7_9  and  C8_10 
REMARK    7  A    between atoms: C7_9  and  N2_15 
REMARK    8  A    between atoms: N3_18  and  C14_19 
ROOT
ATOM      1  C4  <0> d          -1.336  -0.825  -0.429  0.00  0.00     0.178 C 
ENDROOT
BRANCH   1   2
ATOM      2  C2  <0> d           0.161  -0.578  -0.626  0.00  0.00     0.009 C 
ATOM      3  C1  <0> d           0.914  -0.964   0.649  0.00  0.00     0.012 C 
ATOM      4  C3  <0> d           0.668  -1.426  -1.794  0.00  0.00     0.012 C 
ENDBRANCH   1   2
BRANCH   1   5
ATOM      5  C5  <0> d          -2.092  -0.315  -1.628  0.00  0.00     0.240 C 
ATOM      6  O1  <0> d          -2.605  -1.097  -2.400  0.00  0.00    -0.271 OA
ATOM      7  N1  <0> d          -2.198   1.012  -1.843  0.00  0.00    -0.357 N 
ATOM      8  H10 <0> d          -1.858   1.638  -1.186  0.00  0.00     0.162 HD
BRANCH   7   9
ATOM      9  C6  <0> d          -2.826   1.506  -3.071  0.00  0.00     0.162 C 
BRANCH   9  10
ATOM     10  C7  <0> d          -2.701   3.030  -3.129  0.00  0.00     0.261 C 
BRANCH  10  11
ATOM     11  C8  <0> d          -3.469   3.641  -1.985  0.00  0.00     0.085 A 
ATOM     12  O2  <0> d          -3.041   3.738  -0.715  0.00  0.00    -0.325 OA
ATOM     13  C11 <0> d          -3.982   4.341   0.030  0.00  0.00     0.142 A 
ATOM     14  C10 <0> d          -5.031   4.628  -0.762  0.00  0.00     0.027 A 
ATOM     15  C9  <0> d          -4.700   4.177  -2.060  0.00  0.00     0.037 A 
ENDBRANCH  10  11
BRANCH  10  16
ATOM     16  N2  <0> d          -1.286   3.410  -3.028  0.00  0.00    -0.067 N 
ATOM     17  C12 <0> d          -0.549   2.864  -4.175  0.00  0.00     0.270 C 
ATOM     18  C13 <0> d          -1.171   4.874  -3.024  0.00  0.00     0.270 C 
ATOM     19  H27 <0> d          -0.899   3.040  -2.172  0.00  0.00     0.280 HD
ENDBRANCH  10  16
ENDBRANCH   9  10
ENDBRANCH   7   9
ENDBRANCH   1   5
BRANCH   1  20
ATOM     20  N3  <0> d          -1.577  -2.262  -0.275  0.00  0.00    -0.360 N 
ATOM     21  H22 <0> d          -1.826  -2.797  -1.044  0.00  0.00     0.162 HD
BRANCH  20  22
ATOM     22  C14 <0> d          -1.451  -2.853   0.964  0.00  0.00     0.149 A 
ATOM     23  C16 <0> d          -1.692  -4.295   1.128  0.00  0.00     0.034 A 
ATOM     24  C15 <0> d          -1.511  -4.713   2.454  0.00  0.00     0.095 A 
ATOM     25  C17 <0> d          -2.056  -5.270   0.188  0.00  0.00     0.017 A 
ATOM     26  S1  <0> d          -1.076  -3.210   3.286  0.00  0.00     0.286 S 
ATOM     27  C20 <0> d          -1.678  -6.012   2.836  0.00  0.00     0.026 A 
ATOM     28  N4  <0> d          -1.124  -2.144   1.997  0.00  0.00    -0.141 NA
ATOM     29  O3  <0> d          -2.143  -2.877   4.164  0.00  0.00    -0.198 OA
ATOM     30  O4  <0> d           0.277  -3.323   3.705  0.00  0.00    -0.198 OA
ATOM     31  C19 <0> d          -2.048  -6.962   1.893  0.00  0.00     0.002 A 
ATOM     32  C18 <0> d          -2.228  -6.580   0.576  0.00  0.00     0.001 A 
ENDBRANCH  20  22
ENDBRANCH   1  20
TORSDOF 8
