REMARK  3 active torsions:
REMARK  status: ('A' for Active; 'I' for Inactive)
REMARK    1  A    between atoms: O1_2  and  C2_3 
REMARK    2  A    between atoms: C8_9  and  N2_13 
REMARK    3  A    between atoms: N2_13  and  C10_14 
ROOT
ATOM      1  C2  <0> d          -1.026  -0.652   0.151  0.00  0.00     0.068 A 
ATOM      2  C3  <0> d          -2.164   0.139   0.217  0.00  0.00     0.039 A 
ATOM      3  C4  <0> d          -3.415  -0.441   0.228  0.00  0.00     0.033 A 
ATOM      4  C5  <0> d          -3.546  -1.827   0.173  0.00  0.00     0.043 A 
ATOM      5  C6  <0> d          -2.401  -2.610   0.107  0.00  0.00     0.011 A 
ATOM      6  C7  <0> d          -1.151  -2.033   0.090  0.00  0.00     0.048 A 
ATOM      7  C8  <0> d          -2.869  -4.046   0.060  0.00  0.00     0.313 A 
ATOM      8  C9  <0> d          -4.379  -3.943   0.107  0.00  0.00     0.257 A 
ATOM      9  O2  <0> d          -5.165  -4.867   0.091  0.00  0.00    -0.270 OA
ATOM     10  N1  <0> d          -4.685  -2.636   0.172  0.00  0.00    -0.325 N 
ATOM     11  H9  <0> d          -5.591  -2.295   0.212  0.00  0.00     0.169 HD
ENDROOT
BRANCH   7  12
ATOM     12  N2  <0> d          -2.364  -4.791   1.221  0.00  0.00    -0.053 N 
ATOM     13  H10 <0> d          -2.610  -4.300   2.068  0.00  0.00     0.279 HD
ATOM     14  H17 <0> d          -2.775  -5.712   1.234  0.00  0.00     0.279 HD
BRANCH  12  15
ATOM     15  C10 <0> d          -0.903  -4.908   1.130  0.00  0.00     0.202 C 
ATOM     16  C13 <0> d          -0.352  -5.618   2.400  0.00  0.00     0.173 C 
ATOM     17  S1  <0> d           1.294  -6.175   1.788  0.00  0.00     0.146 S 
ATOM     18  C12 <0> d           0.969  -6.153  -0.022  0.00  0.00     0.142 C 
ATOM     19  O3  <0> d           2.262  -5.181   2.096  0.00  0.00    -0.228 OA
ATOM     20  O4  <0> d           1.512  -7.516   2.203  0.00  0.00    -0.228 OA
ATOM     21  C11 <0> d          -0.525  -5.758  -0.095  0.00  0.00     0.049 C 
ENDBRANCH  12  15
ENDBRANCH   7  12
BRANCH   1  22
ATOM     22  O1  <0> d           0.206  -0.076   0.141  0.00  0.00    -0.356 OA
ATOM     23  C1  <0> d           0.256   1.350   0.207  0.00  0.00     0.210 C 
ENDBRANCH   1  22
TORSDOF 3
