REMARK  5 active torsions:
REMARK  status: ('A' for Active; 'I' for Inactive)
REMARK       I    between atoms: C2_2  and  N1_4 
REMARK    1  A    between atoms: N1_4  and  C3_5 
REMARK    2  A    between atoms: C7_9  and  C12_16 
REMARK    3  A    between atoms: C9_11  and  O2_12 
REMARK    4  A    between atoms: C12_16  and  N2_17 
REMARK    5  A    between atoms: C14_20  and  C17_25 
ROOT
ATOM      1  C3  <0> d          -1.167  -2.037  -0.086  0.00  0.00     0.037 A 
ATOM      2  C4  <0> d          -2.404  -2.699  -0.180  0.00  0.00     0.030 A 
ATOM      3  C5  <0> d          -2.453  -4.053  -0.276  0.00  0.00     0.017 A 
ATOM      4  C6  <0> d          -1.261  -4.800  -0.281  0.00  0.00     0.006 A 
ATOM      5  C7  <0> d          -1.291  -6.207  -0.380  0.00  0.00    -0.022 A 
ATOM      6  C8  <0> d          -0.093  -6.893  -0.381  0.00  0.00     0.073 A 
ATOM      7  C9  <0> d           1.104  -6.197  -0.285  0.00  0.00     0.183 A 
ATOM      8  O3  <0> d           1.127  -4.863  -0.192  0.00  0.00    -0.287 OA
ATOM      9  C10 <0> d          -0.014  -4.143  -0.186  0.00  0.00     0.091 A 
ATOM     10  C11 <0> d           0.025  -2.763  -0.095  0.00  0.00     0.067 A 
ENDROOT
BRANCH   5  11
ATOM     11  C12 <0> d          -2.601  -6.944  -0.482  0.00  0.00     0.176 C 
BRANCH  11  12
ATOM     12  N2  <0> d          -2.913  -7.192  -1.891  0.00  0.00    -0.263 N 
ATOM     13  C15 <0> d          -2.533  -8.285  -2.564  0.00  0.00     0.326 A 
ATOM     14  N3  <0> d          -2.950  -8.271  -3.843  0.00  0.00    -0.321 N 
ATOM     15  O5  <0> d          -1.887  -9.190  -2.074  0.00  0.00    -0.247 OA
ATOM     16  C14 <0> d          -3.686  -7.010  -4.033  0.00  0.00     0.140 A 
ATOM     17  H11 <0> d          -2.793  -8.957  -4.511  0.00  0.00     0.165 HD
ATOM     18  C13 <0> d          -3.613  -6.346  -2.672  0.00  0.00     0.261 A 
ATOM     19  C16 <0> d          -3.004  -6.142  -5.092  0.00  0.00     0.054 C 
ATOM     20  O4  <0> d          -4.086  -5.276  -2.353  0.00  0.00    -0.270 OA
BRANCH  16  21
ATOM     21  C17 <0> d          -5.119  -7.284  -4.413  0.00  0.00    -0.021 A 
ATOM     22  C22 <0> d          -5.425  -8.361  -5.223  0.00  0.00     0.012 A 
ATOM     23  C21 <0> d          -6.739  -8.617  -5.567  0.00  0.00     0.024 A 
ATOM     24  C20 <0> d          -7.747  -7.787  -5.110  0.00  0.00     0.034 A 
ATOM     25  C19 <0> d          -7.440  -6.705  -4.303  0.00  0.00     0.024 A 
ATOM     26 Cl1  <0> d          -9.397  -8.103  -5.547  0.00  0.00    -0.084 Cl
ATOM     27  C18 <0> d          -6.126  -6.454  -3.956  0.00  0.00     0.012 A 
ENDBRANCH  16  21
ENDBRANCH  11  12
ENDBRANCH   5  11
BRANCH   7  28
ATOM     28  O2  <0> d           2.265  -6.878  -0.288  0.00  0.00    -0.341 OA
ATOM     29  H19 <0> d           3.050  -6.318  -0.218  0.00  0.00     0.220 HD
ENDBRANCH   7  28
BRANCH   1  30
ATOM     30  N1  <0> d          -1.131  -0.679   0.009  0.00  0.00    -0.327 N 
ATOM     31  C2  <0> d          -0.007  -0.031  -0.226  0.00  0.00     0.218 C 
ATOM     32  C1  <0> d           0.076   1.452   0.029  0.00  0.00     0.117 C 
ATOM     33  O1  <0> d           0.965  -0.631  -0.650  0.00  0.00    -0.274 OA
ATOM     34  H4  <0> d          -1.932  -0.188   0.250  0.00  0.00     0.169 HD
ENDBRANCH   1  30
TORSDOF 5
