REMARK  3 active torsions:
REMARK  status: ('A' for Active; 'I' for Inactive)
REMARK    1  A    between atoms: C7_7  and  C8_8 
REMARK    2  A    between atoms: C7_7  and  N6_34 
REMARK    3  A    between atoms: C9_10  and  N3_20 
ROOT
ATOM      1  C8  <0> d           0.004  -0.003   0.068  0.00  0.00     0.154 A 
ATOM      2  N1  <0> d           1.139  -0.678   0.051  0.00  0.00    -0.219 NA
ATOM      3  C9  <0> d           2.316  -0.077  -0.020  0.00  0.00     0.121 A 
ATOM      4  C10 <0> d           2.361   1.343  -0.082  0.00  0.00     0.048 A 
ATOM      5  C11 <0> d           3.542   2.218  -0.166  0.00  0.00    -0.029 A 
ATOM      6  C12 <0> d           3.315   3.541  -0.210  0.00  0.00    -0.008 A 
ATOM      7  S1  <0> d           1.545   3.710  -0.148  0.00  0.00    -0.073 SA
ATOM      8  C13 <0> d           1.114   1.993  -0.060  0.00  0.00     0.114 A 
ATOM      9  N2  <0> d          -0.016   1.315   0.013  0.00  0.00    -0.224 NA
ATOM     10  C14 <0> d           4.591   4.334  -0.291  0.00  0.00     0.047 C 
ATOM     11  C15 <0> d           5.692   3.342   0.143  0.00  0.00     0.010 C 
ATOM     12  C16 <0> d           5.055   1.988  -0.222  0.00  0.00     0.041 C 
ENDROOT
BRANCH   3  13
ATOM     13  N3  <0> d           3.484  -0.818  -0.036  0.00  0.00    -0.267 NA
ATOM     14  C21 <0> d           3.630  -1.596   1.201  0.00  0.00     0.100 C 
ATOM     15  C20 <0> d           5.002  -2.276   1.217  0.00  0.00     0.056 C 
ATOM     16  C19 <0> d           5.135  -3.172  -0.010  0.00  0.00     0.118 A 
ATOM     17  C18 <0> d           4.912  -2.366  -1.286  0.00  0.00     0.056 C 
ATOM     18  N5  <0> d           4.188  -4.292   0.064  0.00  0.00    -0.325 N 
ATOM     19  C22 <0> d           6.491  -3.837  -0.035  0.00  0.00     0.254 A 
ATOM     20  C17 <0> d           3.542  -1.683  -1.221  0.00  0.00     0.100 C 
ATOM     21  C23 <0> d           4.929  -5.416   0.077  0.00  0.00     0.323 A 
ATOM     22  H30 <0> d           3.220  -4.233   0.097  0.00  0.00     0.165 HD
ATOM     23  N4  <0> d           6.243  -5.162   0.021  0.00  0.00    -0.277 N 
ATOM     24  O2  <0> d           4.459  -6.535   0.135  0.00  0.00    -0.247 OA
ATOM     25  H29 <0> d           6.931  -5.846   0.020  0.00  0.00     0.173 HD
ATOM     26  O1  <0> d           7.574  -3.295  -0.093  0.00  0.00    -0.270 OA
ENDBRANCH   3  13
BRANCH   1  27
ATOM     27  C7  <0> d          -1.299  -0.755   0.151  0.00  0.00     0.315 C 
BRANCH  27  28
ATOM     28  N6  <0> d          -1.787  -1.032  -1.216  0.00  0.00    -0.064 N 
ATOM     29  C4  <0> d          -2.913  -1.989  -1.166  0.00  0.00     0.235 C 
ATOM     30  C3  <0> d          -3.476  -2.167  -2.578  0.00  0.00     0.032 C 
ATOM     31  C2  <0> d          -2.377  -2.710  -3.496  0.00  0.00    -0.015 C 
ATOM     32  C1  <0> d          -2.916  -2.833  -4.922  0.00  0.00     0.010 C 
ATOM     33  C6  <0> d          -1.187  -1.746  -3.480  0.00  0.00     0.032 C 
ATOM     34  C5  <0> d          -0.691  -1.580  -2.042  0.00  0.00     0.235 C 
ATOM     35  H31 <0> d          -2.114  -0.154  -1.637  0.00  0.00     0.280 HD
ENDBRANCH  27  28
ENDBRANCH   1  27
TORSDOF 3
