REMARK  6 active torsions:
REMARK  status: ('A' for Active; 'I' for Inactive)
REMARK    1  A    between atoms: C2_2  and  N1_3 
REMARK    2  A    between atoms: N1_3  and  C3_4 
REMARK    3  A    between atoms: N1_3  and  S1_8 
REMARK    4  A    between atoms: C3_4  and  C4_5 
REMARK    5  A    between atoms: S1_8  and  C6_11 
REMARK    6  A    between atoms: C10_15  and  N3_18 
ROOT
ATOM      1  C4  <0> d           2.376  -2.032  -0.824  0.00  0.00     0.144 C 
ATOM      2  C5  <0> d           3.837  -2.211  -0.859  0.00  0.00     0.060 C 
ATOM      3  N2  <0> d           4.964  -2.350  -0.886  0.00  0.00    -0.197 NA
ENDROOT
BRANCH   1   4
ATOM      4  C3  <0> d           2.024  -0.620  -1.296  0.00  0.00     0.149 C 
BRANCH   4   5
ATOM      5  N1  <0> d           0.570  -0.442  -1.260  0.00  0.00    -0.306 N 
BRANCH   5   6
ATOM      6  C2  <0> d          -0.088  -0.038  -0.016  0.00  0.00     0.131 C 
ATOM      7  C1  <0> d           0.394   1.357   0.388  0.00  0.00     0.027 C 
ENDBRANCH   5   6
BRANCH   5   8
ATOM      8  S1  <0> d          -0.328  -0.696  -2.628  0.00  0.00     0.262 S 
ATOM      9  O1  <0> d           0.349  -1.694  -3.379  0.00  0.00    -0.200 OA
ATOM     10  O2  <0> d          -1.677  -0.844  -2.206  0.00  0.00    -0.200 OA
BRANCH   8  11
ATOM     11  C6  <0> d          -0.258   0.785  -3.580  0.00  0.00     0.100 A 
ATOM     12  C11 <0> d          -0.890   1.927  -3.127  0.00  0.00     0.060 A 
ATOM     13  C10 <0> d          -0.831   3.097  -3.876  0.00  0.00     0.046 A 
ATOM     14 Br1  <0> d          -1.829   1.901  -1.486  0.00  0.00    -0.047 Br
ATOM     15  C9  <0> d          -0.145   3.110  -5.083  0.00  0.00     0.054 A 
ATOM     16  C8  <0> d           0.481   1.962  -5.534  0.00  0.00     0.037 A 
ATOM     17  C7  <0> d           0.424   0.802  -4.783  0.00  0.00     0.050 A 
ATOM     18 Cl1  <0> d           1.340   1.978  -7.043  0.00  0.00    -0.084 Cl
BRANCH  13  19
ATOM     19  N3  <0> d          -1.464   4.255  -3.418  0.00  0.00    -0.398 N 
ATOM     20  H12 <0> d          -1.424   5.069  -3.943  0.00  0.00     0.156 HD
ATOM     21  H13 <0> d          -1.943   4.244  -2.575  0.00  0.00     0.156 HD
ENDBRANCH  13  19
ENDBRANCH   8  11
ENDBRANCH   5   8
ENDBRANCH   4   5
ENDBRANCH   1   4
TORSDOF 6
