REMARK  3 active torsions:
REMARK  status: ('A' for Active; 'I' for Inactive)
REMARK    1  A    between atoms: C9_9  and  N1_10 
REMARK       I    between atoms: N1_10  and  C10_11 
REMARK    2  A    between atoms: C10_11  and  C11_13 
REMARK    3  A    between atoms: N3_15  and  C15_20 
ROOT
ATOM      1  C11 <0> d           5.673  -0.299   3.045  0.00  0.00     0.122 C 
ATOM      2  N2  <0> d           5.279  -1.250   3.834  0.00  0.00    -0.168 NA
ATOM      3  N3  <0> d           5.812  -1.390   5.120  0.00  0.00    -0.232 N 
ATOM      4  C12 <0> d           6.441  -0.357   5.714  0.00  0.00     0.240 C 
ATOM      5  O2  <0> d           6.896  -0.483   6.831  0.00  0.00    -0.272 OA
ATOM      6  C13 <0> d           6.575   0.956   4.986  0.00  0.00     0.111 C 
ATOM      7  C14 <0> d           6.726   0.684   3.484  0.00  0.00     0.076 C 
ENDROOT
BRANCH   1   8
ATOM      8  C10 <0> d           5.090  -0.183   1.704  0.00  0.00     0.268 C 
ATOM      9  N1  <0> d           4.147  -1.058   1.302  0.00  0.00    -0.347 N 
ATOM     10  H11 <0> d           3.854  -1.764   1.899  0.00  0.00     0.163 HD
ATOM     11  O1  <0> d           5.457   0.703   0.955  0.00  0.00    -0.266 OA
BRANCH   9  12
ATOM     12  C9  <0> d           3.564  -0.942  -0.037  0.00  0.00     0.119 C 
ATOM     13  C4  <0> d           2.396   0.021  -0.021  0.00  0.00    -0.029 A 
ATOM     14  C3  <0> d           2.376   1.406  -0.013  0.00  0.00     0.010 A 
ATOM     15  C5  <0> d           1.208  -0.685  -0.013  0.00  0.00    -0.050 A 
ATOM     16  C2  <0> d           1.172   2.083   0.002  0.00  0.00     0.001 A 
ATOM     17  C1  <0> d          -0.017   1.377   0.010  0.00  0.00     0.001 A 
ATOM     18  C6  <0> d           0.002  -0.004   0.002  0.00  0.00     0.007 A 
ATOM     19  C7  <0> d           1.496  -2.171  -0.025  0.00  0.00     0.041 C 
ATOM     20  C8  <0> d           2.966  -2.294  -0.480  0.00  0.00     0.034 C 
ENDBRANCH   9  12
ENDBRANCH   1   8
BRANCH   3  21
ATOM     21  C15 <0> d           5.685  -2.668   5.825  0.00  0.00     0.128 C 
ATOM     22  C18 <0> d           4.181  -3.022   6.003  0.00  0.00     0.167 C 
ATOM     23  S1  <0> d           4.296  -4.835   6.313  0.00  0.00     0.146 S 
ATOM     24  C17 <0> d           5.944  -5.168   5.566  0.00  0.00     0.142 C 
ATOM     25  O3  <0> d           3.299  -5.499   5.549  0.00  0.00    -0.228 OA
ATOM     26  O4  <0> d           4.370  -5.062   7.714  0.00  0.00    -0.228 OA
ATOM     27  C16 <0> d           6.345  -3.784   5.000  0.00  0.00     0.043 C 
ENDBRANCH   3  21
TORSDOF 3
