REMARK  6 active torsions:
REMARK  status: ('A' for Active; 'I' for Inactive)
REMARK    1  A    between atoms: N1_12  and  C17_26 
REMARK    2  A    between atoms: C10_13  and  S2_15 
REMARK    3  A    between atoms: S2_15  and  C11_16 
REMARK    4  A    between atoms: C11_16  and  C12_17 
REMARK       I    between atoms: C12_17  and  N3_19 
REMARK       I    between atoms: N3_19  and  C13_20 
REMARK       I    between atoms: C13_20  and  N4_22 
REMARK    5  A    between atoms: N4_22  and  C14_23 
REMARK    6  A    between atoms: C17_26  and  C18_27 
ROOT
ATOM      1  C1  <0> d          -1.418   3.622   2.537  0.00  0.00     0.010 C 
ATOM      2  C2  <0> d          -0.924   3.099   1.186  0.00  0.00    -0.014 C 
ATOM      3  C3  <0> d          -0.733   1.581   1.262  0.00  0.00     0.009 C 
ATOM      4  C4  <0> d          -0.013   1.086   0.008  0.00  0.00     0.041 C 
ATOM      5  C5  <0> d          -0.755   1.594  -1.225  0.00  0.00    -0.026 A 
ATOM      6  C6  <0> d          -1.615   2.633  -1.129  0.00  0.00    -0.008 A 
ATOM      7  S1  <0> d          -2.237   2.876  -2.774  0.00  0.00    -0.073 SA
ATOM      8  C7  <0> d          -1.345   1.588  -3.586  0.00  0.00     0.117 A 
ATOM      9  C8  <0> d          -0.587   1.006  -2.544  0.00  0.00     0.075 A 
ATOM     10  C9  <0> d           0.263  -0.095  -2.889  0.00  0.00     0.263 A 
ATOM     11  O1  <0> d           0.955  -0.663  -2.062  0.00  0.00    -0.267 OA
ATOM     12  N1  <0> d           0.251  -0.466  -4.191  0.00  0.00    -0.290 N 
ATOM     13  C10 <0> d          -0.514   0.155  -5.132  0.00  0.00     0.173 A 
ATOM     14  N2  <0> d          -1.311   1.176  -4.847  0.00  0.00    -0.216 NA
ATOM     15  C22 <0> d          -1.965   3.411   0.102  0.00  0.00     0.051 C 
ENDROOT
BRANCH  13  16
ATOM     16  S2  <0> d          -0.442  -0.422  -6.795  0.00  0.00    -0.082 SA
BRANCH  16  17
ATOM     17  C11 <0> d          -1.610   0.719  -7.575  0.00  0.00     0.185 C 
BRANCH  17  18
ATOM     18  C12 <0> d          -1.714   0.405  -9.045  0.00  0.00     0.235 C 
ATOM     19  O2  <0> d          -1.062  -0.501  -9.519  0.00  0.00    -0.272 OA
ATOM     20  N3  <0> d          -2.531   1.131  -9.833  0.00  0.00    -0.279 N 
ATOM     21  C13 <0> d          -2.623   0.851 -11.148  0.00  0.00     0.323 C 
ATOM     22  H12 <0> d          -3.122   1.953  -9.403  0.00  0.00     0.173 HD
ATOM     23  O3  <0> d          -1.970  -0.057 -11.623  0.00  0.00    -0.247 OA
ATOM     24  N4  <0> d          -3.440   1.577 -11.937  0.00  0.00    -0.338 N 
ATOM     25  H13 <0> d          -4.032   2.399 -11.507  0.00  0.00     0.164 HD
BRANCH  24  26
ATOM     26  C14 <0> d          -3.541   1.272 -13.366  0.00  0.00     0.086 A 
ATOM     27  C16 <0> d          -4.830   1.675 -14.085  0.00  0.00     0.027 A 
ATOM     28  C15 <0> d          -3.535   2.450 -14.342  0.00  0.00     0.027 A 
ENDBRANCH  24  26
ENDBRANCH  17  18
ENDBRANCH  16  17
ENDBRANCH  13  16
BRANCH  12  29
ATOM     29  C17 <0> d           1.099  -1.585  -4.608  0.00  0.00     0.166 C 
BRANCH  29  30
ATOM     30  C18 <0> d           2.473  -1.056  -5.024  0.00  0.00     0.140 C 
ATOM     31  O4  <0> d           3.151  -0.514  -3.884  0.00  0.00    -0.384 OA
ATOM     32  C21 <0> d           4.356  -1.254  -3.633  0.00  0.00     0.168 C 
ATOM     33  C20 <0> d           4.739  -1.880  -4.997  0.00  0.00     0.029 C 
ATOM     34  C19 <0> d           3.335  -2.214  -5.572  0.00  0.00     0.035 C 
ENDBRANCH  29  30
ENDBRANCH  12  29
TORSDOF 6
