REMARK  6 active torsions:
REMARK  status: ('A' for Active; 'I' for Inactive)
REMARK    1  A    between atoms: C4_4  and  C7_7 
REMARK    2  A    between atoms: C7_7  and  C8_8 
REMARK    3  A    between atoms: C10_11  and  C21_26 
REMARK    4  A    between atoms: C16_19  and  O2_25 
REMARK    5  A    between atoms: C21_26  and  C22_27 
REMARK    6  A    between atoms: C25_30  and  O3_33 
ROOT
ATOM      1  C8  <0> d           4.164  -0.959   1.377  0.00  0.00     0.161 C 
ATOM      2  C9  <0> d           3.888  -2.140   1.979  0.00  0.00     0.164 A 
ATOM      3  N1  <0> d           3.187  -3.179   1.509  0.00  0.00    -0.227 NA
ATOM      4  C10 <0> d           3.128  -4.125   2.407  0.00  0.00     0.109 A 
ATOM      5  C11 <0> d           3.873  -3.662   3.592  0.00  0.00     0.274 A 
ATOM      6  O1  <0> d           4.035  -4.264   4.637  0.00  0.00    -0.266 OA
ATOM      7  N2  <0> d           4.331  -2.450   3.284  0.00  0.00    -0.288 N 
ATOM      8  C12 <0> d           5.147  -1.482   3.993  0.00  0.00     0.135 C 
ATOM      9  C13 <0> d           4.874  -1.318   5.497  0.00  0.00     0.067 C 
ATOM     10  C14 <0> d           5.190   0.147   5.727  0.00  0.00    -0.045 A 
ATOM     11  C15 <0> d           5.568   0.784   6.891  0.00  0.00     0.044 A 
ATOM     12  C16 <0> d           5.815   2.154   6.818  0.00  0.00     0.066 A 
ATOM     13  C17 <0> d           5.684   2.845   5.626  0.00  0.00     0.037 A 
ATOM     14  C18 <0> d           5.299   2.210   4.455  0.00  0.00     0.012 A 
ATOM     15  C19 <0> d           5.045   0.850   4.517  0.00  0.00    -0.019 A 
ATOM     16  C20 <0> d           4.599  -0.111   3.482  0.00  0.00     0.248 C 
ATOM     17  N3  <0> d           4.886   0.034   2.079  0.00  0.00    -0.034 N 
ATOM     18  H15 <0> d           5.874  -0.084   1.917  0.00  0.00     0.284 HD
ATOM     19  H24 <0> d           4.596   0.949   1.767  0.00  0.00     0.284 HD
ENDROOT
BRANCH   4  20
ATOM     20  C21 <0> d           2.424  -5.449   2.260  0.00  0.00     0.103 C 
BRANCH  20  21
ATOM     21  C22 <0> d           1.785  -5.530   0.897  0.00  0.00    -0.052 A 
ATOM     22  C27 <0> d           2.496  -6.050  -0.169  0.00  0.00     0.010 A 
ATOM     23  C26 <0> d           1.911  -6.130  -1.417  0.00  0.00     0.037 A 
ATOM     24  C25 <0> d           0.612  -5.678  -1.604  0.00  0.00     0.065 A 
ATOM     25  C24 <0> d          -0.097  -5.151  -0.534  0.00  0.00     0.037 A 
ATOM     26  C23 <0> d           0.491  -5.078   0.714  0.00  0.00     0.010 A 
BRANCH  24  27
ATOM     27  O3  <0> d           0.036  -5.751  -2.832  0.00  0.00    -0.361 OA
ATOM     28  H23 <0> d           0.177  -4.967  -3.381  0.00  0.00     0.217 HD
ENDBRANCH  24  27
ENDBRANCH  20  21
ENDBRANCH   4  20
BRANCH   1  29
ATOM     29  C7  <0> d           3.711  -0.707  -0.038  0.00  0.00     0.107 C 
BRANCH  29  30
ATOM     30  C4  <0> d           2.396   0.029  -0.020  0.00  0.00    -0.052 A 
ATOM     31  C3  <0> d           2.377   1.411  -0.013  0.00  0.00     0.007 A 
ATOM     32  C2  <0> d           1.171   2.086   0.002  0.00  0.00     0.001 A 
ATOM     33  C1  <0> d          -0.017   1.378   0.010  0.00  0.00     0.000 A 
ATOM     34  C6  <0> d           0.002  -0.004   0.002  0.00  0.00     0.001 A 
ATOM     35  C5  <0> d           1.208  -0.679  -0.012  0.00  0.00     0.007 A 
ENDBRANCH  29  30
ENDBRANCH   1  29
BRANCH  12  36
ATOM     36  O2  <0> d           6.190   2.824   7.939  0.00  0.00    -0.361 OA
ATOM     37  H16 <0> d           7.146   2.855   8.077  0.00  0.00     0.217 HD
ENDBRANCH  12  36
TORSDOF 6
