REMARK  4 active torsions:
REMARK  status: ('A' for Active; 'I' for Inactive)
REMARK    1  A    between atoms: C2_2  and  C4_4 
REMARK    2  A    between atoms: N2_10  and  C8_11 
REMARK    3  A    between atoms: C8_11  and  C9_12 
REMARK    4  A    between atoms: C11_15  and  C12_17 
ROOT
ATOM      1  C8  <0> d          -0.668  -2.443   1.497  0.00  0.00     0.333 C 
ENDROOT
BRANCH   1   2
ATOM      2  N2  <0> d          -1.455  -1.947   0.360  0.00  0.00     0.109 N 
ATOM      3  C4  <0> d          -1.230  -0.510   0.152  0.00  0.00     0.317 C 
ATOM      4  C5  <0> d          -2.158   0.004  -0.913  0.00  0.00     0.251 C 
ATOM      5  O1  <0> d          -1.907   1.068  -1.438  0.00  0.00    -0.271 OA
ATOM      6  N1  <0> d          -3.248  -0.663  -1.305  0.00  0.00    -0.358 N 
ATOM      7  C6  <0> d          -3.619  -1.967  -0.763  0.00  0.00     0.153 C 
ATOM      8  H9  <0> d          -3.818  -0.263  -1.980  0.00  0.00     0.162 HD
ATOM      9  C7  <0> d          -2.889  -2.213   0.558  0.00  0.00     0.293 C 
BRANCH   3  10
ATOM     10  C2  <0> d           0.218  -0.281  -0.284  0.00  0.00     0.020 C 
ATOM     11  C1  <0> d           0.441  -0.903  -1.664  0.00  0.00     0.012 C 
ATOM     12  C3  <0> d           0.500   1.222  -0.350  0.00  0.00     0.012 C 
ENDBRANCH   3  10
ENDBRANCH   1   2
BRANCH   1  13
ATOM     13  C9  <0> d          -0.610  -3.948   1.448  0.00  0.00     0.070 A 
ATOM     14  N3  <0> d          -1.581  -4.662   1.972  0.00  0.00    -0.243 NA
ATOM     15  C11 <0> d          -1.557  -5.987   1.938  0.00  0.00     0.111 A 
ATOM     16  S1  <0> d          -0.008  -6.284   1.095  0.00  0.00    -0.079 SA
ATOM     17  C10 <0> d           0.449  -4.569   0.867  0.00  0.00     0.081 A 
BRANCH  15  18
ATOM     18  C12 <0> d          -2.542  -6.958   2.461  0.00  0.00     0.036 A 
ATOM     19  C14 <0> d          -2.449  -8.320   2.395  0.00  0.00     0.127 A 
ATOM     20  N5  <0> d          -3.545  -8.832   2.987  0.00  0.00    -0.285 N 
ATOM     21  N4  <0> d          -4.346  -7.770   3.424  0.00  0.00    -0.185 NA
ATOM     22  C15 <0> d          -3.850 -10.257   3.142  0.00  0.00     0.179 C 
ATOM     23  C13 <0> d          -3.754  -6.648   3.113  0.00  0.00     0.154 A 
ENDBRANCH  15  18
ENDBRANCH   1  13
TORSDOF 4
