REMARK  6 active torsions:
REMARK  status: ('A' for Active; 'I' for Inactive)
REMARK    1  A    between atoms: N1_10  and  C11_12 
REMARK    2  A    between atoms: C11_12  and  C12_13 
REMARK    3  A    between atoms: C13_14  and  C19_23 
REMARK    4  A    between atoms: C16_19  and  N4_22 
REMARK    5  A    between atoms: C19_23  and  C20_24 
REMARK    6  A    between atoms: C20_24  and  O2_26 
ROOT
ATOM      1  C12 <0> d           1.356  -2.430  -3.408  0.00  0.00     0.069 A 
ATOM      2  C13 <0> d           0.940  -2.531  -4.690  0.00  0.00     0.071 A 
ATOM      3  N2  <0> d           1.908  -2.078  -5.489  0.00  0.00    -0.233 NA
ATOM      4  C14 <0> d           2.937  -1.689  -4.748  0.00  0.00     0.134 A 
ATOM      5  N3  <0> d           2.614  -1.893  -3.433  0.00  0.00    -0.305 N 
ATOM      6  C15 <0> d           3.500  -1.570  -2.443  0.00  0.00     0.127 A 
ATOM      7  C16 <0> d           4.709  -1.040  -2.748  0.00  0.00     0.042 A 
ATOM      8  C17 <0> d           5.065  -0.816  -4.094  0.00  0.00     0.034 A 
ATOM      9  C18 <0> d           4.192  -1.142  -5.083  0.00  0.00     0.053 A 
ENDROOT
BRANCH   1  10
ATOM     10  C11 <0> d           0.577  -2.827  -2.181  0.00  0.00     0.294 C 
BRANCH  10  11
ATOM     11  N1  <0> d          -0.211  -1.692  -1.717  0.00  0.00    -0.061 N 
ATOM     12  C4  <0> d          -1.100  -2.018  -0.584  0.00  0.00     0.190 C 
ATOM     13  C3  <0> d          -1.426  -0.615   0.003  0.00  0.00     0.044 C 
ATOM     14  C5  <0> d          -0.396  -2.818   0.494  0.00  0.00     0.042 C 
ATOM     15  C2  <0> d           0.002  -0.004   0.002  0.00  0.00    -0.017 C 
ATOM     16  C1  <0> d          -0.019   1.532   0.011  0.00  0.00     0.017 C 
ATOM     17  C7  <0> d           0.727  -0.591   1.214  0.00  0.00     0.019 C 
ATOM     18  C10 <0> d           0.649  -0.577  -1.280  0.00  0.00     0.244 C 
ATOM     19  C6  <0> d           0.654  -2.101   1.313  0.00  0.00    -0.045 C 
ATOM     20  C8  <0> d           2.041  -2.692   0.990  0.00  0.00     0.015 C 
ATOM     21  C9  <0> d           0.383  -2.444   2.801  0.00  0.00     0.015 C 
ATOM     22  H31 <0> d          -0.788  -1.358  -2.491  0.00  0.00     0.280 HD
ENDBRANCH  10  11
ENDBRANCH   1  10
BRANCH   2  23
ATOM     23  C19 <0> d          -0.395  -3.066  -5.142  0.00  0.00     0.172 C 
BRANCH  23  24
ATOM     24  C20 <0> d          -1.390  -1.936  -5.217  0.00  0.00     0.264 C 
ATOM     25  O1  <0> d          -1.050  -0.812  -4.933  0.00  0.00    -0.265 OA
BRANCH  24  26
ATOM     26  O2  <0> d          -2.653  -2.179  -5.599  0.00  0.00    -0.326 OA
ATOM     27  C21 <0> d          -3.542  -1.061  -5.648  0.00  0.00     0.213 C 
ENDBRANCH  24  26
ENDBRANCH  23  24
ENDBRANCH   2  23
BRANCH   7  28
ATOM     28  N4  <0> d           5.608  -0.713  -1.724  0.00  0.00    -0.398 N 
ATOM     29  H24 <0> d           5.364  -0.866  -0.798  0.00  0.00     0.156 HD
ATOM     30  H25 <0> d           6.474  -0.333  -1.941  0.00  0.00     0.156 HD
ENDBRANCH   7  28
TORSDOF 6
