REMARK  4 active torsions:
REMARK  status: ('A' for Active; 'I' for Inactive)
REMARK    1  A    between atoms: N1_2  and  C2_3 
REMARK       I    between atoms: N1_2  and  C6_10 
REMARK    2  A    between atoms: C6_10  and  C7_12 
REMARK    3  A    between atoms: C7_12  and  N2_13 
REMARK    4  A    between atoms: C9_16  and  N5_18 
ROOT
ATOM      1  C1  <0> d          -0.018   1.461   0.010  0.00  0.00     0.153 C 
ATOM      2  N1  <0> d           0.002  -0.004   0.002  0.00  0.00    -0.349 N 
ATOM      3  C6  <0> d           0.000  -0.672  -1.169  0.00  0.00     0.239 C 
ATOM      4  O3  <0> d           0.017  -1.884  -1.175  0.00  0.00    -0.271 OA
ENDROOT
BRANCH   3   5
ATOM      5  C7  <0> d          -0.023   0.089  -2.470  0.00  0.00     0.255 C 
BRANCH   5   6
ATOM      6  N2  <0> d          -0.020  -0.857  -3.588  0.00  0.00    -0.238 N 
ATOM      7  N4  <0> d           0.913  -1.880  -3.822  0.00  0.00     0.022 NA
ATOM      8  C9  <0> d           0.541  -2.487  -4.925  0.00  0.00     0.738 A 
ATOM      9  N3  <0> d          -0.562  -1.894  -5.391  0.00  0.00    -0.055 NA
ATOM     10  C8  <0> d          -0.908  -0.913  -4.595  0.00  0.00     0.249 A 
BRANCH   8  11
ATOM     11  N5  <0> d           1.194  -3.570  -5.516  0.00  0.00    -0.230 N 
ATOM     12  H14 <0> d           0.850  -3.954  -6.338  0.00  0.00     0.174 HD
ATOM     13  H15 <0> d           1.992  -3.938  -5.106  0.00  0.00     0.174 HD
ENDBRANCH   8  11
ENDBRANCH   5   6
ENDBRANCH   3   5
BRANCH   2  14
ATOM     14  C2  <0> d           0.024  -0.743   1.267  0.00  0.00     0.101 C 
ATOM     15  C5  <0> d           1.295  -0.360   2.077  0.00  0.00     0.165 C 
ATOM     16  S1  <0> d           0.791  -0.893   3.767  0.00  0.00     0.146 S 
ATOM     17  C4  <0> d          -1.036  -0.889   3.555  0.00  0.00     0.142 C 
ATOM     18  O1  <0> d           1.229  -2.228   3.981  0.00  0.00    -0.228 OA
ATOM     19  O2  <0> d           1.151   0.119   4.698  0.00  0.00    -0.228 OA
ATOM     20  C3  <0> d          -1.209  -0.372   2.107  0.00  0.00     0.041 C 
ENDBRANCH   2  14
TORSDOF 4
