REMARK  4 active torsions:
REMARK  status: ('A' for Active; 'I' for Inactive)
REMARK    1  A    between atoms: C2_2  and  C3_3 
REMARK    2  A    between atoms: C2_2  and  N1_10 
REMARK    3  A    between atoms: N1_10  and  C9_11 
REMARK    4  A    between atoms: C12_14  and  N3_21 
ROOT
ATOM      1  C9  <0> d          -0.019  -0.613  -2.402  0.00  0.00     0.040 A 
ATOM      2  C10 <0> d          -1.361  -0.299  -2.456  0.00  0.00     0.032 A 
ATOM      3  C11 <0> d          -2.078  -0.430  -3.641  0.00  0.00     0.032 A 
ATOM      4  C12 <0> d          -1.467  -0.877  -4.793  0.00  0.00     0.038 A 
ATOM      5  C13 <0> d          -0.097  -1.206  -4.771  0.00  0.00     0.018 A 
ATOM      6  C14 <0> d           0.634  -1.066  -3.562  0.00  0.00     0.005 A 
ATOM      7  C15 <0> d           2.001  -1.397  -3.569  0.00  0.00     0.031 A 
ATOM      8  C16 <0> d           2.563  -1.829  -4.732  0.00  0.00     0.088 A 
ATOM      9  N2  <0> d           1.857  -1.945  -5.849  0.00  0.00    -0.374 N 
ATOM     10  C17 <0> d           0.576  -1.666  -5.912  0.00  0.00     0.102 A 
ATOM     11  H17 <0> d           2.304  -2.257  -6.651  0.00  0.00     0.164 HD
ENDROOT
BRANCH   1  12
ATOM     12  N1  <0> d           0.688  -0.476  -1.203  0.00  0.00    -0.381 N 
ATOM     13  H9  <0> d           1.632  -0.695  -1.170  0.00  0.00     0.160 HD
BRANCH  12  14
ATOM     14  C2  <0> d           0.002  -0.004   0.002  0.00  0.00     0.114 C 
ATOM     15  C1  <0> d          -0.019   1.526   0.010  0.00  0.00     0.037 C 
BRANCH  14  16
ATOM     16  C3  <0> d           0.731  -0.503   1.223  0.00  0.00     0.003 A 
ATOM     17  C8  <0> d           0.054  -0.651   2.421  0.00  0.00     0.124 A 
ATOM     18  C7  <0> d           0.724  -1.115   3.541  0.00  0.00     0.043 A 
ATOM     19  F1  <0> d          -1.261  -0.349   2.497  0.00  0.00    -0.205 F 
ATOM     20  C6  <0> d           2.069  -1.420   3.464  0.00  0.00     0.003 A 
ATOM     21  C5  <0> d           2.746  -1.266   2.268  0.00  0.00     0.001 A 
ATOM     22  C4  <0> d           2.077  -0.808   1.148  0.00  0.00     0.012 A 
ENDBRANCH  14  16
ENDBRANCH  12  14
ENDBRANCH   1  12
BRANCH   4  23
ATOM     23  N3  <0> d          -2.200  -1.004  -5.974  0.00  0.00    -0.398 N 
ATOM     24  H15 <0> d          -3.143  -0.777  -5.987  0.00  0.00     0.156 HD
ATOM     25  H16 <0> d          -1.767  -1.319  -6.783  0.00  0.00     0.156 HD
ENDBRANCH   4  23
TORSDOF 4
