REMARK  8 active torsions:
REMARK  status: ('A' for Active; 'I' for Inactive)
REMARK    1  A    between atoms: C5_6  and  S1_8 
REMARK    2  A    between atoms: S1_8  and  C6_9 
REMARK    3  A    between atoms: C6_9  and  C7_10 
REMARK       I    between atoms: C7_10  and  N3_12 
REMARK    4  A    between atoms: N3_12  and  N4_13 
REMARK       I    between atoms: N4_13  and  C8_14 
REMARK       I    between atoms: C8_14  and  N5_16 
REMARK    5  A    between atoms: N5_16  and  C9_17 
REMARK    6  A    between atoms: C9_17  and  C10_18 
REMARK    7  A    between atoms: C10_18  and  C11_19 
REMARK    8  A    between atoms: C11_19  and  N6_20 
ROOT
ATOM      1  N4  <0> d           0.064  -1.915   7.668  0.00  0.00    -0.249 N 
ATOM      2  C8  <0> d           0.058  -1.117   8.755  0.00  0.00     0.334 C 
ATOM      3  O2  <0> d           0.070  -1.607   9.868  0.00  0.00    -0.246 OA
ATOM      4  N5  <0> d           0.039   0.222   8.607  0.00  0.00    -0.342 N 
ATOM      5  H8  <0> d           0.077  -2.879   7.774  0.00  0.00     0.192 HD
ATOM      6  H9  <0> d           0.030   0.612   7.720  0.00  0.00     0.164 HD
ENDROOT
BRANCH   1   7
ATOM      7  N3  <0> d           0.050  -1.351   6.386  0.00  0.00    -0.265 N 
ATOM      8  C7  <0> d           0.056  -2.148   5.299  0.00  0.00     0.245 C 
ATOM      9  O1  <0> d           0.073  -3.354   5.431  0.00  0.00    -0.271 OA
ATOM     10  H7  <0> d           0.036  -0.387   6.280  0.00  0.00     0.190 HD
BRANCH   8  11
ATOM     11  C6  <0> d           0.041  -1.542   3.919  0.00  0.00     0.186 C 
BRANCH  11  12
ATOM     12  S1  <0> d           0.053  -2.864   2.678  0.00  0.00    -0.081 SA
BRANCH  12  13
ATOM     13  C5  <0> d           0.035  -2.005   1.140  0.00  0.00     0.189 A 
ATOM     14  N1  <0> d           0.039  -2.699   0.010  0.00  0.00    -0.228 NA
ATOM     15  C4  <0> d           0.025  -2.084  -1.161  0.00  0.00     0.035 A 
ATOM     16  C3  <0> d           0.006  -0.699  -1.198  0.00  0.00     0.053 A 
ATOM     17  C15 <0> d           0.029  -2.881  -2.440  0.00  0.00     0.070 C 
ATOM     18  C2  <0> d           0.002  -0.004   0.002  0.00  0.00     0.035 A 
ATOM     19  C1  <0> d          -0.018   1.503   0.010  0.00  0.00     0.070 C 
ATOM     20  N2  <0> d           0.022  -0.679   1.139  0.00  0.00    -0.228 NA
ENDBRANCH  12  13
ENDBRANCH  11  12
ENDBRANCH   8  11
ENDBRANCH   1   7
BRANCH   4  21
ATOM     21  C9  <0> d           0.033   1.089   9.789  0.00  0.00     0.126 C 
BRANCH  21  22
ATOM     22  C10 <0> d           0.011   2.553   9.347  0.00  0.00     0.040 C 
BRANCH  22  23
ATOM     23  C11 <0> d           0.004   3.458  10.580  0.00  0.00     0.130 C 
BRANCH  23  24
ATOM     24  N6  <0> d          -0.017   4.861  10.157  0.00  0.00    -0.352 N 
ATOM     25  C14 <0> d          -1.115   5.613   9.930  0.00  0.00     0.182 A 
ATOM     26  N7  <0> d          -0.736   6.809   9.571  0.00  0.00    -0.361 N 
ATOM     27  C13 <0> d           0.604   6.860   9.548  0.00  0.00     0.106 A 
ATOM     28  H22 <0> d          -1.330   7.544   9.352  0.00  0.00     0.166 HD
ATOM     29  C12 <0> d           1.073   5.652   9.911  0.00  0.00     0.108 A 
ENDBRANCH  23  24
ENDBRANCH  22  23
ENDBRANCH  21  22
ENDBRANCH   4  21
TORSDOF 8
