REMARK  5 active torsions:
REMARK  status: ('A' for Active; 'I' for Inactive)
REMARK    1  A    between atoms: C9_10  and  C16_19 
REMARK    2  A    between atoms: C10_11  and  N2_12 
REMARK    3  A    between atoms: N2_12  and  C11_13 
REMARK    4  A    between atoms: C11_13  and  C12_14 
REMARK       I    between atoms: C16_19  and  N3_21 
REMARK    5  A    between atoms: N3_21  and  C17_22 
ROOT
ATOM      1  C1  <0> d         -10.849  -3.959  -6.401  0.00  0.00     0.049 C 
ATOM      2  C2  <0> d          -9.684  -3.264  -5.743  0.00  0.00    -0.046 A 
ATOM      3  C3  <0> d          -8.380  -3.490  -6.209  0.00  0.00     0.012 A 
ATOM      4  C4  <0> d          -7.333  -2.860  -5.610  0.00  0.00     0.052 A 
ATOM      5  C5  <0> d          -7.570  -1.987  -4.526  0.00  0.00     0.139 A 
ATOM      6  N1  <0> d          -6.532  -1.384  -3.959  0.00  0.00    -0.212 NA
ATOM      7  C6  <0> d          -6.672  -0.543  -2.929  0.00  0.00     0.147 A 
ATOM      8  C7  <0> d          -7.976  -0.286  -2.425  0.00  0.00     0.080 A 
ATOM      9  C8  <0> d          -8.145   0.586  -1.353  0.00  0.00     0.042 A 
ATOM     10  C9  <0> d          -7.005   1.178  -0.804  0.00  0.00     0.076 A 
ATOM     11  C10 <0> d          -5.740   0.882  -1.357  0.00  0.00     0.118 A 
ATOM     12  C22 <0> d          -9.111  -0.957  -3.060  0.00  0.00     0.267 A 
ATOM     13  O3  <0> d         -10.249  -0.772  -2.669  0.00  0.00    -0.267 OA
ATOM     14  N4  <0> d          -8.855  -1.789  -4.097  0.00  0.00    -0.272 N 
ATOM     15  C23 <0> d          -9.897  -2.426  -4.706  0.00  0.00     0.108 A 
ATOM     16  N5  <0> d          -5.541   0.036  -2.403  0.00  0.00    -0.326 N 
ATOM     17  H28 <0> d          -4.604  -0.159  -2.777  0.00  0.00     0.169 HD
ENDROOT
BRANCH  10  18
ATOM     18  C16 <0> d          -7.122   2.104   0.334  0.00  0.00     0.255 C 
ATOM     19  O2  <0> d          -6.140   2.695   0.741  0.00  0.00    -0.268 OA
ATOM     20  N3  <0> d          -8.317   2.297   0.927  0.00  0.00    -0.352 N 
ATOM     21  H17 <0> d          -9.101   1.825   0.603  0.00  0.00     0.163 HD
BRANCH  20  22
ATOM     22  C17 <0> d          -8.433   3.218   2.059  0.00  0.00     0.084 C 
ATOM     23  C21 <0> d          -9.874   3.750   2.161  0.00  0.00     0.025 C 
ATOM     24  C20 <0> d         -10.410   3.309   3.539  0.00  0.00     0.002 C 
ATOM     25  C19 <0> d          -9.135   3.097   4.393  0.00  0.00     0.002 C 
ATOM     26  C18 <0> d          -8.144   2.473   3.379  0.00  0.00     0.025 C 
ENDBRANCH  20  22
ENDBRANCH  10  18
BRANCH  11  27
ATOM     27  N2  <0> d          -4.613   1.469  -0.820  0.00  0.00    -0.373 N 
ATOM     28  H8  <0> d          -4.701   2.139  -0.124  0.00  0.00     0.161 HD
BRANCH  27  29
ATOM     29  C11 <0> d          -3.285   1.080  -1.300  0.00  0.00     0.153 C 
BRANCH  29  30
ATOM     30  C12 <0> d          -2.217   1.874  -0.545  0.00  0.00     0.139 C 
ATOM     31  O1  <0> d          -2.199   1.479   0.837  0.00  0.00    -0.384 OA
ATOM     32  C15 <0> d          -0.827   1.562   1.281  0.00  0.00     0.168 C 
ATOM     33  C14 <0> d          -0.024   1.012   0.075  0.00  0.00     0.029 C 
ATOM     34  C13 <0> d          -0.825   1.565  -1.128  0.00  0.00     0.035 C 
ENDBRANCH  29  30
ENDBRANCH  27  29
ENDBRANCH  11  27
TORSDOF 5
