REMARK  1 active torsions:
REMARK  status: ('A' for Active; 'I' for Inactive)
REMARK    1  A    between atoms: C2_2  and  C7_8 
ROOT
ATOM      1  C7  <0> d           0.704  -0.492  -1.239  0.00  0.00     0.113 A 
ATOM      2  N2  <0> d           0.173  -0.476  -2.492  0.00  0.00    -0.342 N 
ATOM      3  H1  <0> d          -0.708  -0.154  -2.740  0.00  0.00     0.167 HD
ATOM      4  C8  <0> d           1.123  -1.002  -3.348  0.00  0.00     0.065 A 
ATOM      5  C9  <0> d           1.162  -1.238  -4.716  0.00  0.00     0.071 A 
ATOM      6  C10 <0> d           2.293  -1.791  -5.282  0.00  0.00     0.104 A 
ATOM      7  C11 <0> d           3.393  -2.115  -4.491  0.00  0.00     0.104 A 
ATOM      8  C12 <0> d           3.368  -1.888  -3.131  0.00  0.00     0.073 A 
ATOM      9  C13 <0> d           2.228  -1.327  -2.545  0.00  0.00     0.088 A 
ATOM     10  N3  <0> d           1.907  -0.984  -1.270  0.00  0.00    -0.232 NA
ATOM     11  O1  <0> d           4.503  -2.660  -5.072  0.00  0.00    -0.348 OA
ATOM     12  C14 <0> d           4.351  -3.983  -5.590  0.00  0.00     0.178 C 
ATOM     13  C15 <0> d           3.772  -3.949  -6.995  0.00  0.00     0.053 C 
ATOM     14  C16 <0> d           2.356  -3.395  -7.025  0.00  0.00     0.178 C 
ATOM     15  O2  <0> d           2.340  -2.023  -6.627  0.00  0.00    -0.348 OA
ENDROOT
BRANCH   1  16
ATOM     16  C2  <0> d           0.002  -0.004   0.002  0.00  0.00     0.020 C 
ATOM     17  C1  <0> d          -0.019   1.526   0.010  0.00  0.00     0.023 C 
ATOM     18  C6  <0> d           0.743  -0.513   1.242  0.00  0.00     0.044 C 
ATOM     19  C5  <0> d          -0.018  -0.080   2.497  0.00  0.00     0.233 C 
ATOM     20  N1  <0> d          -1.374  -0.641   2.470  0.00  0.00    -0.075 N 
ATOM     21  C4  <0> d          -2.114  -0.102   1.323  0.00  0.00     0.233 C 
ATOM     22  H9  <0> d          -1.855  -0.398   3.324  0.00  0.00     0.277 HD
ATOM     23  H22 <0> d          -1.319  -1.646   2.392  0.00  0.00     0.277 HD
ATOM     24  C3  <0> d          -1.434  -0.536   0.023  0.00  0.00     0.044 C 
ENDBRANCH   1  16
TORSDOF 1
