REMARK  8 active torsions:
REMARK  status: ('A' for Active; 'I' for Inactive)
REMARK    1  A    between atoms: C5_5  and  S1_12 
REMARK    2  A    between atoms: S1_12  and  N2_15 
REMARK    3  A    between atoms: N2_15  and  C10_16 
REMARK    4  A    between atoms: C10_16  and  C11_17 
REMARK    5  A    between atoms: C11_17  and  C12_18 
REMARK    6  A    between atoms: C11_17  and  S3_23 
REMARK    7  A    between atoms: S3_23  and  C16_26 
REMARK    8  A    between atoms: C19_29  and  C22_32 
ROOT
ATOM      1  C10 <0> d          -5.115  -3.556  -2.150  0.00  0.00     0.158 C 
ENDROOT
BRANCH   1   2
ATOM      2  N2  <0> d          -4.987  -2.172  -2.615  0.00  0.00    -0.314 N 
ATOM      3  H10 <0> d          -4.854  -1.988  -3.558  0.00  0.00     0.172 HD
BRANCH   2   4
ATOM      4  S1  <0> d          -5.072  -0.923  -1.531  0.00  0.00     0.258 S 
ATOM      5  O2  <0> d          -6.224  -1.155  -0.733  0.00  0.00    -0.201 OA
ATOM      6  O3  <0> d          -4.889   0.273  -2.276  0.00  0.00    -0.201 OA
BRANCH   4   7
ATOM      7  C5  <0> d          -3.680  -1.068  -0.460  0.00  0.00     0.080 A 
ATOM      8  C4  <0> d          -2.490  -0.438  -0.780  0.00  0.00     0.035 A 
ATOM      9  C3  <0> d          -1.405  -0.553   0.059  0.00  0.00    -0.017 A 
ATOM     10  C2  <0> d           0.002  -0.004   0.002  0.00  0.00     0.109 A 
ATOM     11  C8  <0> d          -1.487  -1.296   1.230  0.00  0.00     0.042 A 
ATOM     12  C1  <0> d          -0.019   1.526   0.010  0.00  0.00     0.025 C 
ATOM     13  C9  <0> d           0.658  -0.533   1.260  0.00  0.00     0.230 A 
ATOM     14  N1  <0> d          -0.268  -1.264   1.909  0.00  0.00    -0.326 N 
ATOM     15  O1  <0> d           1.801  -0.334   1.614  0.00  0.00    -0.272 OA
ATOM     16  H9  <0> d          -0.106  -1.717   2.750  0.00  0.00     0.169 HD
ATOM     17  C7  <0> d          -2.689  -1.927   1.546  0.00  0.00     0.031 A 
ATOM     18  C6  <0> d          -3.774  -1.810   0.703  0.00  0.00     0.027 A 
ENDBRANCH   4   7
ENDBRANCH   2   4
ENDBRANCH   1   2
BRANCH   1  19
ATOM     19  C11 <0> d          -5.377  -4.474  -3.345  0.00  0.00     0.171 C 
BRANCH  19  20
ATOM     20  C12 <0> d          -5.509  -5.897  -2.866  0.00  0.00     0.003 A 
ATOM     21  S2  <0> d          -6.684  -6.592  -1.717  0.00  0.00    -0.105 SA
ATOM     22  C15 <0> d          -6.105  -8.281  -1.755  0.00  0.00     0.050 A 
ATOM     23  C14 <0> d          -5.067  -8.201  -2.623  0.00  0.00     0.008 A 
ATOM     24  C13 <0> d          -4.761  -6.979  -3.192  0.00  0.00     0.016 A 
ENDBRANCH  19  20
BRANCH  19  25
ATOM     25  S3  <0> d          -6.912  -3.969  -4.170  0.00  0.00     0.185 S 
ATOM     26  O4  <0> d          -8.015  -4.118  -3.285  0.00  0.00    -0.222 OA
ATOM     27  O5  <0> d          -6.710  -2.754  -4.878  0.00  0.00    -0.222 OA
BRANCH  25  28
ATOM     28  C16 <0> d          -7.173  -5.182  -5.421  0.00  0.00     0.060 A 
ATOM     29  C21 <0> d          -7.908  -6.318  -5.140  0.00  0.00     0.024 A 
ATOM     30  C20 <0> d          -8.117  -7.267  -6.123  0.00  0.00     0.009 A 
ATOM     31  C19 <0> d          -7.583  -7.084  -7.385  0.00  0.00    -0.055 A 
ATOM     32  C18 <0> d          -6.844  -5.950  -7.665  0.00  0.00     0.009 A 
ATOM     33  C17 <0> d          -6.639  -4.999  -6.683  0.00  0.00     0.024 A 
BRANCH  31  34
ATOM     34  C22 <0> d          -7.807  -8.121  -8.456  0.00  0.00     0.010 C 
ATOM     35  C23 <0> d          -7.224  -9.460  -7.999  0.00  0.00     0.015 C 
ATOM     36  C24 <0> d          -9.308  -8.277  -8.708  0.00  0.00     0.015 C 
ENDBRANCH  31  34
ENDBRANCH  25  28
ENDBRANCH  19  25
ENDBRANCH   1  19
TORSDOF 8
