REMARK  3 active torsions:
REMARK  status: ('A' for Active; 'I' for Inactive)
REMARK    1  A    between atoms: C5_6  and  O1_8 
REMARK    2  A    between atoms: O1_8  and  C6_9 
REMARK    3  A    between atoms: C12_15  and  O2_19 
ROOT
ATOM      1  C6  <0> d           0.079  -2.011   3.515  0.00  0.00     0.080 A 
ATOM      2  C7  <0> d           0.017  -0.614   3.539  0.00  0.00     0.038 A 
ATOM      3  C8  <0> d           0.045   0.066   4.716  0.00  0.00     0.015 A 
ATOM      4  C9  <0> d           0.138  -0.640   5.928  0.00  0.00    -0.026 A 
ATOM      5  C10 <0> d           0.169   0.034   7.162  0.00  0.00     0.015 A 
ATOM      6  C11 <0> d           0.259  -0.678   8.317  0.00  0.00     0.037 A 
ATOM      7  C12 <0> d           0.322  -2.075   8.298  0.00  0.00     0.066 A 
ATOM      8  C13 <0> d           0.294  -2.761   7.118  0.00  0.00     0.049 A 
ATOM      9  C14 <0> d           0.201  -2.056   5.906  0.00  0.00    -0.021 A 
ATOM     10  C15 <0> d           0.164  -2.729   4.674  0.00  0.00     0.049 A 
ENDROOT
BRANCH   1  11
ATOM     11  O1  <0> d           0.048  -2.663   2.323  0.00  0.00    -0.277 OA
BRANCH  11  12
ATOM     12  C5  <0> d           1.181  -2.683   1.579  0.00  0.00     0.274 A 
ATOM     13  N1  <0> d           1.207  -3.391   0.462  0.00  0.00    -0.212 NA
ATOM     14  C4  <0> d           2.296  -3.431  -0.288  0.00  0.00     0.037 A 
ATOM     15  C3  <0> d           3.418  -2.720   0.111  0.00  0.00     0.053 A 
ATOM     16  C16 <0> d           2.318  -4.240  -1.560  0.00  0.00     0.070 C 
ATOM     17  C2  <0> d           3.355  -1.990   1.286  0.00  0.00     0.037 A 
ATOM     18  C1  <0> d           4.549  -1.201   1.760  0.00  0.00     0.070 C 
ATOM     19  N2  <0> d           2.235  -1.997   1.991  0.00  0.00    -0.212 NA
ENDBRANCH  11  12
ENDBRANCH   1  11
BRANCH   7  20
ATOM     20  O2  <0> d           0.412  -2.758   9.469  0.00  0.00    -0.361 OA
ATOM     21  H11 <0> d          -0.444  -2.996   9.852  0.00  0.00     0.217 HD
ENDBRANCH   7  20
TORSDOF 3
