REMARK  4 active torsions:
REMARK  status: ('A' for Active; 'I' for Inactive)
REMARK    1  A    between atoms: C2_2  and  N1_3 
REMARK    2  A    between atoms: N1_3  and  C3_4 
REMARK    3  A    between atoms: C3_4  and  C4_5 
REMARK    4  A    between atoms: C3_4  and  C8_11 
ROOT
ATOM      1  C8  <0> d           1.352  -2.461   2.463  0.00  0.00    -0.002 A 
ATOM      2  C9  <0> d           2.147  -1.620   3.218  0.00  0.00     0.043 A 
ATOM      3  C10 <0> d           2.717  -2.081   4.394  0.00  0.00     0.064 A 
ATOM      4  C11 <0> d           2.485  -3.393   4.812  0.00  0.00     0.064 A 
ATOM      5  C12 <0> d           1.686  -4.230   4.049  0.00  0.00     0.051 A 
ATOM      6  C13 <0> d           1.117  -3.760   2.880  0.00  0.00     0.022 A 
ATOM      7 Br2  <0> d           0.020  -4.898   1.843  0.00  0.00    -0.050 Br
ATOM      8  N2  <0> d           3.178  -3.563   6.009  0.00  0.00    -0.306 N 
ATOM      9  H2  <0> d           3.206  -4.375   6.538  0.00  0.00     0.170 HD
ATOM     10  C14 <0> d           3.802  -2.407   6.305  0.00  0.00     0.325 A 
ATOM     11  O2  <0> d           4.496  -2.217   7.287  0.00  0.00    -0.247 OA
ATOM     12  N3  <0> d           3.544  -1.494   5.350  0.00  0.00    -0.306 N 
ATOM     13  H3  <0> d           3.876  -0.583   5.331  0.00  0.00     0.170 HD
ENDROOT
BRANCH   1  14
ATOM     14  C3  <0> d           0.733  -1.960   1.184  0.00  0.00     0.277 C 
BRANCH  14  15
ATOM     15  N1  <0> d           0.713  -0.491   1.192  0.00  0.00    -0.061 N 
ATOM     16  H9  <0> d           1.659  -0.141   1.185  0.00  0.00     0.278 HD
ATOM     17  H14 <0> d           0.240  -0.165   2.022  0.00  0.00     0.278 HD
BRANCH  15  18
ATOM     18  C2  <0> d           0.002  -0.004   0.002  0.00  0.00     0.229 C 
ATOM     19  C1  <0> d          -0.019   1.526   0.010  0.00  0.00     0.034 C 
ENDBRANCH  15  18
ENDBRANCH  14  15
BRANCH  14  20
ATOM     20  C4  <0> d           1.543  -2.445   0.010  0.00  0.00     0.089 A 
ATOM     21  O1  <0> d           2.690  -1.901  -0.431  0.00  0.00    -0.305 OA
ATOM     22  C7  <0> d           3.135  -2.594  -1.493  0.00  0.00     0.122 A 
ATOM     23  C6  <0> d           2.263  -3.588  -1.746  0.00  0.00     0.048 A 
ATOM     24 Br1  <0> d           4.712  -2.229  -2.469  0.00  0.00    -0.023 Br
ATOM     25  C5  <0> d           1.238  -3.491  -0.778  0.00  0.00     0.038 A 
ENDBRANCH  14  20
ENDBRANCH   1  14
TORSDOF 4
