REMARK  6 active torsions:
REMARK  status: ('A' for Active; 'I' for Inactive)
REMARK    1  A    between atoms: C5_6  and  N3_8 
REMARK    2  A    between atoms: N3_8  and  S1_9 
REMARK    3  A    between atoms: S1_9  and  C6_12 
REMARK    4  A    between atoms: C9_15  and  N4_18 
REMARK    5  A    between atoms: N4_18  and  C12_19 
REMARK       I    between atoms: N5_21  and  C13_22 
REMARK    6  A    between atoms: C13_22  and  C14_24 
ROOT
ATOM      1  C6  <0> d           1.180  -0.681  -0.032  0.00  0.00     0.080 A 
ATOM      2  C7  <0> d           0.011   0.001   0.253  0.00  0.00     0.027 A 
ATOM      3  C8  <0> d           0.002   1.382   0.268  0.00  0.00     0.031 A 
ATOM      4  C9  <0> d           1.168   2.086  -0.004  0.00  0.00     0.034 A 
ATOM      5  C10 <0> d           2.340   1.398  -0.290  0.00  0.00     0.031 A 
ATOM      6  C11 <0> d           2.343   0.017  -0.304  0.00  0.00     0.027 A 
ENDROOT
BRANCH   4   7
ATOM      7  N4  <0> d           1.162   3.485   0.009  0.00  0.00    -0.333 N 
ATOM      8  H10 <0> d           1.638   3.978  -0.676  0.00  0.00     0.168 HD
BRANCH   7   9
ATOM      9  C12 <0> d           0.494   4.146   0.975  0.00  0.00     0.179 C 
ATOM     10  S2  <0> d          -0.227   3.280   2.264  0.00  0.00    -0.040 SA
ATOM     11  N5  <0> d           0.394   5.489   0.926  0.00  0.00    -0.298 N 
ATOM     12  C13 <0> d          -0.274   6.151   1.892  0.00  0.00     0.281 C 
ATOM     13  H11 <0> d           0.803   5.980   0.196  0.00  0.00     0.171 HD
ATOM     14  O3  <0> d          -0.787   5.536   2.808  0.00  0.00    -0.265 OA
BRANCH  12  15
ATOM     15  C14 <0> d          -0.383   7.611   1.839  0.00  0.00     0.144 A 
ATOM     16  O4  <0> d           0.137   8.410   0.883  0.00  0.00    -0.298 OA
ATOM     17  C17 <0> d          -0.161   9.686   1.162  0.00  0.00     0.122 A 
ATOM     18  C16 <0> d          -0.881   9.725   2.308  0.00  0.00     0.048 A 
ATOM     19 Br1  <0> d           0.340  11.186   0.125  0.00  0.00    -0.023 Br
ATOM     20  C15 <0> d          -1.032   8.401   2.745  0.00  0.00     0.046 A 
ENDBRANCH  12  15
ENDBRANCH   7   9
ENDBRANCH   4   7
BRANCH   1  21
ATOM     21  S1  <0> d           1.188  -2.443  -0.050  0.00  0.00     0.276 S 
ATOM     22  O1  <0> d           2.529  -2.845   0.192  0.00  0.00    -0.200 OA
ATOM     23  O2  <0> d           0.107  -2.861   0.772  0.00  0.00    -0.200 OA
BRANCH  21  24
ATOM     24  N3  <0> d           0.822  -2.919  -1.593  0.00  0.00    -0.109 N 
ATOM     25  H5  <0> d          -0.000  -3.403  -1.769  0.00  0.00     0.198 HD
BRANCH  24  26
ATOM     26  C5  <0> d           1.688  -2.626  -2.631  0.00  0.00     0.736 A 
ATOM     27  N1  <0> d           1.547  -3.255  -3.789  0.00  0.00    -0.067 NA
ATOM     28  C4  <0> d           2.358  -2.998  -4.801  0.00  0.00     0.051 A 
ATOM     29  C3  <0> d           3.364  -2.058  -4.640  0.00  0.00     0.054 A 
ATOM     30  C18 <0> d           2.191  -3.719  -6.114  0.00  0.00     0.071 C 
ATOM     31  C2  <0> d           3.483  -1.419  -3.417  0.00  0.00     0.051 A 
ATOM     32  C1  <0> d           4.563  -0.390  -3.196  0.00  0.00     0.071 C 
ATOM     33  N2  <0> d           2.636  -1.718  -2.446  0.00  0.00    -0.067 NA
ENDBRANCH  24  26
ENDBRANCH  21  24
ENDBRANCH   1  21
TORSDOF 6
