REMARK  8 active torsions:
REMARK  status: ('A' for Active; 'I' for Inactive)
REMARK    1  A    between atoms: C2_2  and  N1_4 
REMARK    2  A    between atoms: N1_4  and  C4_5 
REMARK       I    between atoms: N1_4  and  C6_8 
REMARK    3  A    between atoms: C4_5  and  C5_6 
REMARK    4  A    between atoms: C5_6  and  O1_7 
REMARK    5  A    between atoms: C6_8  and  C7_10 
REMARK    6  A    between atoms: C10_13  and  C11_15 
REMARK    7  A    between atoms: C12_16  and  C13_17 
REMARK    8  A    between atoms: C13_17  and  O3_18 
ROOT
ATOM      1  C7  <0> d          -3.501  -0.609   1.047  0.00  0.00     0.074 A 
ATOM      2  C8  <0> d          -4.526  -0.278   1.923  0.00  0.00     0.026 A 
ATOM      3  C9  <0> d          -5.730  -0.909   1.793  0.00  0.00     0.029 A 
ATOM      4  C10 <0> d          -5.881  -1.858   0.791  0.00  0.00     0.059 A 
ATOM      5  S1  <0> d          -4.274  -1.842   0.013  0.00  0.00    -0.076 SA
ENDROOT
BRANCH   1   6
ATOM      6  C6  <0> d          -2.137  -0.079   0.985  0.00  0.00     0.261 C 
ATOM      7  N1  <0> d          -1.320  -0.440  -0.024  0.00  0.00    -0.342 N 
ATOM      8  O2  <0> d          -1.743   0.689   1.843  0.00  0.00    -0.267 OA
BRANCH   7   9
ATOM      9  C2  <0> d           0.079  -0.002  -0.026  0.00  0.00     0.079 C 
ATOM     10  C1  <0> d           0.134   1.525  -0.092  0.00  0.00     0.032 C 
ATOM     11  C3  <0> d           0.765  -0.483   1.254  0.00  0.00     0.032 C 
ENDBRANCH   7   9
BRANCH   7  12
ATOM     12  C4  <0> d          -1.829  -1.271  -1.118  0.00  0.00     0.152 C 
BRANCH  12  13
ATOM     13  C5  <0> d          -1.489  -2.737  -0.845  0.00  0.00     0.184 C 
BRANCH  13  14
ATOM     14  O1  <0> d          -2.187  -3.179   0.321  0.00  0.00    -0.399 OA
ATOM     15  H12 <0> d          -2.019  -4.102   0.555  0.00  0.00     0.209 HD
ENDBRANCH  13  14
ENDBRANCH  12  13
ENDBRANCH   7  12
ENDBRANCH   1   6
BRANCH   4  16
ATOM     16  C11 <0> d          -7.032  -2.643   0.461  0.00  0.00    -0.057 C 
ATOM     17  C12 <0> d          -7.976  -3.287   0.191  0.00  0.00    -0.075 C 
BRANCH  17  18
ATOM     18  C13 <0> d          -9.159  -4.094  -0.148  0.00  0.00     0.258 C 
BRANCH  18  19
ATOM     19  O3  <0> d          -8.856  -4.942  -1.258  0.00  0.00    -0.389 OA
ATOM     20  H17 <0> d          -9.592  -5.503  -1.536  0.00  0.00     0.210 HD
ENDBRANCH  18  19
ENDBRANCH  17  18
ENDBRANCH   4  16
TORSDOF 8
