REMARK  3 active torsions:
REMARK  status: ('A' for Active; 'I' for Inactive)
REMARK    1  A    between atoms: C6_6  and  C7_7 
REMARK    2  A    between atoms: C10_14  and  N4_27 
REMARK    3  A    between atoms: C12_16  and  C13_17 
ROOT
ATOM      1  C7  <0> d          -1.640  -0.891  -0.130  0.00  0.00     0.099 A 
ATOM      2  C8  <0> d          -2.643  -0.468   0.746  0.00  0.00     0.040 A 
ATOM      3  C9  <0> d          -3.696  -1.329   0.632  0.00  0.00     0.175 A 
ATOM      4  N1  <0> d          -3.366  -2.261  -0.286  0.00  0.00    -0.256 N 
ATOM      5  H1  <0> d          -3.923  -3.001  -0.574  0.00  0.00     0.191 HD
ATOM      6  N2  <0> d          -2.076  -1.968  -0.757  0.00  0.00    -0.172 NA
ATOM      7  O1  <0> d          -4.835  -1.195   1.357  0.00  0.00    -0.274 OA
ATOM      8  C10 <0> d          -4.811  -0.346   2.404  0.00  0.00     0.161 C 
ATOM      9  C11 <0> d          -3.831   0.560   2.617  0.00  0.00     0.086 C 
ATOM     10  C12 <0> d          -2.654   0.711   1.685  0.00  0.00     0.106 C 
ATOM     11  C19 <0> d          -3.912   1.407   3.768  0.00  0.00     0.100 C 
ATOM     12  N3  <0> d          -3.977   2.080   4.682  0.00  0.00    -0.191 NA
ENDROOT
BRANCH   8  13
ATOM     13  N4  <0> d          -5.844  -0.404   3.307  0.00  0.00    -0.379 N 
ATOM     14  H9  <0> d          -6.562  -1.044   3.181  0.00  0.00     0.158 HD
ATOM     15  H10 <0> d          -5.855   0.194   4.071  0.00  0.00     0.158 HD
ENDBRANCH   8  13
BRANCH  10  16
ATOM     16  C13 <0> d          -2.791   1.988   0.896  0.00  0.00    -0.043 A 
ATOM     17  C18 <0> d          -1.851   2.991   1.038  0.00  0.00     0.030 A 
ATOM     18  C17 <0> d          -1.973   4.161   0.311  0.00  0.00     0.050 A 
ATOM     19  C16 <0> d          -3.044   4.331  -0.552  0.00  0.00     0.133 A 
ATOM     20 Br1  <0> d          -0.684   5.531   0.500  0.00  0.00    -0.048 Br
ATOM     21  C15 <0> d          -3.987   3.327  -0.689  0.00  0.00     0.044 A 
ATOM     22  F1  <0> d          -3.167   5.476  -1.259  0.00  0.00    -0.205 F 
ATOM     23  C14 <0> d          -3.860   2.157   0.035  0.00  0.00     0.011 A 
ENDBRANCH  10  16
BRANCH   1  24
ATOM     24  C6  <0> d          -0.320  -0.241  -0.326  0.00  0.00    -0.002 A 
ATOM     25  C1  <0> d           0.400   0.221   0.773  0.00  0.00     0.017 A 
ATOM     26  C2  <0> d           1.627   0.825   0.590  0.00  0.00     0.040 A 
ATOM     27  C3  <0> d           2.148   0.974  -0.687  0.00  0.00     0.105 A 
ATOM     28  O3  <0> d           3.317   1.525  -1.126  0.00  0.00    -0.323 OA
ATOM     29  C4  <0> d           1.431   0.512  -1.790  0.00  0.00     0.105 A 
ATOM     30  C20 <0> d           3.124   1.765  -2.533  0.00  0.00     0.352 C 
ATOM     31  O2  <0> d           2.152   0.776  -2.919  0.00  0.00    -0.323 OA
ATOM     32  C5  <0> d           0.200  -0.092  -1.611  0.00  0.00     0.053 A 
ENDBRANCH   1  24
TORSDOF 3
