REMARK  3 active torsions:
REMARK  status: ('A' for Active; 'I' for Inactive)
REMARK    1  A    between atoms: C4_4  and  N2_7 
REMARK       I    between atoms: N2_7  and  C5_8 
REMARK    2  A    between atoms: C5_8  and  C6_10 
REMARK    3  A    between atoms: C8_12  and  C10_19 
ROOT
ATOM      1  C6  <0> d           2.439  -0.251   0.323  0.00  0.00     0.116 C 
ATOM      2  C7  <0> d           1.241  -0.777  -0.006  0.00  0.00     0.069 C 
ATOM      3  C8  <0> d           0.002  -0.004   0.002  0.00  0.00     0.084 C 
ATOM      4  N3  <0> d          -0.016   1.301   0.009  0.00  0.00    -0.145 NA
ATOM      5  S1  <0> d           1.422   2.133  -0.000  0.00  0.00     0.346 S 
ATOM      6  O3  <0> d           1.792   2.306  -1.361  0.00  0.00    -0.180 OA
ATOM      7  O4  <0> d           1.276   3.223   0.900  0.00  0.00    -0.180 OA
ATOM      8  N4  <0> d           2.533   1.093   0.675  0.00  0.00    -0.256 N 
ATOM      9  C9  <0> d           3.564   1.570   1.599  0.00  0.00     0.171 C 
ENDROOT
BRANCH   1  10
ATOM     10  C5  <0> d           3.650  -1.099   0.309  0.00  0.00     0.274 C 
ATOM     11  N2  <0> d           3.557  -2.400  -0.032  0.00  0.00    -0.304 N 
ATOM     12  H5  <0> d           2.696  -2.779  -0.268  0.00  0.00     0.171 HD
ATOM     13  O2  <0> d           4.728  -0.624   0.606  0.00  0.00    -0.266 OA
BRANCH  11  14
ATOM     14  C4  <0> d           4.698  -3.200  -0.044  0.00  0.00     0.160 A 
ATOM     15  C3  <0> d           6.024  -2.800   0.274  0.00  0.00     0.087 A 
ATOM     16  C2  <0> d           6.752  -3.928   0.112  0.00  0.00     0.078 A 
ATOM     17  C1  <0> d           8.237  -4.078   0.319  0.00  0.00     0.079 C 
ATOM     18  O1  <0> d           5.896  -4.886  -0.270  0.00  0.00    -0.216 OA
ATOM     19  N1  <0> d           4.763  -4.471  -0.346  0.00  0.00    -0.110 NA
ENDBRANCH  11  14
ENDBRANCH   1  10
BRANCH   3  20
ATOM     20  C10 <0> d          -1.289  -0.732   0.002  0.00  0.00    -0.006 A 
ATOM     21  C15 <0> d          -2.491  -0.024   0.009  0.00  0.00     0.017 A 
ATOM     22  C14 <0> d          -3.690  -0.705   0.008  0.00  0.00     0.043 A 
ATOM     23  C13 <0> d          -3.702  -2.091  -0.000  0.00  0.00     0.116 A 
ATOM     24  C12 <0> d          -2.510  -2.799  -0.008  0.00  0.00     0.043 A 
ATOM     25  F1  <0> d          -4.879  -2.755  -0.002  0.00  0.00    -0.206 F 
ATOM     26  C11 <0> d          -1.306  -2.126  -0.012  0.00  0.00     0.017 A 
ENDBRANCH   3  20
TORSDOF 3
