REMARK  7 active torsions:
REMARK  status: ('A' for Active; 'I' for Inactive)
REMARK    1  A    between atoms: C4_6  and  C5_7 
REMARK    2  A    between atoms: C5_7  and  C6_8 
REMARK    3  A    between atoms: C5_7  and  N3_14 
REMARK    4  A    between atoms: N3_14  and  C12_15 
REMARK    5  A    between atoms: C15_18  and  S1_24 
REMARK    6  A    between atoms: C17_20  and  N4_21 
REMARK    7  A    between atoms: S1_24  and  N5_27 
ROOT
ATOM      1  N3  <0> d          -0.732  -1.044   3.793  0.00  0.00    -0.372 N 
ATOM      2  H12 <0> d          -0.295  -1.762   4.278  0.00  0.00     0.161 HD
ENDROOT
BRANCH   1   3
ATOM      3  C5  <0> d           0.067   0.028   3.194  0.00  0.00     0.183 C 
BRANCH   3   4
ATOM      4  C4  <0> d           0.341  -0.298   1.748  0.00  0.00     0.110 A 
ATOM      5  N1  <0> d           0.419   0.598   0.741  0.00  0.00    -0.348 N 
ATOM      6  C1  <0> d           0.255   2.050   0.854  0.00  0.00     0.157 C 
ATOM      7  C2  <0> d           0.685  -0.102  -0.404  0.00  0.00     0.108 A 
ATOM      8  C3  <0> d           0.756  -1.402  -0.059  0.00  0.00     0.106 A 
ATOM      9  N2  <0> d           0.538  -1.492   1.262  0.00  0.00    -0.352 N 
ATOM     10  H18 <0> d           0.533  -2.316   1.775  0.00  0.00     0.166 HD
ENDBRANCH   3   4
BRANCH   3  11
ATOM     11  C6  <0> d           1.373   0.155   3.936  0.00  0.00    -0.028 A 
ATOM     12  C11 <0> d           1.899   1.406   4.199  0.00  0.00     0.009 A 
ATOM     13  C10 <0> d           3.094   1.523   4.883  0.00  0.00     0.001 A 
ATOM     14  C9  <0> d           3.768   0.389   5.297  0.00  0.00     0.000 A 
ATOM     15  C8  <0> d           3.244  -0.862   5.030  0.00  0.00     0.001 A 
ATOM     16  C7  <0> d           2.046  -0.979   4.349  0.00  0.00     0.009 A 
ENDBRANCH   3  11
ENDBRANCH   1   3
BRANCH   1  17
ATOM     17  C12 <0> d          -2.123  -1.032   3.666  0.00  0.00     0.062 A 
ATOM     18  C17 <0> d          -2.873  -2.108   4.125  0.00  0.00     0.130 A 
ATOM     19  C16 <0> d          -4.249  -2.090   4.003  0.00  0.00     0.063 A 
ATOM     20  C15 <0> d          -4.879  -1.009   3.414  0.00  0.00     0.081 A 
ATOM     21  C14 <0> d          -4.134   0.061   2.951  0.00  0.00     0.027 A 
ATOM     22  C13 <0> d          -2.759   0.053   3.076  0.00  0.00     0.033 A 
BRANCH  18  23
ATOM     23  N4  <0> d          -2.199  -3.268   4.750  0.00  0.00    -0.113 N 
ATOM     24  O1  <0> d          -1.139  -3.656   4.317  0.00  0.00    -0.532 OA
ATOM     25  O2  <0> d          -2.709  -3.828   5.692  0.00  0.00    -0.532 OA
ENDBRANCH  18  23
BRANCH  20  26
ATOM     26  S1  <0> d          -6.633  -0.995   3.253  0.00  0.00     0.256 S 
ATOM     27  O3  <0> d          -7.140  -1.866   4.255  0.00  0.00    -0.201 OA
ATOM     28  O4  <0> d          -7.021   0.369   3.163  0.00  0.00    -0.201 OA
BRANCH  26  29
ATOM     29  N5  <0> d          -6.997  -1.688   1.794  0.00  0.00    -0.324 N 
ATOM     30  H16 <0> d          -7.833  -2.167   1.680  0.00  0.00     0.169 HD
ATOM     31  H17 <0> d          -6.375  -1.615   1.054  0.00  0.00     0.169 HD
ENDBRANCH  26  29
ENDBRANCH  20  26
ENDBRANCH   1  17
TORSDOF 7
