REMARK  6 active torsions:
REMARK  status: ('A' for Active; 'I' for Inactive)
REMARK    1  A    between atoms: C5_5  and  S1_8 
REMARK    2  A    between atoms: S1_8  and  C8_9 
REMARK    3  A    between atoms: C8_9  and  C9_10 
REMARK    4  A    between atoms: C12_14  and  N3_16 
REMARK       I    between atoms: N3_16  and  C13_17 
REMARK       I    between atoms: C13_17  and  N4_18 
REMARK       I    between atoms: C13_17  and  N5_19 
REMARK    5  A    between atoms: N5_19  and  C14_20 
REMARK    6  A    between atoms: C17_23  and  O1_26 
ROOT
ATOM      1  C9  <0> d          -0.826  -6.377   0.689  0.00  0.00     0.041 A 
ATOM      2  C10 <0> d           0.180  -6.891  -0.048  0.00  0.00     0.103 A 
ATOM      3  C11 <0> d           0.353  -8.299  -0.093  0.00  0.00     0.285 A 
ATOM      4  N1  <0> d          -0.480  -9.091   0.592  0.00  0.00    -0.021 NA
ATOM      5  C12 <0> d          -1.464  -8.573   1.312  0.00  0.00     0.746 A 
ATOM      6  N2  <0> d          -1.650  -7.221   1.378  0.00  0.00    -0.190 N 
ATOM      7  O2  <0> d           1.258  -8.786  -0.755  0.00  0.00    -0.266 OA
ATOM      8  H21 <0> d          -2.373  -6.859   1.914  0.00  0.00     0.184 HD
ENDROOT
BRANCH   5   9
ATOM      9  N3  <0> d          -2.286  -9.388   1.992  0.00  0.00     0.128 NA
ATOM     10  C13 <0> d          -2.037 -10.685   2.043  0.00  0.00     0.714 C 
ATOM     11  N4  <0> d          -3.031 -11.559   2.382  0.00  0.00    -0.232 N 
ATOM     12  N5  <0> d          -0.785 -11.152   1.759  0.00  0.00    -0.190 N 
ATOM     13  H11 <0> d          -3.941 -11.240   2.489  0.00  0.00     0.174 HD
ATOM     14  H20 <0> d          -2.827 -12.498   2.514  0.00  0.00     0.174 HD
ATOM     15  H12 <0> d          -0.060 -10.529   1.596  0.00  0.00     0.184 HD
BRANCH  12  16
ATOM     16  C14 <0> d          -0.548 -12.532   1.701  0.00  0.00     0.049 A 
ATOM     17  C19 <0> d           0.685 -13.042   2.087  0.00  0.00     0.033 A 
ATOM     18  C18 <0> d           0.915 -14.402   2.037  0.00  0.00     0.039 A 
ATOM     19  C17 <0> d          -0.080 -15.258   1.589  0.00  0.00     0.068 A 
ATOM     20  C16 <0> d          -1.310 -14.749   1.197  0.00  0.00     0.039 A 
ATOM     21  C15 <0> d          -1.544 -13.389   1.253  0.00  0.00     0.033 A 
BRANCH  19  22
ATOM     22  O1  <0> d           0.149 -16.598   1.534  0.00  0.00    -0.356 OA
ATOM     23  C20 <0> d           1.438 -17.052   1.952  0.00  0.00     0.210 C 
ENDBRANCH  19  22
ENDBRANCH  12  16
ENDBRANCH   5   9
BRANCH   1  24
ATOM     24  C8  <0> d          -1.035  -4.886   0.756  0.00  0.00     0.137 C 
BRANCH  24  25
ATOM     25  S1  <0> d          -2.473  -4.431  -0.253  0.00  0.00    -0.124 SA
BRANCH  25  26
ATOM     26  C5  <0> d          -2.583  -2.682  -0.072  0.00  0.00     0.001 A 
ATOM     27  C4  <0> d          -3.590  -1.977  -0.721  0.00  0.00     0.019 A 
ATOM     28  C3  <0> d          -3.674  -0.606  -0.577  0.00  0.00     0.008 A 
ATOM     29  C2  <0> d          -2.757   0.065   0.211  0.00  0.00    -0.062 A 
ATOM     30  C1  <0> d          -2.852   1.562   0.366  0.00  0.00     0.048 C 
ATOM     31  C7  <0> d          -1.750  -0.632   0.854  0.00  0.00     0.008 A 
ATOM     32  C6  <0> d          -1.664  -2.003   0.719  0.00  0.00     0.019 A 
ENDBRANCH  25  26
ENDBRANCH  24  25
ENDBRANCH   1  24
TORSDOF 6
