REMARK  4 active torsions:
REMARK  status: ('A' for Active; 'I' for Inactive)
REMARK    1  A    between atoms: C5_5  and  C7_7 
REMARK       I    between atoms: C7_7  and  N1_9 
REMARK    2  A    between atoms: N1_9  and  C8_10 
REMARK    3  A    between atoms: C8_10  and  C9_11 
REMARK    4  A    between atoms: C9_11  and  N2_12 
ROOT
ATOM      1  C7  <0> d           1.250  -2.160  -0.023  0.00  0.00     0.252 C 
ATOM      2  O1  <0> d           2.313  -2.748  -0.037  0.00  0.00    -0.268 OA
ATOM      3  N1  <0> d           0.095  -2.856  -0.015  0.00  0.00    -0.355 N 
ATOM      4  H5  <0> d          -0.754  -2.387  -0.004  0.00  0.00     0.162 HD
ENDROOT
BRANCH   3   5
ATOM      5  C8  <0> d           0.122  -4.321  -0.025  0.00  0.00     0.143 C 
BRANCH   5   6
ATOM      6  C9  <0> d          -1.310  -4.857  -0.013  0.00  0.00     0.149 C 
BRANCH   6   7
ATOM      7  N2  <0> d          -1.283  -6.322  -0.023  0.00  0.00    -0.350 N 
ATOM      8  C12 <0> d          -1.257  -7.130   1.059  0.00  0.00     0.182 A 
ATOM      9  N3  <0> d          -1.240  -8.371   0.655  0.00  0.00    -0.361 N 
ATOM     10  C11 <0> d          -1.246  -8.399  -0.686  0.00  0.00     0.106 A 
ATOM     11  H13 <0> d          -1.223  -9.149   1.233  0.00  0.00     0.166 HD
ATOM     12  C10 <0> d          -1.273  -7.128  -1.129  0.00  0.00     0.108 A 
ENDBRANCH   6   7
ENDBRANCH   5   6
ENDBRANCH   3   5
BRANCH   1  13
ATOM     13  C5  <0> d           1.222  -0.683  -0.014  0.00  0.00     0.048 A 
ATOM     14  C4  <0> d           2.416   0.041  -0.021  0.00  0.00     0.022 A 
ATOM     15  C3  <0> d           2.383   1.421  -0.013  0.00  0.00     0.019 A 
ATOM     16  I1  <0> d           4.254  -0.965  -0.045  0.00  0.00    -0.043 I 
ATOM     17  C2  <0> d           1.170   2.087   0.002  0.00  0.00     0.001 A 
ATOM     18  C1  <0> d          -0.017   1.375   0.010  0.00  0.00     0.001 A 
ATOM     19  C6  <0> d           0.002  -0.004   0.002  0.00  0.00     0.018 A 
ENDBRANCH   1  13
TORSDOF 4
