REMARK  2 active torsions:
REMARK  status: ('A' for Active; 'I' for Inactive)
REMARK    1  A    between atoms: C4_5  and  C5_6 
REMARK    2  A    between atoms: C6_8  and  C8_11 
ROOT
ATOM      1  C5  <0> d          -1.156  -0.969   0.008  0.00  0.00     0.288 C 
ATOM      2  N1  <0> d          -0.750  -2.269   0.586  0.00  0.00    -0.043 N 
ATOM      3  C6  <0> d          -0.719  -3.400  -0.344  0.00  0.00     0.296 C 
ATOM      4  C7  <0> d          -1.800  -3.234  -1.452  0.00  0.00     0.120 C 
ATOM      5  S2  <0> d          -1.644  -1.410  -1.713  0.00  0.00    -0.128 SA
ATOM      6  H5  <0> d           0.266  -2.185   0.999  0.00  0.00     0.280 HD
ATOM      7  H8  <0> d          -1.450  -2.549   1.386  0.00  0.00     0.280 HD
ENDROOT
BRANCH   1   8
ATOM      8  C4  <0> d           0.002  -0.004   0.002  0.00  0.00     0.024 A 
ATOM      9  C1  <0> d          -0.016   1.351   0.009  0.00  0.00     0.037 A 
ATOM     10  C2  <0> d           1.184   2.038   0.002  0.00  0.00     0.018 A 
ATOM     11  C3  <0> d           2.343   1.335  -0.013  0.00  0.00     0.069 A 
ATOM     12 Br1  <0> d           1.208   3.929   0.011  0.00  0.00    -0.051 Br
ATOM     13  S1  <0> d           1.753  -0.350  -0.017  0.00  0.00    -0.102 SA
ENDBRANCH   1   8
BRANCH   3  14
ATOM     14  C8  <0> d          -0.981  -4.674   0.417  0.00  0.00     0.205 C 
ATOM     15  O1  <0> d          -1.539  -4.635   1.488  0.00  0.00    -0.646 OA
ATOM     16  O2  <0> d          -0.593  -5.853  -0.095  0.00  0.00    -0.646 OA
ENDBRANCH   3  14
TORSDOF 2
