REMARK  7 active torsions:
REMARK  status: ('A' for Active; 'I' for Inactive)
REMARK    1  A    between atoms: C3_3  and  N1_9 
REMARK       I    between atoms: N1_9  and  C7_10 
REMARK    2  A    between atoms: C7_10  and  C8_12 
REMARK    3  A    between atoms: C8_12  and  C9_13 
REMARK    4  A    between atoms: C9_13  and  C10_14 
REMARK    5  A    between atoms: C10_14  and  C11_15 
REMARK    6  A    between atoms: C11_15  and  C12_16 
REMARK    7  A    between atoms: C12_16  and  N2_17 
ROOT
ATOM      1  N1  <0> d           3.584   2.126  -0.021  0.00  0.00    -0.326 N 
ATOM      2  C7  <0> d           3.568   3.470  -0.116  0.00  0.00     0.222 C 
ATOM      3  O1  <0> d           2.512   4.067  -0.103  0.00  0.00    -0.273 OA
ATOM      4  H4  <0> d           4.429   1.655   0.049  0.00  0.00     0.169 HD
ENDROOT
BRANCH   2   5
ATOM      5  C8  <0> d           4.862   4.233  -0.238  0.00  0.00     0.103 C 
BRANCH   5   6
ATOM      6  C9  <0> d           4.565   5.731  -0.329  0.00  0.00     0.009 C 
BRANCH   6   7
ATOM      7  C10 <0> d           5.879   6.505  -0.453  0.00  0.00     0.002 C 
BRANCH   7   8
ATOM      8  C11 <0> d           5.582   8.003  -0.544  0.00  0.00     0.027 C 
BRANCH   8   9
ATOM      9  C12 <0> d           6.896   8.777  -0.668  0.00  0.00     0.229 C 
BRANCH   9  10
ATOM     10  N2  <0> d           6.611  10.215  -0.756  0.00  0.00    -0.079 N 
ATOM     11  H15 <0> d           6.036  10.396  -1.565  0.00  0.00     0.274 HD
ATOM     12  H16 <0> d           6.122  10.512   0.076  0.00  0.00     0.274 HD
ATOM     13  H17 <0> d           7.477  10.726  -0.838  0.00  0.00     0.274 HD
ENDBRANCH   9  10
ENDBRANCH   8   9
ENDBRANCH   7   8
ENDBRANCH   6   7
ENDBRANCH   5   6
ENDBRANCH   2   5
BRANCH   1  14
ATOM     14  C3  <0> d           2.381   1.410  -0.024  0.00  0.00     0.052 A 
ATOM     15  C2  <0> d           1.250   1.952  -0.618  0.00  0.00     0.032 A 
ATOM     16  C1  <0> d           0.065   1.243  -0.620  0.00  0.00     0.021 A 
ATOM     17  C6  <0> d           0.004  -0.007  -0.031  0.00  0.00     0.012 A 
ATOM     18  C5  <0> d           1.129  -0.551   0.562  0.00  0.00     0.040 A 
ATOM     19 Br1  <0> d          -1.621  -0.974  -0.036  0.00  0.00    -0.051 Br
ATOM     20  C4  <0> d           2.318   0.154   0.567  0.00  0.00     0.039 A 
ATOM     21 Br2  <0> d           3.856  -0.590   1.378  0.00  0.00    -0.049 Br
ENDBRANCH   1  14
TORSDOF 7
