REMARK  4 active torsions:
REMARK  status: ('A' for Active; 'I' for Inactive)
REMARK    1  A    between atoms: C3_3  and  C6_7 
REMARK    2  A    between atoms: C7_8  and  C14_20 
REMARK    3  A    between atoms: C9_13  and  C10_15 
REMARK    4  A    between atoms: C14_20  and  O2_21 
ROOT
ATOM      1  C6  <0> d           3.758   1.926  -0.172  0.00  0.00     0.098 A 
ATOM      2  C7  <0> d           4.789   1.654   0.666  0.00  0.00     0.092 A 
ATOM      3  N2  <0> d           5.718   2.677   0.535  0.00  0.00    -0.208 N 
ATOM      4  C8  <0> d           5.181   3.527  -0.397  0.00  0.00     0.196 A 
ATOM      5  N3  <0> d           4.034   3.079  -0.814  0.00  0.00    -0.220 NA
ATOM      6  S1  <0> d           6.419   4.798  -0.508  0.00  0.00    -0.030 SA
ATOM      7  C9  <0> d           7.562   4.120   0.685  0.00  0.00     0.128 A 
ATOM      8  N4  <0> d           6.954   3.036   1.061  0.00  0.00    -0.160 NA
ENDROOT
BRANCH   1   9
ATOM      9  C3  <0> d           2.542   1.095  -0.356  0.00  0.00     0.012 A 
ATOM     10  C2  <0> d           1.902   0.521   0.746  0.00  0.00     0.017 A 
ATOM     11  C1  <0> d           0.770  -0.245   0.521  0.00  0.00     0.020 A 
ATOM     12  C5  <0> d           0.314  -0.415  -0.773  0.00  0.00     0.116 A 
ATOM     13  N1  <0> d           0.940   0.140  -1.793  0.00  0.00    -0.272 NA
ATOM     14  C4  <0> d           2.019   0.877  -1.629  0.00  0.00     0.130 A 
ENDBRANCH   1   9
BRANCH   2  15
ATOM     15  C14 <0> d           4.905   0.459   1.576  0.00  0.00     0.226 C 
BRANCH  15  16
ATOM     16  O2  <0> d           4.439   0.806   2.881  0.00  0.00    -0.395 OA
ATOM     17  H14 <0> d           4.485   0.083   3.521  0.00  0.00     0.209 HD
ENDBRANCH  15  16
ENDBRANCH   2  15
BRANCH   7  18
ATOM     18  C10 <0> d           8.892   4.665   1.138  0.00  0.00     0.182 C 
ATOM     19  O1  <0> d           8.706   5.886   1.872  0.00  0.00    -0.379 OA
ATOM     20  C13 <0> d           9.772   6.799   1.578  0.00  0.00     0.168 C 
ATOM     21  C12 <0> d          10.696   6.121   0.544  0.00  0.00     0.029 C 
ATOM     22  C11 <0> d           9.759   5.054  -0.086  0.00  0.00     0.041 C 
ENDBRANCH   7  18
TORSDOF 4
