REMARK  5 active torsions:
REMARK  status: ('A' for Active; 'I' for Inactive)
REMARK    1  A    between atoms: C3_3  and  C11_19 
REMARK    2  A    between atoms: N2_7  and  O2_8 
REMARK    3  A    between atoms: C9_13  and  N3_14 
REMARK    4  A    between atoms: N3_14  and  N4_15 
REMARK    5  A    between atoms: N4_15  and  C10_16 
ROOT
ATOM      1  C1  <0> d          -0.487   1.437   0.070  0.00  0.00     0.041 C 
ATOM      2  C2  <0> d          -0.323  -0.084   0.077  0.00  0.00     0.080 C 
ATOM      3  C3  <0> d          -1.626  -0.754   0.455  0.00  0.00     0.082 C 
ATOM      4  N1  <0> d          -1.567  -1.140   1.692  0.00  0.00    -0.193 N 
ATOM      5  O1  <0> d          -2.609  -1.806   2.382  0.00  0.00    -0.083 OA
ATOM      6  C4  <0> d          -0.270  -0.791   2.273  0.00  0.00     0.182 C 
ATOM      7  N2  <0> d           0.630  -0.497   1.139  0.00  0.00    -0.147 NA
ATOM      8  C5  <0> d           0.283  -1.957   3.091  0.00  0.00     0.059 C 
ATOM      9  C6  <0> d          -0.582  -2.159   4.337  0.00  0.00     0.005 C 
ATOM     10  C7  <0> d          -0.511  -0.915   5.225  0.00  0.00     0.006 C 
ATOM     11  C8  <0> d          -1.114   0.280   4.479  0.00  0.00     0.061 C 
ATOM     12  C9  <0> d          -0.399   0.427   3.152  0.00  0.00     0.080 C 
ATOM     13  C15 <0> d           0.156  -0.575  -1.290  0.00  0.00     0.041 C 
ENDROOT
BRANCH  12  14
ATOM     14  N3  <0> d           0.083   1.555   2.787  0.00  0.00    -0.177 NA
BRANCH  14  15
ATOM     15  N4  <0> d          -0.164   2.703   3.552  0.00  0.00    -0.254 N 
ATOM     16  H13 <0> d          -0.764   2.659   4.312  0.00  0.00     0.191 HD
BRANCH  15  17
ATOM     17  C10 <0> d           0.433   3.868   3.230  0.00  0.00     0.185 C 
ATOM     18  S1  <0> d           0.131   5.271   4.165  0.00  0.00    -0.040 SA
ATOM     19  N5  <0> d           1.267   3.929   2.173  0.00  0.00    -0.375 N 
ATOM     20  H14 <0> d           1.438   3.134   1.644  0.00  0.00     0.158 HD
ATOM     21  H15 <0> d           1.696   4.767   1.942  0.00  0.00     0.158 HD
ENDBRANCH  15  17
ENDBRANCH  14  15
ENDBRANCH  12  14
BRANCH   7  22
ATOM     22  O2  <0> d           1.376  -1.691   0.738  0.00  0.00    -0.309 OA
ATOM     23  H4  <0> d           1.897  -1.577  -0.068  0.00  0.00     0.237 HD
ENDBRANCH   7  22
BRANCH   3  24
ATOM     24  C11 <0> d          -2.776  -0.937  -0.437  0.00  0.00     0.031 A 
ATOM     25  S2  <0> d          -2.965  -0.448  -2.144  0.00  0.00    -0.100 SA
ATOM     26  C14 <0> d          -4.623  -1.058  -2.401  0.00  0.00     0.050 A 
ATOM     27  C13 <0> d          -4.929  -1.583  -1.185  0.00  0.00     0.008 A 
ATOM     28  C12 <0> d          -3.999  -1.529  -0.174  0.00  0.00     0.021 A 
ENDBRANCH   3  24
TORSDOF 5
