REMARK  4 active torsions:
REMARK  status: ('A' for Active; 'I' for Inactive)
REMARK    1  A    between atoms: N1_5  and  C5_9 
REMARK    2  A    between atoms: C5_9  and  C6_10 
REMARK       I    between atoms: C6_10  and  N3_12 
REMARK    3  A    between atoms: N3_12  and  C7_13 
REMARK    4  A    between atoms: N3_12  and  C11_20 
ROOT
ATOM      1  C6  <0> d           3.998  -0.950  -1.696  0.00  0.00     0.239 C 
ATOM      2  O3  <0> d           3.920   0.206  -1.338  0.00  0.00    -0.271 OA
ATOM      3  N3  <0> d           5.109  -1.388  -2.321  0.00  0.00    -0.340 N 
ENDROOT
BRANCH   1   4
ATOM      4  C5  <0> d           2.853  -1.896  -1.442  0.00  0.00     0.239 C 
BRANCH   4   5
ATOM      5  N1  <0> d           1.824  -1.217  -0.651  0.00  0.00    -0.259 N 
ATOM      6  C3  <0> d           0.799  -0.521  -1.180  0.00  0.00     0.256 A 
ATOM      7  C2  <0> d           0.002  -0.004   0.002  0.00  0.00     0.108 A 
ATOM      8  O1  <0> d           0.563  -0.343  -2.356  0.00  0.00    -0.270 OA
ATOM      9  C1  <0> d          -0.019   1.526   0.009  0.00  0.00     0.049 C 
ATOM     10  N2  <0> d           0.740  -0.518   1.169  0.00  0.00    -0.325 N 
ATOM     11  C16 <0> d          -1.423  -0.560  -0.021  0.00  0.00     0.049 C 
ATOM     12  C4  <0> d           1.786  -1.213   0.687  0.00  0.00     0.326 A 
ATOM     13  H5  <0> d           0.516  -0.382   2.102  0.00  0.00     0.165 HD
ATOM     14  O2  <0> d           2.605  -1.774   1.388  0.00  0.00    -0.247 OA
ENDBRANCH   4   5
ENDBRANCH   1   4
BRANCH   3  15
ATOM     15  C7  <0> d           6.264  -0.500  -2.470  0.00  0.00     0.102 C 
ATOM     16  C10 <0> d           5.856   0.762  -3.282  0.00  0.00     0.165 C 
ATOM     17  S1  <0> d           7.207   1.921  -2.806  0.00  0.00     0.146 S 
ATOM     18  C9  <0> d           7.747   1.131  -1.235  0.00  0.00     0.142 C 
ATOM     19  O4  <0> d           8.258   1.821  -3.758  0.00  0.00    -0.228 OA
ATOM     20  O5  <0> d           6.646   3.193  -2.515  0.00  0.00    -0.228 OA
ATOM     21  C8  <0> d           6.748  -0.042  -1.084  0.00  0.00     0.041 C 
ENDBRANCH   3  15
BRANCH   3  22
ATOM     22  C11 <0> d           5.160  -2.753  -2.852  0.00  0.00     0.087 C 
ATOM     23  C15 <0> d           5.521  -2.723  -4.348  0.00  0.00     0.025 C 
ATOM     24  C14 <0> d           6.842  -3.506  -4.498  0.00  0.00     0.002 C 
ATOM     25  C13 <0> d           6.870  -4.442  -3.265  0.00  0.00     0.002 C 
ATOM     26  C12 <0> d           6.274  -3.553  -2.146  0.00  0.00     0.025 C 
ENDBRANCH   3  22
TORSDOF 4
