REMARK  7 active torsions:
REMARK  status: ('A' for Active; 'I' for Inactive)
REMARK    1  A    between atoms: C6_6  and  C7_7 
REMARK    2  A    between atoms: C7_7  and  N1_8 
REMARK    3  A    between atoms: C11_12  and  C13_15 
REMARK    4  A    between atoms: C11_12  and  O2_26 
REMARK    5  A    between atoms: C13_15  and  N4_29 
REMARK    6  A    between atoms: C14_16  and  C15_17 
REMARK    7  A    between atoms: C14_16  and  N4_29 
ROOT
ATOM      1  N1  <0> d           0.066   1.511  -0.089  0.00  0.00    -0.345 N 
ATOM      2  C8  <0> d           1.322   2.252  -0.081  0.00  0.00     0.126 C 
ATOM      3  C9  <0> d           1.103   3.671   0.446  0.00  0.00     0.023 C 
ATOM      4  C10 <0> d          -0.066   4.304  -0.319  0.00  0.00     0.051 C 
ATOM      5  C11 <0> d          -1.351   3.564   0.062  0.00  0.00     0.162 C 
ATOM      6  C12 <0> d          -1.139   2.082  -0.053  0.00  0.00     0.256 C 
ATOM      7  O1  <0> d          -2.115   1.365  -0.111  0.00  0.00    -0.270 OA
ENDROOT
BRANCH   5   8
ATOM      8  C13 <0> d          -2.479   3.986  -0.882  0.00  0.00     0.280 C 
BRANCH   8   9
ATOM      9  N4  <0> d          -2.643   5.450  -0.815  0.00  0.00    -0.067 N 
ATOM     10  H25 <0> d          -1.788   5.903  -1.158  0.00  0.00     0.277 HD
ATOM     11  H26 <0> d          -2.811   5.728   0.159  0.00  0.00     0.277 HD
BRANCH   9  12
ATOM     12  C14 <0> d          -3.786   5.875  -1.646  0.00  0.00     0.293 C 
BRANCH  12  13
ATOM     13  C15 <0> d          -3.929   7.373  -1.559  0.00  0.00     0.088 A 
ATOM     14  N3  <0> d          -3.357   8.245  -2.346  0.00  0.00    -0.177 NA
ATOM     15  N2  <0> d          -3.743   9.526  -1.935  0.00  0.00    -0.281 N 
ATOM     16  C17 <0> d          -4.568   9.391  -0.872  0.00  0.00     0.036 A 
ATOM     17  H1  <0> d          -3.459  10.389  -2.353  0.00  0.00     0.189 HD
ATOM     18  C16 <0> d          -4.705   8.070  -0.623  0.00  0.00    -0.006 A 
ATOM     19  C18 <0> d          -5.382  10.199   0.115  0.00  0.00     0.059 C 
ATOM     20  C20 <0> d          -5.618   7.854   0.566  0.00  0.00     0.043 C 
ATOM     21  C19 <0> d          -5.688   9.225   1.273  0.00  0.00     0.011 C 
ENDBRANCH  12  13
ENDBRANCH   9  12
ENDBRANCH   8   9
ENDBRANCH   5   8
BRANCH   5  22
ATOM     22  O2  <0> d          -1.708   3.895   1.405  0.00  0.00    -0.378 OA
ATOM     23  H24 <0> d          -2.515   3.461   1.716  0.00  0.00     0.211 HD
ENDBRANCH   5  22
BRANCH   1  24
ATOM     24  C7  <0> d           0.132   0.049  -0.147  0.00  0.00     0.164 C 
BRANCH  24  25
ATOM     25  C6  <0> d           0.178  -0.507   1.253  0.00  0.00    -0.040 A 
ATOM     26  C1  <0> d           1.395  -0.713   1.875  0.00  0.00     0.012 A 
ATOM     27  C2  <0> d           1.438  -1.218   3.161  0.00  0.00     0.043 A 
ATOM     28  C3  <0> d           0.262  -1.529   3.821  0.00  0.00     0.116 A 
ATOM     29  C4  <0> d          -0.957  -1.327   3.196  0.00  0.00     0.043 A 
ATOM     30  F1  <0> d           0.303  -2.028   5.076  0.00  0.00    -0.206 F 
ATOM     31  C5  <0> d          -0.997  -0.817   1.912  0.00  0.00     0.012 A 
ENDBRANCH  24  25
ENDBRANCH   1  24
TORSDOF 7
