REMARK  6 active torsions:
REMARK  status: ('A' for Active; 'I' for Inactive)
REMARK    1  A    between atoms: C5_5  and  C8_8 
REMARK    2  A    between atoms: C8_8  and  N1_9 
REMARK    3  A    between atoms: N1_9  and  C9_10 
REMARK    4  A    between atoms: N1_9  and  C12_13 
REMARK    5  A    between atoms: C12_13  and  C13_14 
REMARK    6  A    between atoms: C13_14  and  C14_16 
ROOT
ATOM      1  C9  <0> d           0.326  -3.905   0.535  0.00  0.00     0.365 C 
ATOM      2  C10 <0> d           0.111  -4.543   1.845  0.00  0.00    -0.087 C 
ATOM      3  C11 <0> d          -0.061  -5.051   2.889  0.00  0.00     0.013 C 
ENDROOT
BRANCH   1   4
ATOM      4  N1  <0> d           1.588  -4.386  -0.042  0.00  0.00     0.110 N 
BRANCH   4   5
ATOM      5  C8  <0> d           1.905  -3.670  -1.285  0.00  0.00     0.312 C 
BRANCH   5   6
ATOM      6  C5  <0> d           2.181  -2.222  -0.974  0.00  0.00    -0.030 A 
ATOM      7  C4  <0> d           3.468  -1.811  -0.682  0.00  0.00     0.009 A 
ATOM      8  C3  <0> d           3.722  -0.482  -0.398  0.00  0.00     0.007 A 
ATOM      9  C2  <0> d           2.688   0.436  -0.407  0.00  0.00    -0.062 A 
ATOM     10  C1  <0> d           2.965   1.885  -0.097  0.00  0.00     0.048 C 
ATOM     11  C7  <0> d           1.401   0.024  -0.694  0.00  0.00     0.007 A 
ATOM     12  C6  <0> d           1.148  -1.304  -0.982  0.00  0.00     0.009 A 
ENDBRANCH   5   6
ENDBRANCH   4   5
BRANCH   4  13
ATOM     13  C12 <0> d           1.546  -5.837  -0.266  0.00  0.00     0.357 C 
BRANCH  13  14
ATOM     14  C13 <0> d           2.951  -6.368  -0.387  0.00  0.00     0.197 C 
ATOM     15  O1  <0> d           3.897  -5.630  -0.200  0.00  0.00    -0.290 OA
BRANCH  14  16
ATOM     16  C14 <0> d           3.167  -7.723  -0.717  0.00  0.00     0.123 A 
ATOM     17  C17 <0> d           2.048  -8.668  -0.811  0.00  0.00     0.269 A 
ATOM     18  N3  <0> d           2.311  -9.951  -1.136  0.00  0.00    -0.270 N 
ATOM     19  O3  <0> d           0.905  -8.301  -0.606  0.00  0.00    -0.267 OA
ATOM     20  C16 <0> d           3.570 -10.361  -1.358  0.00  0.00     0.332 A 
ATOM     21  C18 <0> d           1.208 -10.911  -1.241  0.00  0.00     0.164 C 
ATOM     22  N2  <0> d           4.622  -9.531  -1.277  0.00  0.00    -0.289 N 
ATOM     23  O2  <0> d           3.764 -11.527  -1.642  0.00  0.00    -0.246 OA
ATOM     24  C15 <0> d           4.463  -8.212  -0.961  0.00  0.00     0.124 A 
ATOM     25  C19 <0> d           5.967 -10.051  -1.532  0.00  0.00     0.163 C 
ATOM     26  N4  <0> d           5.540  -7.385  -0.884  0.00  0.00    -0.384 N 
ATOM     27  H21 <0> d           5.428  -6.470  -0.583  0.00  0.00     0.157 HD
ATOM     28  H22 <0> d           6.420  -7.710  -1.130  0.00  0.00     0.157 HD
ENDBRANCH  14  16
ENDBRANCH  13  14
ENDBRANCH   4  13
ENDBRANCH   1   4
TORSDOF 6
