REMARK  6 active torsions:
REMARK  status: ('A' for Active; 'I' for Inactive)
REMARK    1  A    between atoms: C3_3  and  C12_14 
REMARK    2  A    between atoms: N1_5  and  C5_7 
REMARK    3  A    between atoms: N4_20  and  C16_21 
REMARK    4  A    between atoms: C16_21  and  C17_22 
REMARK       I    between atoms: C17_22  and  N5_24 
REMARK    5  A    between atoms: N5_24  and  C18_25 
REMARK    6  A    between atoms: C18_25  and  C20_27 
ROOT
ATOM      1  C12 <0> d           0.122  -0.382  -2.577  0.00  0.00     0.317 C 
ATOM      2  C13 <0> d           1.556  -0.219  -2.992  0.00  0.00     0.253 C 
ATOM      3  O1  <0> d           2.362  -1.054  -2.640  0.00  0.00    -0.271 OA
ATOM      4  N3  <0> d           1.981   0.810  -3.734  0.00  0.00    -0.357 N 
ATOM      5  C14 <0> d           1.090   1.878  -4.182  0.00  0.00     0.150 C 
ATOM      6  C15 <0> d          -0.366   1.423  -4.067  0.00  0.00     0.256 C 
ATOM      7  N4  <0> d          -0.590   0.895  -2.713  0.00  0.00    -0.044 N 
ATOM      8  H14 <0> d           2.917   0.849  -3.985  0.00  0.00     0.162 HD
ATOM      9  H28 <0> d          -0.240   1.551  -2.031  0.00  0.00     0.281 HD
ENDROOT
BRANCH   1  10
ATOM     10  C3  <0> d           0.065  -0.835  -1.141  0.00  0.00     0.032 A 
ATOM     11  C2  <0> d          -0.252  -2.123  -0.696  0.00  0.00     0.062 A 
ATOM     12  C1  <0> d          -0.600  -3.299  -1.571  0.00  0.00     0.073 C 
ATOM     13  N2  <0> d          -0.201  -2.129   0.612  0.00  0.00    -0.172 NA
ATOM     14  N1  <0> d           0.159  -0.845   1.042  0.00  0.00    -0.238 N 
ATOM     15  C4  <0> d           0.314  -0.068  -0.054  0.00  0.00     0.043 A 
ATOM     16  C11 <0> d           0.696   1.390  -0.064  0.00  0.00     0.071 C 
BRANCH  14  17
ATOM     17  C5  <0> d           0.325  -0.437   2.373  0.00  0.00     0.058 A 
ATOM     18  C10 <0> d           0.979  -1.263   3.277  0.00  0.00     0.031 A 
ATOM     19  C9  <0> d           1.146  -0.855   4.586  0.00  0.00     0.002 A 
ATOM     20  C8  <0> d           0.653   0.369   4.999  0.00  0.00     0.000 A 
ATOM     21  C7  <0> d          -0.004   1.191   4.102  0.00  0.00     0.002 A 
ATOM     22  C6  <0> d          -0.169   0.792   2.790  0.00  0.00     0.031 A 
ENDBRANCH  14  17
ENDBRANCH   1  10
BRANCH   7  23
ATOM     23  C16 <0> d          -2.028   0.682  -2.502  0.00  0.00     0.338 C 
BRANCH  23  24
ATOM     24  C17 <0> d          -2.740   2.010  -2.520  0.00  0.00     0.244 C 
ATOM     25  O2  <0> d          -2.111   3.033  -2.692  0.00  0.00    -0.272 OA
ATOM     26  N5  <0> d          -4.075   2.061  -2.345  0.00  0.00    -0.349 N 
ATOM     27  H21 <0> d          -4.578   1.243  -2.208  0.00  0.00     0.163 HD
BRANCH  26  28
ATOM     28  C18 <0> d          -4.768   3.352  -2.363  0.00  0.00     0.137 C 
ATOM     29  C19 <0> d          -5.090   3.739  -3.808  0.00  0.00     0.039 C 
BRANCH  28  30
ATOM     30  C20 <0> d          -6.048   3.246  -1.574  0.00  0.00     0.074 A 
ATOM     31  O3  <0> d          -6.889   2.199  -1.579  0.00  0.00    -0.325 OA
ATOM     32  C23 <0> d          -7.921   2.451  -0.757  0.00  0.00     0.142 A 
ATOM     33  C22 <0> d          -7.752   3.674  -0.224  0.00  0.00     0.027 A 
ATOM     34  C21 <0> d          -6.544   4.187  -0.750  0.00  0.00     0.037 A 
ENDBRANCH  28  30
ENDBRANCH  26  28
ENDBRANCH  23  24
ENDBRANCH   7  23
TORSDOF 6
