REMARK  5 active torsions:
REMARK  status: ('A' for Active; 'I' for Inactive)
REMARK    1  A    between atoms: C4_5  and  C5_6 
REMARK    2  A    between atoms: C6_9  and  C7_11 
REMARK    3  A    between atoms: C7_11  and  C8_12 
REMARK    4  A    between atoms: C8_12  and  C9_13 
REMARK       I    between atoms: C9_13  and  N3_15 
REMARK    5  A    between atoms: N3_15  and  C10_16 
ROOT
ATOM      1  C9  <0> d           0.002  -0.005   0.008  0.00  0.00     0.222 C 
ATOM      2  O2  <0> d           1.061  -0.597  -0.009  0.00  0.00    -0.273 OA
ATOM      3  N3  <0> d          -1.156  -0.694   0.009  0.00  0.00    -0.326 N 
ATOM      4  H8  <0> d          -2.000  -0.223   0.089  0.00  0.00     0.169 HD
ENDROOT
BRANCH   1   5
ATOM      5  C8  <0> d          -0.017   1.502   0.028  0.00  0.00     0.111 C 
BRANCH   5   6
ATOM      6  C7  <0> d           1.418   2.031   0.023  0.00  0.00     0.098 C 
BRANCH   6   7
ATOM      7  C6  <0> d           1.399   3.538   0.043  0.00  0.00     0.170 A 
ATOM      8  N2  <0> d           1.398   4.293   1.105  0.00  0.00    -0.127 NA
ATOM      9  N1  <0> d           1.379   5.530   0.753  0.00  0.00    -0.121 NA
ATOM     10  C5  <0> d           1.367   5.608  -0.558  0.00  0.00     0.203 A 
ATOM     11  O1  <0> d           1.384   4.346  -1.032  0.00  0.00    -0.273 OA
BRANCH  10  12
ATOM     12  C4  <0> d           1.344   6.847  -1.362  0.00  0.00     0.026 A 
ATOM     13  C1  <0> d           1.327   8.099  -0.747  0.00  0.00     0.023 A 
ATOM     14  C2  <0> d           1.311   9.190  -1.545  0.00  0.00     0.050 A 
ATOM     15  S1  <0> d           1.306   8.470  -3.176  0.00  0.00    -0.113 SA
ATOM     16  C3  <0> d           1.332   6.796  -2.728  0.00  0.00     0.065 A 
ENDBRANCH  10  12
ENDBRANCH   6   7
ENDBRANCH   5   6
ENDBRANCH   1   5
BRANCH   3  17
ATOM     17  C10 <0> d          -1.140  -2.091  -0.104  0.00  0.00     0.059 A 
ATOM     18  C15 <0> d          -2.157  -2.742  -0.790  0.00  0.00     0.063 A 
ATOM     19  C14 <0> d          -2.141  -4.121  -0.909  0.00  0.00     0.065 A 
ATOM     20 Cl1  <0> d          -3.446  -1.825  -1.506  0.00  0.00    -0.082 Cl
ATOM     21  C13 <0> d          -1.116  -4.850  -0.332  0.00  0.00     0.103 A 
ATOM     22  C12 <0> d          -0.102  -4.201   0.359  0.00  0.00     0.104 A 
ATOM     23  O3  <0> d          -1.095  -6.211  -0.438  0.00  0.00    -0.348 OA
ATOM     24  C11 <0> d          -0.111  -2.822   0.474  0.00  0.00     0.071 A 
ATOM     25  O4  <0> d           0.903  -4.932   0.925  0.00  0.00    -0.348 OA
ATOM     26  C18 <0> d           1.795  -5.578   0.014  0.00  0.00     0.178 C 
ATOM     27  C17 <0> d           1.229  -6.915  -0.438  0.00  0.00     0.053 C 
ATOM     28  C16 <0> d          -0.050  -6.759  -1.245  0.00  0.00     0.178 C 
ENDBRANCH   3  17
TORSDOF 5
