REMARK  4 active torsions:
REMARK  status: ('A' for Active; 'I' for Inactive)
REMARK    1  A    between atoms: C2_2  and  N1_3 
REMARK    2  A    between atoms: N1_3  and  C3_4 
REMARK       I    between atoms: N1_3  and  C18_25 
REMARK    3  A    between atoms: C4_6  and  C6_9 
REMARK    4  A    between atoms: C6_9  and  N3_10 
ROOT
ATOM      1  N3  <0> d          -3.127   2.091  -1.086  0.00  0.00    -0.262 N 
ATOM      2  C7  <0> d          -1.843   2.443  -1.311  0.00  0.00     0.261 A 
ATOM      3  O1  <0> d          -1.341   2.764  -2.367  0.00  0.00    -0.270 OA
ATOM      4  C8  <0> d          -1.166   2.352   0.032  0.00  0.00     0.144 A 
ATOM      5  C9  <0> d          -0.578   3.705   0.449  0.00  0.00     0.051 C 
ATOM      6  C10 <0> d           0.896   3.571   0.005  0.00  0.00     0.042 C 
ATOM      7  C11 <0> d           1.177   2.083   0.002  0.00  0.00    -0.049 A 
ATOM      8  C12 <0> d          -0.017   1.381   0.010  0.00  0.00    -0.014 A 
ATOM      9  C13 <0> d           0.002  -0.004   0.002  0.00  0.00     0.011 A 
ATOM     10  C14 <0> d           1.204  -0.685  -0.010  0.00  0.00     0.001 A 
ATOM     11  C15 <0> d           2.394   0.016  -0.015  0.00  0.00     0.001 A 
ATOM     12  C16 <0> d           2.380   1.397  -0.009  0.00  0.00     0.007 A 
ATOM     13  N4  <0> d          -2.222   1.923   0.949  0.00  0.00    -0.320 N 
ATOM     14  C17 <0> d          -3.339   1.796   0.203  0.00  0.00     0.326 A 
ATOM     15  O2  <0> d          -4.415   1.452   0.650  0.00  0.00    -0.247 OA
ATOM     16  H17 <0> d          -1.998   1.775   2.016  0.00  0.00     0.165 HD
ENDROOT
BRANCH   1  17
ATOM     17  C6  <0> d          -4.161   2.039  -2.123  0.00  0.00     0.196 C 
BRANCH  17  18
ATOM     18  C4  <0> d          -4.842   3.379  -2.221  0.00  0.00     0.062 A 
ATOM     19  N2  <0> d          -5.846   3.686  -1.422  0.00  0.00    -0.227 NA
ATOM     20  C3  <0> d          -6.448   4.856  -1.500  0.00  0.00     0.175 A 
ATOM     21  S1  <0> d          -5.574   5.632  -2.784  0.00  0.00    -0.062 SA
ATOM     22  C5  <0> d          -4.434   4.300  -3.128  0.00  0.00     0.082 A 
BRANCH  20  23
ATOM     23  N1  <0> d          -7.510   5.344  -0.746  0.00  0.00    -0.297 N 
ATOM     24  C18 <0> d          -8.059   4.579   0.218  0.00  0.00     0.221 C 
ATOM     25  O3  <0> d          -7.627   3.465   0.428  0.00  0.00    -0.273 OA
ATOM     26  C19 <0> d          -9.210   5.107   1.034  0.00  0.00     0.117 C 
BRANCH  23  27
ATOM     27  C2  <0> d          -8.031   6.689  -1.001  0.00  0.00     0.130 C 
ATOM     28  C1  <0> d          -9.143   6.615  -2.049  0.00  0.00     0.027 C 
ENDBRANCH  23  27
ENDBRANCH  20  23
ENDBRANCH  17  18
ENDBRANCH   1  17
TORSDOF 4
