REMARK  3 active torsions:
REMARK  status: ('A' for Active; 'I' for Inactive)
REMARK    1  A    between atoms: C2_2  and  C15_20 
REMARK    2  A    between atoms: N1_3  and  N2_4 
REMARK       I    between atoms: N2_4  and  C3_5 
REMARK    3  A    between atoms: C3_5  and  C4_7 
ROOT
ATOM      1  C4  <0> d           0.046   0.100   4.814  0.00  0.00     0.256 A 
ATOM      2  C5  <0> d           1.436   0.541   5.172  0.00  0.00    -0.013 A 
ATOM      3  C6  <0> d           1.702  -0.082   6.347  0.00  0.00     0.094 A 
ATOM      4  C7  <0> d           3.010   0.141   7.014  0.00  0.00     0.001 A 
ATOM      5  C8  <0> d           3.444  -0.669   8.053  0.00  0.00     0.014 A 
ATOM      6  C9  <0> d           4.684  -0.443   8.621  0.00  0.00     0.001 A 
ATOM      7  C10 <0> d           5.481   0.584   8.149  0.00  0.00     0.001 A 
ATOM      8  C11 <0> d           5.044   1.399   7.122  0.00  0.00     0.008 A 
ATOM      9  C12 <0> d           3.799   1.197   6.555  0.00  0.00    -0.045 A 
ATOM     10  C13 <0> d           3.297   2.140   5.496  0.00  0.00     0.044 C 
ATOM     11  C14 <0> d           2.407   1.438   4.470  0.00  0.00     0.044 C 
ATOM     12  N3  <0> d           0.647  -0.840   6.715  0.00  0.00    -0.153 NA
ATOM     13  N4  <0> d          -0.314  -0.799   5.930  0.00  0.00    -0.173 NA
ENDROOT
BRANCH   1  14
ATOM     14  C3  <0> d           0.044  -0.646   3.505  0.00  0.00     0.268 C 
ATOM     15  N2  <0> d           0.024   0.034   2.342  0.00  0.00    -0.245 N 
ATOM     16  H5  <0> d           0.011   1.003   2.347  0.00  0.00     0.192 HD
ATOM     17  O1  <0> d           0.060  -1.860   3.499  0.00  0.00    -0.269 OA
BRANCH  15  18
ATOM     18  N1  <0> d           0.022  -0.660   1.125  0.00  0.00    -0.176 NA
ATOM     19  C2  <0> d           0.002  -0.004   0.002  0.00  0.00     0.068 C 
ATOM     20  C1  <0> d          -0.018   1.503   0.010  0.00  0.00     0.074 C 
BRANCH  19  21
ATOM     21  C15 <0> d          -0.000  -0.730  -1.272  0.00  0.00     0.030 A 
ATOM     22  S1  <0> d          -0.025  -0.084  -2.936  0.00  0.00    -0.100 SA
ATOM     23  C18 <0> d          -0.009  -1.639  -3.813  0.00  0.00     0.050 A 
ATOM     24  C17 <0> d           0.006  -2.543  -2.799  0.00  0.00     0.008 A 
ATOM     25  C16 <0> d           0.011  -2.096  -1.498  0.00  0.00     0.021 A 
ENDBRANCH  19  21
ENDBRANCH  15  18
ENDBRANCH   1  14
TORSDOF 3
