REMARK  3 active torsions:
REMARK  status: ('A' for Active; 'I' for Inactive)
REMARK    1  A    between atoms: C2_2  and  C5_5 
REMARK    2  A    between atoms: C8_8  and  C11_11 
REMARK    3  A    between atoms: C12_12  and  O3_18 
ROOT
ATOM      1  C5  <0> d          -5.775   1.421  -0.187  0.00  0.00    -0.051 A 
ATOM      2  C6  <0> d          -5.013   1.026  -1.272  0.00  0.00     0.009 A 
ATOM      3  C7  <0> d          -3.648   1.230  -1.271  0.00  0.00     0.013 A 
ATOM      4  C8  <0> d          -3.037   1.838  -0.173  0.00  0.00    -0.018 A 
ATOM      5  C9  <0> d          -3.812   2.230   0.921  0.00  0.00     0.013 A 
ATOM      6  C10 <0> d          -5.175   2.024   0.905  0.00  0.00     0.009 A 
ENDROOT
BRANCH   4   7
ATOM      7  C11 <0> d          -1.575   2.059  -0.165  0.00  0.00     0.081 A 
ATOM      8  C14 <0> d          -0.522   1.021  -0.140  0.00  0.00     0.262 A 
ATOM      9  N1  <0> d           0.677   1.628  -0.146  0.00  0.00    -0.287 N 
ATOM     10  O2  <0> d          -0.710  -0.179  -0.122  0.00  0.00    -0.267 OA
ATOM     11  C13 <0> d           0.519   2.963  -0.168  0.00  0.00     0.282 A 
ATOM     12  H14 <0> d           1.532   1.169  -0.136  0.00  0.00     0.172 HD
ATOM     13  C12 <0> d          -0.931   3.263  -0.177  0.00  0.00     0.153 A 
ATOM     14  O1  <0> d           1.414   3.783  -0.178  0.00  0.00    -0.265 OA
BRANCH  13  15
ATOM     15  O3  <0> d          -1.505   4.490  -0.198  0.00  0.00    -0.350 OA
ATOM     16  C15 <0> d          -1.295   5.284  -1.367  0.00  0.00     0.210 C 
ENDBRANCH  13  15
ENDBRANCH   4   7
BRANCH   1  17
ATOM     17  C2  <0> d          -7.265   1.195  -0.195  0.00  0.00    -0.024 C 
ATOM     18  C1  <0> d          -7.553  -0.302  -0.325  0.00  0.00     0.019 C 
ATOM     19  C3  <0> d          -7.867   1.718   1.111  0.00  0.00     0.019 C 
ATOM     20  C4  <0> d          -7.888   1.939  -1.378  0.00  0.00     0.019 C 
ENDBRANCH   1  17
TORSDOF 3
