REMARK  7 active torsions:
REMARK  status: ('A' for Active; 'I' for Inactive)
REMARK    1  A    between atoms: C2_2  and  C3_3 
REMARK    2  A    between atoms: C3_3  and  C4_4 
REMARK    3  A    between atoms: N1_7  and  C7_11 
REMARK    4  A    between atoms: C7_11  and  C8_12 
REMARK    5  A    between atoms: C12_16  and  C14_18 
REMARK    6  A    between atoms: C15_19  and  C16_20 
REMARK    7  A    between atoms: C16_20  and  N3_21 
ROOT
ATOM      1  C8  <0> d          -5.156  -3.112  -2.147  0.00  0.00    -0.038 A 
ATOM      2  C9  <0> d          -6.065  -2.324  -1.463  0.00  0.00     0.009 A 
ATOM      3  C10 <0> d          -6.912  -1.476  -2.154  0.00  0.00     0.002 A 
ATOM      4  C11 <0> d          -6.855  -1.411  -3.531  0.00  0.00     0.020 A 
ATOM      5  C12 <0> d          -5.941  -2.202  -4.227  0.00  0.00     0.018 A 
ATOM      6  C13 <0> d          -5.086  -3.052  -3.524  0.00  0.00     0.029 A 
ENDROOT
BRANCH   1   7
ATOM      7  C7  <0> d          -4.237  -4.033  -1.387  0.00  0.00     0.175 C 
BRANCH   7   8
ATOM      8  N1  <0> d          -3.003  -3.321  -1.048  0.00  0.00    -0.264 N 
ATOM      9  C5  <0> d          -2.822  -2.616   0.086  0.00  0.00     0.251 A 
ATOM     10  C4  <0> d          -1.413  -2.063   0.004  0.00  0.00     0.179 A 
ATOM     11  O1  <0> d          -3.620  -2.457   0.985  0.00  0.00    -0.271 OA
ATOM     12  N2  <0> d          -0.913  -2.568  -1.286  0.00  0.00    -0.329 N 
ATOM     13  C6  <0> d          -1.915  -3.290  -1.827  0.00  0.00     0.326 A 
ATOM     14  H9  <0> d          -0.037  -2.410  -1.670  0.00  0.00     0.165 HD
ATOM     15  O2  <0> d          -1.838  -3.852  -2.902  0.00  0.00    -0.247 OA
BRANCH  10  16
ATOM     16  C3  <0> d          -1.433  -0.534   0.013  0.00  0.00     0.034 C 
BRANCH  16  17
ATOM     17  C2  <0> d           0.002  -0.004   0.002  0.00  0.00    -0.002 C 
ATOM     18  C1  <0> d          -0.019   1.526   0.010  0.00  0.00     0.005 C 
ENDBRANCH  16  17
ENDBRANCH  10  16
ENDBRANCH   7   8
ENDBRANCH   1   7
BRANCH   5  19
ATOM     19  C14 <0> d          -5.877  -2.139  -5.656  0.00  0.00    -0.065 C 
ATOM     20  C15 <0> d          -5.825  -2.088  -6.827  0.00  0.00    -0.074 C 
BRANCH  20  21
ATOM     21  C16 <0> d          -5.760  -2.024  -8.297  0.00  0.00     0.323 C 
BRANCH  21  22
ATOM     22  N3  <0> d          -4.724  -2.946  -8.781  0.00  0.00    -0.069 N 
ATOM     23  H18 <0> d          -4.680  -2.902  -9.789  0.00  0.00     0.275 HD
ATOM     24  H19 <0> d          -3.831  -2.683  -8.393  0.00  0.00     0.275 HD
ATOM     25  H20 <0> d          -4.952  -3.887  -8.496  0.00  0.00     0.275 HD
ENDBRANCH  21  22
ENDBRANCH  20  21
ENDBRANCH   5  19
TORSDOF 7
