REMARK  6 active torsions:
REMARK  status: ('A' for Active; 'I' for Inactive)
REMARK    1  A    between atoms: N2_6  and  C5_7 
REMARK    2  A    between atoms: C5_7  and  C6_8 
REMARK    3  A    between atoms: C6_8  and  C7_9 
REMARK    4  A    between atoms: C7_9  and  N3_10 
REMARK       I    between atoms: N3_10  and  C8_11 
REMARK    5  A    between atoms: C8_11  and  C9_13 
REMARK    6  A    between atoms: C9_13  and  N4_14 
ROOT
ATOM      1  N3  <0> d          -2.774   0.610   4.853  0.00  0.00    -0.360 N 
ATOM      2  C8  <0> d          -3.013   1.028   6.111  0.00  0.00     0.235 C 
ATOM      3  O1  <0> d          -2.090   1.203   6.878  0.00  0.00    -0.272 OA
ATOM      4  H12 <0> d          -3.512   0.470   4.239  0.00  0.00     0.162 HD
ENDROOT
BRANCH   2   5
ATOM      5  C9  <0> d          -4.428   1.279   6.566  0.00  0.00     0.235 C 
BRANCH   5   6
ATOM      6  N4  <0> d          -4.420   1.723   7.962  0.00  0.00    -0.299 N 
ATOM      7  C13 <0> d          -4.334   3.038   8.235  0.00  0.00     0.262 A 
ATOM      8  C12 <0> d          -4.332   3.464   9.603  0.00  0.00     0.068 A 
ATOM      9  O2  <0> d          -4.261   3.855   7.332  0.00  0.00    -0.267 OA
ATOM     10  C11 <0> d          -4.414   2.436  10.559  0.00  0.00     0.114 A 
ATOM     11  C14 <0> d          -4.253   4.806  10.150  0.00  0.00     0.027 A 
ATOM     12  N5  <0> d          -4.493   1.155  10.210  0.00  0.00    -0.235 NA
ATOM     13  S1  <0> d          -4.381   3.306  12.105  0.00  0.00    -0.081 SA
ATOM     14  C10 <0> d          -4.496   0.799   8.954  0.00  0.00     0.214 A 
ATOM     15  C15 <0> d          -4.263   4.972  11.482  0.00  0.00     0.053 A 
ENDBRANCH   5   6
ENDBRANCH   2   5
BRANCH   1  16
ATOM     16  C7  <0> d          -1.399   0.366   4.411  0.00  0.00     0.124 C 
BRANCH  16  17
ATOM     17  C6  <0> d          -1.406  -0.098   2.953  0.00  0.00     0.040 C 
BRANCH  17  18
ATOM     18  C5  <0> d           0.030  -0.353   2.491  0.00  0.00     0.131 C 
BRANCH  18  19
ATOM     19  N2  <0> d           0.023  -0.797   1.095  0.00  0.00    -0.346 N 
ATOM     20  C2  <0> d           0.002  -0.004   0.002  0.00  0.00     0.079 A 
ATOM     21  C1  <0> d          -0.018   1.503   0.010  0.00  0.00     0.089 C 
ATOM     22  N1  <0> d           0.008  -0.759  -1.063  0.00  0.00    -0.355 N 
ATOM     23  C3  <0> d           0.028  -2.047  -0.691  0.00  0.00     0.106 A 
ATOM     24  H18 <0> d          -0.000  -0.438  -1.978  0.00  0.00     0.166 HD
ATOM     25  C4  <0> d           0.034  -2.093   0.655  0.00  0.00     0.109 A 
ENDBRANCH  18  19
ENDBRANCH  17  18
ENDBRANCH  16  17
ENDBRANCH   1  16
TORSDOF 6
