REMARK  6 active torsions:
REMARK  status: ('A' for Active; 'I' for Inactive)
REMARK    1  A    between atoms: C2_2  and  C3_3 
REMARK    2  A    between atoms: C2_2  and  N2_11 
REMARK       I    between atoms: C3_3  and  N1_5 
REMARK    3  A    between atoms: N1_5  and  C4_6 
REMARK    4  A    between atoms: C4_6  and  C5_7 
REMARK       I    between atoms: N2_11  and  C6_12 
REMARK    5  A    between atoms: C6_12  and  C7_14 
REMARK    6  A    between atoms: C7_14  and  N3_16 
ROOT
ATOM      1  C1  <0> d          -0.019   1.526   0.010  0.00  0.00     0.042 C 
ATOM      2  C2  <0> d           0.002  -0.004   0.002  0.00  0.00     0.172 C 
ENDROOT
BRANCH   2   3
ATOM      3  C3  <0> d           0.731  -0.503   1.223  0.00  0.00     0.240 C 
ATOM      4  O1  <0> d           1.725  -1.187   1.099  0.00  0.00    -0.271 OA
ATOM      5  N1  <0> d           0.278  -0.191   2.453  0.00  0.00    -0.351 N 
ATOM      6  H6  <0> d          -0.517   0.356   2.553  0.00  0.00     0.162 HD
BRANCH   5   7
ATOM      7  C4  <0> d           0.986  -0.676   3.640  0.00  0.00     0.240 C 
BRANCH   7   8
ATOM      8  C5  <0> d           0.270  -0.182   4.899  0.00  0.00     0.403 C 
ATOM      9  F1  <0> d          -1.042  -0.667   4.909  0.00  0.00    -0.169 F 
ATOM     10  F2  <0> d           0.947  -0.646   6.032  0.00  0.00    -0.169 F 
ATOM     11  F3  <0> d           0.251   1.216   4.907  0.00  0.00    -0.169 F 
ENDBRANCH   7   8
ENDBRANCH   5   7
ENDBRANCH   2   3
BRANCH   2  12
ATOM     12  N2  <0> d           0.688  -0.476  -1.203  0.00  0.00    -0.346 N 
ATOM     13  C6  <0> d           0.006  -0.608  -2.358  0.00  0.00     0.241 C 
ATOM     14  O2  <0> d          -1.175  -0.336  -2.400  0.00  0.00    -0.271 OA
ATOM     15  H9  <0> d           1.632  -0.695  -1.170  0.00  0.00     0.163 HD
BRANCH  13  16
ATOM     16  C7  <0> d           0.712  -1.094  -3.598  0.00  0.00     0.178 C 
ATOM     17  C8  <0> d           1.849  -0.133  -3.948  0.00  0.00     0.043 C 
BRANCH  16  18
ATOM     18  N3  <0> d          -0.240  -1.150  -4.711  0.00  0.00    -0.337 N 
ATOM     19  C11 <0> d          -0.942  -0.114  -5.218  0.00  0.00     0.209 A 
ATOM     20  N4  <0> d          -1.681  -0.550  -6.201  0.00  0.00    -0.255 NA
ATOM     21  C10 <0> d          -1.485  -1.869  -6.350  0.00  0.00     0.135 A 
ATOM     22  C9  <0> d          -0.587  -2.264  -5.427  0.00  0.00     0.112 A 
ENDBRANCH  16  18
ENDBRANCH  13  16
ENDBRANCH   2  12
TORSDOF 6
