REMARK  2 active torsions:
REMARK  status: ('A' for Active; 'I' for Inactive)
REMARK    1  A    between atoms: C5_5  and  C7_7 
REMARK    2  A    between atoms: C8_9  and  N4_12 
ROOT
ATOM      1  C7  <0> d           1.248  -2.163  -0.022  0.00  0.00     0.181 A 
ATOM      2  N1  <0> d           2.336  -2.881  -0.032  0.00  0.00    -0.213 NA
ATOM      3  C8  <0> d           1.873  -4.280  -0.037  0.00  0.00     0.451 A 
ATOM      4  N2  <0> d           0.406  -4.163  -0.029  0.00  0.00    -0.133 NA
ATOM      5  N3  <0> d           0.137  -2.957  -0.015  0.00  0.00    -0.131 NA
ENDROOT
BRANCH   1   6
ATOM      6  C5  <0> d           1.221  -0.682  -0.014  0.00  0.00     0.031 A 
ATOM      7  C4  <0> d           2.415   0.040  -0.022  0.00  0.00     0.025 A 
ATOM      8  C3  <0> d           2.382   1.421  -0.013  0.00  0.00     0.020 A 
ATOM      9 Br1  <0> d           4.073  -0.868  -0.044  0.00  0.00    -0.050 Br
ATOM     10  C2  <0> d           1.170   2.087   0.002  0.00  0.00     0.001 A 
ATOM     11  C1  <0> d          -0.017   1.375   0.010  0.00  0.00     0.001 A 
ATOM     12  C6  <0> d           0.002  -0.004   0.002  0.00  0.00     0.017 A 
ENDBRANCH   1   6
BRANCH   3  13
ATOM     13  N4  <0> d           2.345  -4.985   1.162  0.00  0.00    -0.035 N 
ATOM     14  H6  <0> d           1.986  -4.524   1.985  0.00  0.00     0.279 HD
ATOM     15  H7  <0> d           2.019  -5.939   1.142  0.00  0.00     0.279 HD
ATOM     16  H8  <0> d           3.353  -4.974   1.184  0.00  0.00     0.279 HD
ENDBRANCH   3  13
TORSDOF 2
