REMARK  3 active torsions:
REMARK  status: ('A' for Active; 'I' for Inactive)
REMARK    1  A    between atoms: C6_6  and  N1_8 
REMARK    2  A    between atoms: C11_13  and  C12_15 
REMARK       I    between atoms: C12_15  and  N3_17 
REMARK    3  A    between atoms: N3_17  and  C13_18 
ROOT
ATOM      1  N1  <0> d           0.381   4.999  -1.300  0.00  0.00    -0.244 N 
ATOM      2  C8  <0> d          -0.780   4.933  -0.603  0.00  0.00     0.123 A 
ATOM      3  C9  <0> d          -0.924   5.591   0.572  0.00  0.00     0.076 A 
ATOM      4  C10 <0> d           0.175   6.357   1.040  0.00  0.00     0.209 A 
ATOM      5  O1  <0> d           0.115   6.980   2.089  0.00  0.00    -0.286 OA
ATOM      6  C11 <0> d           1.389   6.370   0.209  0.00  0.00     0.195 A 
ATOM      7  N2  <0> d           1.396   5.679  -0.912  0.00  0.00    -0.158 NA
ENDROOT
BRANCH   6   8
ATOM      8  C12 <0> d           2.576   7.142   0.624  0.00  0.00     0.280 C 
ATOM      9  O2  <0> d           2.557   7.776   1.661  0.00  0.00    -0.265 OA
ATOM     10  N3  <0> d           3.681   7.146  -0.148  0.00  0.00    -0.321 N 
ATOM     11  H10 <0> d           3.672   6.702  -1.010  0.00  0.00     0.169 HD
BRANCH  10  12
ATOM     12  C13 <0> d           4.842   7.788   0.296  0.00  0.00     0.047 A 
ATOM     13  C18 <0> d           5.979   7.046   0.590  0.00  0.00    -0.035 A 
ATOM     14  C17 <0> d           7.123   7.683   1.028  0.00  0.00     0.009 A 
ATOM     15  C19 <0> d           5.963   5.547   0.432  0.00  0.00     0.050 C 
ATOM     16  C16 <0> d           7.138   9.058   1.173  0.00  0.00     0.001 A 
ATOM     17  C15 <0> d           6.008   9.800   0.881  0.00  0.00     0.009 A 
ATOM     18  C14 <0> d           4.862   9.169   0.438  0.00  0.00    -0.035 A 
ATOM     19  C20 <0> d           3.633   9.979   0.113  0.00  0.00     0.050 C 
ENDBRANCH  10  12
ENDBRANCH   6   8
BRANCH   1  20
ATOM     20  C6  <0> d           0.474   4.295  -2.505  0.00  0.00     0.058 A 
ATOM     21  C5  <0> d          -0.476   3.333  -2.823  0.00  0.00     0.031 A 
ATOM     22  C4  <0> d          -0.384   2.643  -4.016  0.00  0.00     0.003 A 
ATOM     23  C3  <0> d           0.658   2.901  -4.888  0.00  0.00     0.007 A 
ATOM     24  C2  <0> d           1.606   3.858  -4.573  0.00  0.00    -0.060 A 
ATOM     25  C1  <0> d           2.736   4.141  -5.529  0.00  0.00     0.048 C 
ATOM     26  C7  <0> d           1.516   4.556  -3.385  0.00  0.00     0.038 A 
ENDBRANCH   1  20
TORSDOF 3
