REMARK  8 active torsions:
REMARK  status: ('A' for Active; 'I' for Inactive)
REMARK    1  A    between atoms: N1_6  and  C7_8 
REMARK    2  A    between atoms: C7_8  and  C8_9 
REMARK    3  A    between atoms: C13_14  and  C14_15 
REMARK    4  A    between atoms: C14_15  and  N2_16 
REMARK       I    between atoms: N2_16  and  C15_17 
REMARK    5  A    between atoms: C15_17  and  C16_19 
REMARK    6  A    between atoms: C16_19  and  C17_20 
REMARK    7  A    between atoms: C17_20  and  C18_21 
REMARK    8  A    between atoms: C18_21  and  C19_22 
ROOT
ATOM      1  N2  <0> d           1.148  -2.905   4.014  0.00  0.00    -0.357 N 
ATOM      2  C15 <0> d           0.815  -4.160   3.653  0.00  0.00     0.217 C 
ATOM      3  O1  <0> d          -0.072  -4.344   2.847  0.00  0.00    -0.274 OA
ATOM      4  H21 <0> d           1.858  -2.758   4.659  0.00  0.00     0.162 HD
ENDROOT
BRANCH   1   5
ATOM      5  C14 <0> d           0.437  -1.763   3.434  0.00  0.00     0.161 C 
BRANCH   5   6
ATOM      6  C13 <0> d           1.086  -0.483   3.892  0.00  0.00    -0.033 A 
ATOM      7  C8  <0> d           2.218  -0.014   3.254  0.00  0.00    -0.025 A 
ATOM      8  C9  <0> d           2.810   1.164   3.671  0.00  0.00     0.009 A 
ATOM      9  C10 <0> d           2.272   1.870   4.730  0.00  0.00     0.001 A 
ATOM     10  C11 <0> d           1.142   1.399   5.372  0.00  0.00     0.001 A 
ATOM     11  C12 <0> d           0.550   0.222   4.955  0.00  0.00     0.009 A 
BRANCH   7  12
ATOM     12  C7  <0> d           2.805  -0.784   2.099  0.00  0.00     0.274 C 
BRANCH  12  13
ATOM     13  N1  <0> d           3.653  -1.868   2.614  0.00  0.00    -0.067 N 
ATOM     14  C5  <0> d           4.109  -2.703   1.496  0.00  0.00     0.239 C 
ATOM     15  C4  <0> d           4.926  -3.880   2.034  0.00  0.00     0.008 C 
ATOM     16  C3  <0> d           6.139  -3.344   2.801  0.00  0.00     0.011 C 
ATOM     17  C27 <0> d           5.402  -4.748   0.867  0.00  0.00     0.011 C 
ATOM     18  C2  <0> d           5.654  -2.416   3.918  0.00  0.00     0.008 C 
ATOM     19  C1  <0> d           4.806  -3.211   4.912  0.00  0.00     0.011 C 
ATOM     20  C6  <0> d           4.811  -1.292   3.311  0.00  0.00     0.239 C 
ATOM     21  H35 <0> d           3.120  -2.432   3.258  0.00  0.00     0.280 HD
ENDBRANCH  12  13
ENDBRANCH   7  12
ENDBRANCH   5   6
ENDBRANCH   1   5
BRANCH   2  22
ATOM     22  C16 <0> d           1.546  -5.335   4.250  0.00  0.00     0.103 C 
BRANCH  22  23
ATOM     23  C17 <0> d           0.979  -6.635   3.675  0.00  0.00     0.017 C 
BRANCH  23  24
ATOM     24  C18 <0> d           1.721  -7.827   4.281  0.00  0.00     0.079 C 
BRANCH  24  25
ATOM     25  C19 <0> d           1.162  -9.107   3.715  0.00  0.00     0.107 A 
ATOM     26  N4  <0> d           0.196  -9.028   2.851  0.00  0.00    -0.235 NA
ATOM     27  C26 <0> d          -0.353 -10.137   2.295  0.00  0.00     0.074 A 
ATOM     28  C21 <0> d           0.133 -11.407   2.676  0.00  0.00     0.061 A 
ATOM     29  C25 <0> d          -1.388 -10.053   1.361  0.00  0.00     0.032 A 
ATOM     30  C20 <0> d           1.224 -11.462   3.660  0.00  0.00     0.259 A 
ATOM     31  C22 <0> d          -0.418 -12.561   2.122  0.00  0.00     0.019 A 
ATOM     32  N3  <0> d           1.691 -10.285   4.138  0.00  0.00    -0.311 N 
ATOM     33  O2  <0> d           1.689 -12.524   4.032  0.00  0.00    -0.267 OA
ATOM     34  H3  <0> d           2.411 -10.282   4.789  0.00  0.00     0.170 HD
ATOM     35  C23 <0> d          -1.439 -12.452   1.204  0.00  0.00     0.001 A 
ATOM     36  C24 <0> d          -1.919 -11.205   0.827  0.00  0.00     0.002 A 
ENDBRANCH  24  25
ENDBRANCH  23  24
ENDBRANCH  22  23
ENDBRANCH   2  22
TORSDOF 8
