REMARK  4 active torsions:
REMARK  status: ('A' for Active; 'I' for Inactive)
REMARK    1  A    between atoms: C4_4  and  C7_7 
REMARK    2  A    between atoms: C8_8  and  C9_9 
REMARK    3  A    between atoms: C9_9  and  N5_29 
REMARK    4  A    between atoms: N1_12  and  C14_15 
ROOT
ATOM      1  C10 <0> d           0.138  -0.132  -2.413  0.00  0.00     0.250 C 
ATOM      2  C11 <0> d           1.028  -0.570  -3.578  0.00  0.00     0.125 C 
ATOM      3  N1  <0> d           1.271  -2.017  -3.489  0.00  0.00    -0.263 NA
ATOM      4  C12 <0> d           1.925  -2.361  -2.219  0.00  0.00     0.125 C 
ATOM      5  C13 <0> d           1.034  -1.923  -1.054  0.00  0.00     0.250 C 
ATOM      6  N5  <0> d           0.817  -0.464  -1.143  0.00  0.00    -0.066 N 
ATOM      7  H24 <0> d           1.727   0.011  -1.117  0.00  0.00     0.280 HD
ENDROOT
BRANCH   3   8
ATOM      8  C14 <0> d           2.016  -2.463  -4.569  0.00  0.00     0.136 A 
ATOM      9  N4  <0> d           3.164  -3.104  -4.381  0.00  0.00    -0.227 NA
ATOM     10  C23 <0> d           3.882  -3.539  -5.401  0.00  0.00     0.235 A 
ATOM     11  N3  <0> d           3.509  -3.354  -6.649  0.00  0.00    -0.239 NA
ATOM     12  C16 <0> d           2.373  -2.716  -6.931  0.00  0.00     0.100 A 
ATOM     13  C15 <0> d           1.577  -2.241  -5.881  0.00  0.00     0.103 A 
ATOM     14  C17 <0> d           1.682  -2.350  -8.177  0.00  0.00     0.022 A 
ATOM     15  N2  <0> d           0.465  -1.621  -6.419  0.00  0.00    -0.351 N 
ATOM     16  C22 <0> d           0.509  -1.676  -7.799  0.00  0.00     0.045 A 
ATOM     17  H1  <0> d          -0.245  -1.208  -5.903  0.00  0.00     0.166 HD
ATOM     18  C21 <0> d          -0.354  -1.206  -8.785  0.00  0.00     0.030 A 
ATOM     19  C20 <0> d          -0.055  -1.403 -10.115  0.00  0.00     0.002 A 
ATOM     20  C19 <0> d           1.104  -2.069 -10.486  0.00  0.00     0.001 A 
ATOM     21  C18 <0> d           1.971  -2.542  -9.527  0.00  0.00     0.016 A 
ENDBRANCH   3   8
BRANCH   6  22
ATOM     22  C9  <0> d           0.002  -0.004   0.002  0.00  0.00     0.262 C 
BRANCH  22  23
ATOM     23  C8  <0> d          -0.018   1.503   0.010  0.00  0.00     0.001 C 
ATOM     24  C7  <0> d          -1.175   2.150   0.019  0.00  0.00     0.009 C 
BRANCH  24  25
ATOM     25  C4  <0> d          -1.195   3.628   0.027  0.00  0.00    -0.036 A 
ATOM     26  C3  <0> d          -2.411   4.312   0.037  0.00  0.00     0.011 A 
ATOM     27  C2  <0> d          -2.423   5.692   0.044  0.00  0.00     0.001 A 
ATOM     28  C1  <0> d          -1.233   6.397   0.043  0.00  0.00     0.000 A 
ATOM     29  C6  <0> d          -0.024   5.724   0.033  0.00  0.00     0.001 A 
ATOM     30  C5  <0> d           0.002   4.345   0.031  0.00  0.00     0.011 A 
ENDBRANCH  24  25
ENDBRANCH  22  23
ENDBRANCH   6  22
TORSDOF 4
