REMARK  4 active torsions:
REMARK  status: ('A' for Active; 'I' for Inactive)
REMARK    1  A    between atoms: C8_10  and  N3_11 
REMARK    2  A    between atoms: N3_11  and  C9_12 
REMARK    3  A    between atoms: C9_12  and  C10_13 
REMARK    4  A    between atoms: C12_15  and  C13_19 
ROOT
ATOM      1  N3  <0> d           1.341   0.626   1.907  0.00  0.00     0.140 N 
ATOM      2  H11 <0> d           1.577   1.403   1.308  0.00  0.00     0.321 HD
ENDROOT
BRANCH   1   3
ATOM      3  C8  <0> d           0.814  -0.500   1.126  0.00  0.00     0.528 A 
ATOM      4  N1  <0> d          -0.122  -0.013   0.099  0.00  0.00     0.006 N 
ATOM      5  C1  <0> d          -0.228   1.450   0.173  0.00  0.00     0.281 C 
ATOM      6  C2  <0> d          -1.368  -0.595   0.365  0.00  0.00     0.164 A 
ATOM      7  H20 <0> d           0.199  -0.289  -0.817  0.00  0.00     0.291 HD
ATOM      8  C7  <0> d          -1.279  -1.409   1.482  0.00  0.00     0.066 A 
ATOM      9  C3  <0> d          -2.576  -0.464  -0.298  0.00  0.00     0.040 A 
ATOM     10  C6  <0> d          -2.408  -2.091   1.931  0.00  0.00     0.031 A 
ATOM     11  N2  <0> d           0.025  -1.390   1.987  0.00  0.00    -0.336 N 
ATOM     12  C5  <0> d          -3.608  -1.956   1.265  0.00  0.00     0.002 A 
ATOM     13  C4  <0> d          -3.693  -1.143   0.150  0.00  0.00     0.002 A 
ATOM     14  H10 <0> d           0.349  -1.875   2.762  0.00  0.00     0.163 HD
ENDBRANCH   1   3
BRANCH   1  15
ATOM     15  C9  <0> d           2.499   0.212   2.711  0.00  0.00     0.335 C 
BRANCH  15  16
ATOM     16  C10 <0> d           3.012   1.391   3.497  0.00  0.00     0.085 A 
ATOM     17  N5  <0> d           3.852   2.294   3.059  0.00  0.00    -0.177 NA
ATOM     18  N4  <0> d           4.080   3.224   4.082  0.00  0.00    -0.277 N 
ATOM     19  C12 <0> d           3.346   2.838   5.164  0.00  0.00     0.062 A 
ATOM     20  H2  <0> d           4.659   4.000   4.031  0.00  0.00     0.189 HD
ATOM     21  C11 <0> d           2.676   1.699   4.815  0.00  0.00     0.062 A 
BRANCH  19  22
ATOM     22  C13 <0> d           3.285   3.525   6.473  0.00  0.00    -0.008 A 
ATOM     23  C18 <0> d           4.027   4.687   6.689  0.00  0.00     0.014 A 
ATOM     24  C17 <0> d           3.962   5.327   7.909  0.00  0.00     0.001 A 
ATOM     25  C16 <0> d           3.172   4.812   8.922  0.00  0.00     0.000 A 
ATOM     26  C15 <0> d           2.438   3.657   8.716  0.00  0.00     0.001 A 
ATOM     27  C14 <0> d           2.491   3.011   7.497  0.00  0.00     0.014 A 
ENDBRANCH  19  22
ENDBRANCH  15  16
ENDBRANCH   1  15
TORSDOF 4
