REMARK  7 active torsions:
REMARK  status: ('A' for Active; 'I' for Inactive)
REMARK    1  A    between atoms: C2_2  and  C4_4 
REMARK    2  A    between atoms: C2_2  and  O6_26 
REMARK    3  A    between atoms: C4_4  and  C5_5 
REMARK    4  A    between atoms: C5_5  and  C6_6 
REMARK    5  A    between atoms: C11_11  and  O1_12 
REMARK    6  A    between atoms: C19_22  and  O5_25 
REMARK    7  A    between atoms: C20_23  and  O4_24 
ROOT
ATOM      1  C6  <0> d           3.756   5.092  -6.442  0.00  0.00    -0.024 A 
ATOM      2  C7  <0> d           2.804   4.452  -5.657  0.00  0.00     0.020 A 
ATOM      3  C8  <0> d           3.186   4.061  -4.393  0.00  0.00    -0.015 A 
ATOM      4  C9  <0> d           4.493   4.286  -3.908  0.00  0.00     0.079 A 
ATOM      5  C10 <0> d           5.434   4.933  -4.699  0.00  0.00     0.074 A 
ATOM      6  C11 <0> d           5.037   5.329  -5.973  0.00  0.00     0.074 A 
ATOM      7  O2  <0> d           4.643   3.772  -2.653  0.00  0.00    -0.340 OA
ATOM      8  C12 <0> d           3.680   2.733  -2.531  0.00  0.00     0.175 C 
ATOM      9  C13 <0> d           2.469   3.382  -3.287  0.00  0.00     0.080 C 
ATOM     10  C14 <0> d           1.501   2.266  -3.588  0.00  0.00     0.188 C 
ATOM     11  O3  <0> d           1.237   1.533  -2.385  0.00  0.00    -0.347 OA
ATOM     12  C15 <0> d           1.843   1.830  -1.210  0.00  0.00     0.113 A 
ATOM     13  C16 <0> d           3.113   2.424  -1.185  0.00  0.00     0.008 A 
ATOM     14  C17 <0> d           3.748   2.694  -0.001  0.00  0.00     0.015 A 
ATOM     15  C18 <0> d           3.127   2.394   1.201  0.00  0.00     0.040 A 
ATOM     16  C19 <0> d           1.863   1.823   1.198  0.00  0.00     0.101 A 
ATOM     17  C20 <0> d           1.225   1.533  -0.001  0.00  0.00     0.133 A 
ENDROOT
BRANCH   1  18
ATOM     18  C5  <0> d           3.385   5.538  -7.833  0.00  0.00     0.044 C 
BRANCH  18  19
ATOM     19  C4  <0> d           3.071   7.035  -7.822  0.00  0.00     0.042 C 
BRANCH  19  20
ATOM     20  C2  <0> d           2.695   7.488  -9.234  0.00  0.00     0.051 C 
ATOM     21  C1  <0> d           2.502   9.006  -9.249  0.00  0.00     0.045 C 
ATOM     22  C3  <0> d           3.813   7.107 -10.206  0.00  0.00     0.045 C 
BRANCH  20  23
ATOM     23  O6  <0> d           1.480   6.850  -9.632  0.00  0.00    -0.391 OA
ATOM     24  H22 <0> d           1.426   5.752  -9.681  0.00  0.00     0.210 HD
ENDBRANCH  20  23
ENDBRANCH  19  20
ENDBRANCH  18  19
ENDBRANCH   1  18
BRANCH   6  25
ATOM     25  O1  <0> d           5.929   5.964  -6.777  0.00  0.00    -0.360 OA
ATOM     26  H15 <0> d           6.950   6.159  -6.418  0.00  0.00     0.217 HD
ENDBRANCH   6  25
BRANCH  17  27
ATOM     27  O4  <0> d          -0.011   0.963   0.007  0.00  0.00    -0.356 OA
ATOM     28  H20 <0> d          -0.501   0.727   0.963  0.00  0.00     0.218 HD
ENDBRANCH  17  27
BRANCH  16  29
ATOM     29  O5  <0> d           1.247   1.539   2.377  0.00  0.00    -0.358 OA
ATOM     30  H21 <0> d           0.245   1.086   2.379  0.00  0.00     0.217 HD
ENDBRANCH  16  29
TORSDOF 7
