REMARK  3 active torsions:
REMARK  status: ('A' for Active; 'I' for Inactive)
REMARK    1  A    between atoms: C4_4  and  C6_8 
REMARK       I    between atoms: C6_8  and  N3_10 
REMARK    2  A    between atoms: N3_10  and  C7_11 
REMARK    3  A    between atoms: C10_16  and  C14_21 
ROOT
ATOM      1  C7  <0> d           1.020   2.328  -0.001  0.00  0.00     0.211 C 
ATOM      2  C8  <0> d          -0.059   3.351   0.311  0.00  0.00     0.187 C 
ATOM      3  N4  <0> d          -0.974   2.209   0.004  0.00  0.00    -0.293 N 
ATOM      4  C9  <0> d          -0.038   1.248  -0.008  0.00  0.00     0.251 C 
ATOM      5  O2  <0> d          -0.040   0.035  -0.023  0.00  0.00    -0.271 OA
ATOM      6  C10 <0> d          -2.347   2.305  -0.299  0.00  0.00     0.118 C 
ATOM      7  C11 <0> d          -2.860   3.448  -0.723  0.00  0.00    -0.041 C 
ATOM      8  C12 <0> d          -2.179   4.766  -0.896  0.00  0.00     0.112 C 
ATOM      9  S1  <0> d          -0.371   4.588  -0.994  0.00  0.00    -0.136 SA
ATOM     10  C13 <0> d          -4.324   3.415  -1.079  0.00  0.00     0.047 C 
ENDROOT
BRANCH   1  11
ATOM     11  N3  <0> d           1.648   2.531  -1.309  0.00  0.00    -0.340 N 
ATOM     12  C6  <0> d           2.891   2.063  -1.540  0.00  0.00     0.272 C 
ATOM     13  O1  <0> d           3.528   1.557  -0.636  0.00  0.00    -0.266 OA
ATOM     14  H9  <0> d           1.169   3.002  -2.009  0.00  0.00     0.163 HD
BRANCH  12  15
ATOM     15  C4  <0> d           3.477   2.165  -2.885  0.00  0.00     0.143 A 
ATOM     16  C3  <0> d           4.365   3.129  -3.334  0.00  0.00     0.093 A 
ATOM     17  C2  <0> d           4.627   2.797  -4.667  0.00  0.00     0.075 A 
ATOM     18 Cl1  <0> d           5.017   4.462  -2.433  0.00  0.00    -0.079 Cl
ATOM     19  C1  <0> d           5.543   3.543  -5.603  0.00  0.00     0.074 C 
ATOM     20  N2  <0> d           3.932   1.728  -4.959  0.00  0.00    -0.176 NA
ATOM     21  N1  <0> d           3.249   1.332  -3.945  0.00  0.00    -0.267 N 
ATOM     22  C5  <0> d           2.362   0.166  -3.928  0.00  0.00     0.180 C 
ENDBRANCH  12  15
ENDBRANCH   1  11
BRANCH   6  23
ATOM     23  C14 <0> d          -3.215   1.123  -0.149  0.00  0.00     0.227 C 
ATOM     24  O3  <0> d          -2.748   0.071   0.241  0.00  0.00    -0.643 OA
ATOM     25  O4  <0> d          -4.527   1.210  -0.443  0.00  0.00    -0.643 OA
ENDBRANCH   6  23
TORSDOF 3
