REMARK  8 active torsions:
REMARK  status: ('A' for Active; 'I' for Inactive)
REMARK    1  A    between atoms: C2_2  and  C3_3 
REMARK    2  A    between atoms: C3_3  and  C4_4 
REMARK    3  A    between atoms: C4_4  and  C5_5 
REMARK    4  A    between atoms: C5_5  and  C21_26 
REMARK    5  A    between atoms: C8_8  and  C9_10 
REMARK    6  A    between atoms: N2_19  and  C17_22 
REMARK    7  A    between atoms: C17_22  and  C18_23 
REMARK    8  A    between atoms: C18_23  and  C19_24 
ROOT
ATOM      1  C5  <0> d           1.455  -2.521  -2.524  0.00  0.00     0.226 C 
ATOM      2  C6  <0> d           1.560  -4.060  -2.514  0.00  0.00     0.141 A 
ATOM      3  C7  <0> d           2.950  -4.368  -3.132  0.00  0.00     0.129 A 
ATOM      4  C8  <0> d           3.547  -2.987  -3.472  0.00  0.00     0.234 C 
ATOM      5  N1  <0> d           2.863  -2.047  -2.538  0.00  0.00    -0.046 N 
ATOM      6  C15 <0> d           3.714  -4.987  -1.984  0.00  0.00     0.234 A 
ATOM      7  O1  <0> d           4.860  -5.380  -2.034  0.00  0.00    -0.272 OA
ATOM      8  N2  <0> d           2.928  -5.034  -0.902  0.00  0.00    -0.288 N 
ATOM      9  C16 <0> d           1.681  -4.541  -1.086  0.00  0.00     0.234 A 
ATOM     10  O2  <0> d           0.803  -4.488  -0.252  0.00  0.00    -0.272 OA
ATOM     11  H13 <0> d           2.914  -1.104  -2.893  0.00  0.00     0.279 HD
ATOM     12  H27 <0> d           3.262  -2.100  -1.613  0.00  0.00     0.279 HD
ENDROOT
BRANCH   1  13
ATOM     13  C4  <0> d           0.739  -2.027  -1.265  0.00  0.00     0.051 C 
BRANCH  13  14
ATOM     14  C3  <0> d           0.718  -0.497  -1.257  0.00  0.00     0.003 C 
BRANCH  14  15
ATOM     15  C2  <0> d           0.002  -0.004   0.002  0.00  0.00    -0.004 C 
ATOM     16  C1  <0> d          -0.019   1.526   0.010  0.00  0.00     0.005 C 
ENDBRANCH  14  15
ENDBRANCH  13  14
ENDBRANCH   1  13
BRANCH   1  17
ATOM     17  C21 <0> d           0.730  -2.049  -3.758  0.00  0.00     0.211 C 
ATOM     18  O3  <0> d           1.299  -1.331  -4.562  0.00  0.00    -0.646 OA
ATOM     19  O4  <0> d          -0.425  -2.386  -3.952  0.00  0.00    -0.646 OA
ENDBRANCH   1  17
BRANCH   4  20
ATOM     20  C9  <0> d           5.032  -2.978  -3.211  0.00  0.00    -0.025 A 
ATOM     21  C14 <0> d           5.918  -3.133  -4.259  0.00  0.00     0.033 A 
ATOM     22  C13 <0> d           7.281  -3.118  -4.020  0.00  0.00     0.034 A 
ATOM     23  C12 <0> d           7.755  -2.961  -2.730  0.00  0.00     0.024 A 
ATOM     24 Cl1  <0> d           8.396  -3.305  -5.338  0.00  0.00    -0.084 Cl
ATOM     25  C11 <0> d           6.867  -2.812  -1.681  0.00  0.00     0.002 A 
ATOM     26  C10 <0> d           5.506  -2.820  -1.922  0.00  0.00     0.009 A 
ENDBRANCH   4  20
BRANCH   8  27
ATOM     27  C17 <0> d           3.377  -5.582   0.381  0.00  0.00     0.135 C 
BRANCH  27  28
ATOM     28  C18 <0> d           3.998  -4.466   1.222  0.00  0.00     0.020 C 
BRANCH  28  29
ATOM     29  C19 <0> d           4.467  -5.039   2.562  0.00  0.00    -0.003 C 
ATOM     30  C20 <0> d           5.089  -3.923   3.404  0.00  0.00     0.005 C 
ENDBRANCH  28  29
ENDBRANCH  27  28
ENDBRANCH   8  27
TORSDOF 8
