REMARK  8 active torsions:
REMARK  status: ('A' for Active; 'I' for Inactive)
REMARK    1  A    between atoms: C2_2  and  O1_3 
REMARK    2  A    between atoms: O1_3  and  C3_4 
REMARK    3  A    between atoms: C3_4  and  C4_6 
REMARK    4  A    between atoms: C7_9  and  O9_36 
REMARK    5  A    between atoms: C10_12  and  O8_34 
REMARK    6  A    between atoms: C15_17  and  O7_33 
REMARK    7  A    between atoms: C21_25  and  O5_27 
REMARK    8  A    between atoms: O5_27  and  C23_28 
ROOT
ATOM      1  C4  <0> d          -2.702  -2.450  -0.350  0.00  0.00     0.097 C 
ATOM      2  C5  <0> d          -3.448  -1.764   0.824  0.00  0.00     0.018 C 
ATOM      3  C6  <0> d          -3.917  -2.907   1.771  0.00  0.00     0.040 C 
ATOM      4  C7  <0> d          -2.893  -4.010   1.448  0.00  0.00     0.070 C 
ATOM      5  C8  <0> d          -2.880  -3.958  -0.094  0.00  0.00     0.002 C 
ATOM      6  C9  <0> d          -1.833  -4.882  -0.651  0.00  0.00     0.045 C 
ATOM      7  C10 <0> d          -1.795  -6.227   0.107  0.00  0.00     0.124 C 
ATOM      8  C11 <0> d          -3.055  -6.458   0.916  0.00  0.00     0.037 C 
ATOM      9  C12 <0> d          -3.184  -5.381   1.990  0.00  0.00     0.028 C 
ATOM     10  C13 <0> d          -4.519  -5.503   2.705  0.00  0.00     0.011 C 
ATOM     11  C14 <0> d          -4.643  -6.892   3.337  0.00  0.00     0.039 C 
ATOM     12  C15 <0> d          -3.434  -7.768   3.022  0.00  0.00     0.073 C 
ATOM     13  C16 <0> d          -3.195  -7.854   1.519  0.00  0.00     0.045 C 
ATOM     14  C17 <0> d          -4.430  -8.508   0.857  0.00  0.00     0.187 C 
ATOM     15  O3  <0> d          -4.208  -8.510  -0.552  0.00  0.00    -0.355 OA
ATOM     16  C18 <0> d          -3.039  -9.174  -1.016  0.00  0.00     0.157 C 
ATOM     17  O4  <0> d          -1.899  -8.940  -0.216  0.00  0.00    -0.350 OA
ATOM     18  C19 <0> d          -2.013  -8.759   1.191  0.00  0.00     0.141 C 
ATOM     19  C20 <0> d          -2.184 -10.136   1.844  0.00  0.00     0.065 C 
ATOM     20  C21 <0> d          -2.422 -10.006   3.348  0.00  0.00     0.137 C 
ATOM     21  C22 <0> d          -3.692  -9.181   3.575  0.00  0.00     0.071 C 
ATOM     22  C25 <0> d          -2.749  -8.660  -2.444  0.00  0.00     0.078 C 
ATOM     23  C26 <0> d          -3.317 -10.679  -1.139  0.00  0.00     0.078 C 
ATOM     24  C27 <0> d          -4.257  -4.280  -0.701  0.00  0.00     0.019 C 
ENDROOT
BRANCH   1  25
ATOM     25  C3  <0> d          -1.271  -2.019  -0.405  0.00  0.00     0.263 C 
ATOM     26  O2  <0> d          -0.764  -1.483   0.552  0.00  0.00    -0.265 OA
BRANCH  25  27
ATOM     27  O1  <0> d          -0.549  -2.227  -1.518  0.00  0.00    -0.322 OA
BRANCH  27  28
ATOM     28  C2  <0> d           0.811  -1.790  -1.500  0.00  0.00     0.174 C 
ATOM     29  C1  <0> d           1.467  -2.110  -2.844  0.00  0.00     0.034 C 
ENDBRANCH  27  28
ENDBRANCH  25  27
ENDBRANCH   1  25
BRANCH   4  30
ATOM     30  O9  <0> d          -1.614  -3.593   1.970  0.00  0.00    -0.389 OA
ATOM     31  H42 <0> d          -1.601  -3.471   2.929  0.00  0.00     0.210 HD
ENDBRANCH   4  30
BRANCH   7  32
ATOM     32  O8  <0> d          -0.654  -6.214   0.977  0.00  0.00    -0.395 OA
ATOM     33  H38 <0> d           0.190  -6.107   0.518  0.00  0.00     0.210 HD
ENDBRANCH   7  32
BRANCH  12  34
ATOM     34  O7  <0> d          -2.271  -7.281   3.695  0.00  0.00    -0.389 OA
ATOM     35  H37 <0> d          -2.353  -7.262   4.658  0.00  0.00     0.210 HD
ENDBRANCH  12  34
BRANCH  20  36
ATOM     36  O5  <0> d          -2.595 -11.307   3.915  0.00  0.00    -0.316 OA
BRANCH  36  37
ATOM     37  C23 <0> d          -1.490 -11.934   4.350  0.00  0.00     0.255 C 
ATOM     38  O6  <0> d          -0.412 -11.396   4.252  0.00  0.00    -0.266 OA
ATOM     39  C24 <0> d          -1.594 -13.307   4.960  0.00  0.00     0.126 C 
ENDBRANCH  36  37
ENDBRANCH  20  36
TORSDOF 8
