REMARK  3 active torsions:
REMARK  status: ('A' for Active; 'I' for Inactive)
REMARK    1  A    between atoms: C5_5  and  N1_7 
REMARK    2  A    between atoms: N2_10  and  C9_13 
REMARK    3  A    between atoms: N3_16  and  C13_18 
ROOT
ATOM      1  C1  <0> d          -0.017   1.373   0.010  0.00  0.00     0.003 A 
ATOM      2  C2  <0> d           1.169   2.097   0.002  0.00  0.00     0.018 A 
ATOM      3  C3  <0> d           2.383   1.433  -0.013  0.00  0.00     0.050 A 
ATOM      4  C4  <0> d           2.412   0.022  -0.021  0.00  0.00     0.074 A 
ATOM      5  C5  <0> d           1.217  -0.694  -0.013  0.00  0.00     0.042 A 
ATOM      6  C6  <0> d           0.002  -0.004   0.002  0.00  0.00     0.030 A 
ATOM      7  C7  <0> d           3.836  -0.353  -0.036  0.00  0.00     0.264 A 
ATOM      8  O1  <0> d           4.270  -1.488  -0.047  0.00  0.00    -0.267 OA
ATOM      9  N2  <0> d           4.577   0.770  -0.037  0.00  0.00    -0.273 N 
ATOM     10  C8  <0> d           3.796   1.865  -0.024  0.00  0.00     0.262 A 
ATOM     11  O2  <0> d           4.186   3.016  -0.021  0.00  0.00    -0.267 OA
ENDROOT
BRANCH   9  12
ATOM     12  C9  <0> d           6.042   0.797  -0.051  0.00  0.00     0.124 C 
ATOM     13  C12 <0> d           6.571   1.604  -1.263  0.00  0.00     0.261 C 
ATOM     14  N3  <0> d           7.913   2.068  -0.850  0.00  0.00    -0.065 N 
ATOM     15  C11 <0> d           7.964   2.108   0.623  0.00  0.00     0.237 C 
ATOM     16  H18 <0> d           8.614   1.431  -1.197  0.00  0.00     0.280 HD
ATOM     17  C10 <0> d           6.594   1.622   1.141  0.00  0.00     0.055 C 
BRANCH  14  18
ATOM     18  C13 <0> d           8.159   3.412  -1.389  0.00  0.00     0.188 A 
ATOM     19  C15 <0> d           8.113   3.583  -2.909  0.00  0.00     0.035 A 
ATOM     20  C14 <0> d           9.454   3.632  -2.174  0.00  0.00     0.035 A 
ENDBRANCH  14  18
ENDBRANCH   9  12
BRANCH   5  21
ATOM     21  N1  <0> d           1.233  -2.081  -0.021  0.00  0.00    -0.398 N 
ATOM     22  H5  <0> d           2.078  -2.556  -0.032  0.00  0.00     0.156 HD
ATOM     23  H6  <0> d           0.398  -2.575  -0.015  0.00  0.00     0.156 HD
ENDBRANCH   5  21
TORSDOF 3
