REMARK  7 active torsions:
REMARK  status: ('A' for Active; 'I' for Inactive)
REMARK    1  A    between atoms: C3_3  and  S1_9 
REMARK    2  A    between atoms: S1_9  and  N3_12 
REMARK    3  A    between atoms: N3_12  and  C7_13 
REMARK    4  A    between atoms: C7_13  and  C8_14 
REMARK    5  A    between atoms: C12_18  and  N4_20 
REMARK       I    between atoms: N4_20  and  C14_21 
REMARK    6  A    between atoms: C14_21  and  C15_23 
REMARK    7  A    between atoms: C15_23  and  N5_24 
ROOT
ATOM      1  C8  <0> d           3.631  -0.754  -4.190  0.00  0.00    -0.038 A 
ATOM      2  C9  <0> d           3.705  -1.087  -5.530  0.00  0.00     0.009 A 
ATOM      3  C10 <0> d           4.892  -0.926  -6.221  0.00  0.00     0.003 A 
ATOM      4  C11 <0> d           6.008  -0.431  -5.574  0.00  0.00     0.029 A 
ATOM      5  C12 <0> d           5.936  -0.096  -4.229  0.00  0.00     0.035 A 
ATOM      6  C13 <0> d           4.741  -0.254  -3.539  0.00  0.00     0.038 A 
ENDROOT
BRANCH   1   7
ATOM      7  C7  <0> d           2.335  -0.931  -3.441  0.00  0.00     0.170 C 
BRANCH   7   8
ATOM      8  N3  <0> d           1.540   0.295  -3.544  0.00  0.00    -0.311 N 
ATOM      9  H10 <0> d           1.955   1.118  -3.846  0.00  0.00     0.172 HD
BRANCH   8  10
ATOM     10  S1  <0> d          -0.067   0.276  -3.146  0.00  0.00     0.263 S 
ATOM     11  O1  <0> d          -0.639  -0.836  -3.821  0.00  0.00    -0.200 OA
ATOM     12  O2  <0> d          -0.545   1.602  -3.322  0.00  0.00    -0.200 OA
BRANCH  10  13
ATOM     13  C3  <0> d          -0.172  -0.072  -1.422  0.00  0.00     0.129 A 
ATOM     14  C2  <0> d          -0.180   0.872  -0.391  0.00  0.00     0.076 A 
ATOM     15  C1  <0> d          -0.097   2.367  -0.561  0.00  0.00     0.074 C 
ATOM     16  N2  <0> d          -0.265   0.234   0.748  0.00  0.00    -0.176 NA
ATOM     17  N1  <0> d          -0.323  -1.139   0.476  0.00  0.00    -0.277 N 
ATOM     18  C4  <0> d          -0.262  -1.301  -0.862  0.00  0.00     0.051 A 
ATOM     19  C5  <0> d          -0.427  -2.211   1.470  0.00  0.00     0.179 C 
ATOM     20  C6  <0> d          -0.288  -2.614  -1.601  0.00  0.00     0.072 C 
ENDBRANCH  10  13
ENDBRANCH   8  10
ENDBRANCH   7   8
ENDBRANCH   1   7
BRANCH   5  21
ATOM     21  N4  <0> d           7.065   0.405  -3.570  0.00  0.00    -0.326 N 
ATOM     22  C14 <0> d           7.949   1.173  -4.238  0.00  0.00     0.248 C 
ATOM     23  O3  <0> d           7.720   1.508  -5.380  0.00  0.00    -0.271 OA
ATOM     24  H17 <0> d           7.211   0.200  -2.634  0.00  0.00     0.169 HD
BRANCH  22  25
ATOM     25  C15 <0> d           9.223   1.614  -3.565  0.00  0.00     0.336 C 
BRANCH  25  26
ATOM     26  N5  <0> d          10.010   2.434  -4.495  0.00  0.00    -0.070 N 
ATOM     27  C16 <0> d           9.280   3.673  -4.794  0.00  0.00     0.269 C 
ATOM     28  C17 <0> d          11.304   2.764  -3.883  0.00  0.00     0.269 C 
ATOM     29  H26 <0> d          10.164   1.919  -5.349  0.00  0.00     0.279 HD
ENDBRANCH  25  26
ENDBRANCH  22  25
ENDBRANCH   5  21
TORSDOF 7
