REMARK  6 active torsions:
REMARK  status: ('A' for Active; 'I' for Inactive)
REMARK    1  A    between atoms: C3_3  and  C6_8 
REMARK       I    between atoms: C6_8  and  N1_10 
REMARK    2  A    between atoms: N1_10  and  C7_11 
REMARK    3  A    between atoms: C10_14  and  C13_17 
REMARK       I    between atoms: C13_17  and  N2_19 
REMARK    4  A    between atoms: N2_19  and  C14_20 
REMARK    5  A    between atoms: C14_20  and  C15_21 
REMARK    6  A    between atoms: C15_21  and  C16_22 
ROOT
ATOM      1  C7  <0> d          -4.756   0.316  -0.125  0.00  0.00     0.035 A 
ATOM      2  C8  <0> d          -4.639   1.698  -0.249  0.00  0.00     0.030 A 
ATOM      3  C9  <0> d          -5.767   2.478  -0.358  0.00  0.00     0.019 A 
ATOM      4  C10 <0> d          -7.031   1.883  -0.345  0.00  0.00     0.032 A 
ATOM      5  C11 <0> d          -7.146   0.495  -0.221  0.00  0.00     0.019 A 
ATOM      6  C12 <0> d          -6.013  -0.280  -0.117  0.00  0.00     0.030 A 
ENDROOT
BRANCH   4   7
ATOM      7  C13 <0> d          -8.243   2.717  -0.462  0.00  0.00     0.251 C 
ATOM      8  O3  <0> d          -8.142   3.924  -0.570  0.00  0.00    -0.268 OA
ATOM      9  N2  <0> d          -9.461   2.141  -0.450  0.00  0.00    -0.357 N 
ATOM     10  H13 <0> d          -9.542   1.178  -0.364  0.00  0.00     0.162 HD
BRANCH   9  11
ATOM     11  C14 <0> d         -10.664   2.969  -0.566  0.00  0.00     0.127 C 
BRANCH  11  12
ATOM     12  C15 <0> d         -11.905   2.075  -0.524  0.00  0.00     0.056 C 
BRANCH  12  13
ATOM     13  C16 <0> d         -13.143   2.927  -0.644  0.00  0.00    -0.048 A 
ATOM     14  C23 <0> d         -13.869   3.637   0.477  0.00  0.00     0.155 A 
ATOM     15  N3  <0> d         -15.001   4.328  -0.152  0.00  0.00    -0.385 N 
ATOM     16  C22 <0> d         -14.980   4.078  -1.439  0.00  0.00     0.038 A 
ATOM     17  H24 <0> d         -15.656   4.875   0.309  0.00  0.00     0.160 HD
ATOM     18  C17 <0> d         -13.832   3.207  -1.774  0.00  0.00    -0.006 A 
ATOM     19  C21 <0> d         -15.836   4.491  -2.497  0.00  0.00     0.030 A 
ATOM     20  C18 <0> d         -13.642   2.817  -3.176  0.00  0.00     0.014 A 
ATOM     21  C19 <0> d         -14.516   3.265  -4.105  0.00  0.00     0.001 A 
ATOM     22  C20 <0> d         -15.597   4.091  -3.764  0.00  0.00     0.002 A 
ENDBRANCH  12  13
ENDBRANCH  11  12
ENDBRANCH   9  11
ENDBRANCH   4   7
BRANCH   1  23
ATOM     23  N1  <0> d          -3.612  -0.471  -0.014  0.00  0.00    -0.322 N 
ATOM     24  C6  <0> d          -3.579  -1.694  -0.580  0.00  0.00     0.265 C 
ATOM     25  O2  <0> d          -4.575  -2.144  -1.116  0.00  0.00    -0.267 OA
ATOM     26  H8  <0> d          -2.840  -0.140   0.470  0.00  0.00     0.169 HD
BRANCH  24  27
ATOM     27  C3  <0> d          -2.344  -2.481  -0.551  0.00  0.00     0.097 C 
ATOM     28  C2  <0> d          -2.314  -3.694  -1.113  0.00  0.00     0.064 C 
ATOM     29  C1  <0> d          -3.576  -4.169  -1.786  0.00  0.00     0.078 C 
ATOM     30  O1  <0> d          -1.269  -4.525  -1.129  0.00  0.00    -0.353 OA
ATOM     31  C5  <0> d           0.065  -4.049  -0.972  0.00  0.00     0.185 C 
ATOM     32  C4  <0> d           0.171  -3.290   0.362  0.00  0.00     0.106 C 
ATOM     33  S1  <0> d          -0.901  -1.823   0.228  0.00  0.00    -0.120 SA
ENDBRANCH  24  27
ENDBRANCH   1  23
TORSDOF 6
