REMARK  7 active torsions:
REMARK  status: ('A' for Active; 'I' for Inactive)
REMARK    1  A    between atoms: C2_2  and  C3_3 
REMARK    2  A    between atoms: C2_2  and  N2_8 
REMARK    3  A    between atoms: C3_3  and  C4_4 
REMARK    4  A    between atoms: C4_4  and  N1_5 
REMARK       I    between atoms: N2_8  and  C7_9 
REMARK    5  A    between atoms: C7_9  and  C8_11 
REMARK       I    between atoms: C8_11  and  N3_13 
REMARK    6  A    between atoms: N3_13  and  C9_14 
REMARK    7  A    between atoms: C12_17  and  S1_20 
ROOT
ATOM      1  N2  <0> d           0.686  -0.485  -1.201  0.00  0.00    -0.349 N 
ATOM      2  C7  <0> d           0.004  -0.616  -2.357  0.00  0.00     0.310 C 
ATOM      3  O1  <0> d          -1.179  -0.348  -2.397  0.00  0.00    -0.262 OA
ATOM      4  H15 <0> d           1.631  -0.700  -1.169  0.00  0.00     0.163 HD
ENDROOT
BRANCH   2   5
ATOM      5  C8  <0> d           0.705  -1.091  -3.587  0.00  0.00     0.314 C 
ATOM      6  O2  <0> d           1.888  -1.359  -3.546  0.00  0.00    -0.262 OA
ATOM      7  N3  <0> d           0.024  -1.221  -4.742  0.00  0.00    -0.318 N 
ATOM      8  H16 <0> d          -0.935  -1.073  -4.760  0.00  0.00     0.169 HD
BRANCH   7   9
ATOM      9  C9  <0> d           0.699  -1.571  -5.917  0.00  0.00     0.052 A 
ATOM     10  C13 <0> d           0.297  -1.052  -7.139  0.00  0.00     0.147 A 
ATOM     11  N4  <0> d           0.932  -1.373  -8.250  0.00  0.00    -0.252 NA
ATOM     12  C12 <0> d           1.962  -2.205  -8.247  0.00  0.00     0.092 A 
ATOM     13  C11 <0> d           2.417  -2.770  -7.058  0.00  0.00     0.041 A 
ATOM     14  C10 <0> d           1.780  -2.452  -5.874  0.00  0.00     0.034 A 
BRANCH  12  15
ATOM     15  S1  <0> d           2.766  -2.602  -9.764  0.00  0.00    -0.115 SA
ATOM     16  C14 <0> d           1.848  -1.654 -11.008  0.00  0.00     0.097 C 
ENDBRANCH  12  15
ENDBRANCH   7   9
ENDBRANCH   2   5
BRANCH   1  17
ATOM     17  C2  <0> d          -0.001  -0.019   0.006  0.00  0.00     0.082 C 
ATOM     18  C1  <0> d          -0.028   1.510   0.019  0.00  0.00     0.032 C 
BRANCH  17  19
ATOM     19  C3  <0> d           0.741  -0.527   1.244  0.00  0.00     0.052 C 
BRANCH  19  20
ATOM     20  C4  <0> d           0.661  -2.054   1.296  0.00  0.00     0.236 C 
BRANCH  20  21
ATOM     21  N1  <0> d           1.374  -2.542   2.484  0.00  0.00    -0.079 N 
ATOM     22  C5  <0> d           0.685  -2.075   3.694  0.00  0.00     0.269 C 
ATOM     23  C6  <0> d           1.400  -4.011   2.471  0.00  0.00     0.269 C 
ATOM     24  H23 <0> d           2.319  -2.189   2.478  0.00  0.00     0.278 HD
ENDBRANCH  20  21
ENDBRANCH  19  20
ENDBRANCH  17  19
ENDBRANCH   1  17
TORSDOF 7
