REMARK  6 active torsions:
REMARK  status: ('A' for Active; 'I' for Inactive)
REMARK    1  A    between atoms: C2_2  and  C3_3 
REMARK    2  A    between atoms: C3_3  and  O1_4 
REMARK    3  A    between atoms: O1_4  and  C4_5 
REMARK    4  A    between atoms: C7_8  and  C10_11 
REMARK    5  A    between atoms: C13_18  and  N4_30 
REMARK    6  A    between atoms: C15_20  and  C16_21 
ROOT
ATOM      1  C10 <0> d          -6.320  -4.536   0.070  0.00  0.00     0.072 A 
ATOM      2  C11 <0> d          -6.667  -5.656   0.748  0.00  0.00     0.040 A 
ATOM      3  C12 <0> d          -8.010  -5.953   0.446  0.00  0.00     0.200 A 
ATOM      4  N1  <0> d          -8.453  -5.049  -0.381  0.00  0.00    -0.148 NA
ATOM      5  N2  <0> d          -7.419  -4.135  -0.637  0.00  0.00    -0.274 N 
ATOM      6  H1  <0> d          -7.474  -3.358  -1.214  0.00  0.00     0.189 HD
ATOM      7  O2  <0> d          -8.649  -7.028   0.982  0.00  0.00    -0.272 OA
ATOM      8  C13 <0> d          -8.054  -7.651   2.019  0.00  0.00     0.161 C 
ATOM      9  C14 <0> d          -6.772  -7.457   2.394  0.00  0.00     0.086 C 
ATOM     10  C15 <0> d          -5.843  -6.507   1.681  0.00  0.00     0.106 C 
ATOM     11  C22 <0> d          -6.273  -8.185   3.521  0.00  0.00     0.100 C 
ATOM     12  N3  <0> d          -5.876  -8.763   4.415  0.00  0.00    -0.191 NA
ENDROOT
BRANCH   8  13
ATOM     13  N4  <0> d          -8.804  -8.544   2.743  0.00  0.00    -0.379 N 
ATOM     14  H18 <0> d          -9.729  -8.709   2.501  0.00  0.00     0.158 HD
ATOM     15  H19 <0> d          -8.409  -9.011   3.496  0.00  0.00     0.158 HD
ENDBRANCH   8  13
BRANCH  10  16
ATOM     16  C16 <0> d          -4.825  -7.289   0.891  0.00  0.00    -0.041 A 
ATOM     17  C21 <0> d          -3.481  -7.170   1.188  0.00  0.00     0.050 A 
ATOM     18  C20 <0> d          -2.547  -7.894   0.466  0.00  0.00     0.117 A 
ATOM     19  C19 <0> d          -2.960  -8.726  -0.560  0.00  0.00     0.042 A 
ATOM     20  F1  <0> d          -1.233  -7.784   0.760  0.00  0.00    -0.206 F 
ATOM     21  C18 <0> d          -4.304  -8.838  -0.860  0.00  0.00     0.004 A 
ATOM     22  C17 <0> d          -5.237  -8.120  -0.134  0.00  0.00     0.008 A 
ENDBRANCH  10  16
BRANCH   1  23
ATOM     23  C7  <0> d          -5.001  -3.867   0.095  0.00  0.00    -0.007 A 
ATOM     24  C6  <0> d          -4.395  -3.471  -1.098  0.00  0.00     0.016 A 
ATOM     25  C5  <0> d          -3.165  -2.848  -1.071  0.00  0.00     0.037 A 
ATOM     26  C4  <0> d          -2.530  -2.614   0.142  0.00  0.00     0.068 A 
ATOM     27  C9  <0> d          -3.128  -3.011   1.330  0.00  0.00     0.037 A 
ATOM     28  C8  <0> d          -4.359  -3.630   1.311  0.00  0.00     0.016 A 
BRANCH  26  29
ATOM     29  O1  <0> d          -1.319  -1.999   0.165  0.00  0.00    -0.351 OA
BRANCH  29  30
ATOM     30  C3  <0> d          -0.761  -1.617  -1.094  0.00  0.00     0.175 C 
BRANCH  30  31
ATOM     31  C2  <0> d           0.595  -0.945  -0.869  0.00  0.00     0.022 C 
ATOM     32  C1  <0> d           1.191  -0.535  -2.217  0.00  0.00     0.007 C 
ENDBRANCH  30  31
ENDBRANCH  29  30
ENDBRANCH  26  29
ENDBRANCH   1  23
TORSDOF 6
