REMARK  6 active torsions:
REMARK  status: ('A' for Active; 'I' for Inactive)
REMARK    1  A    between atoms: C2_2  and  C3_3 
REMARK    2  A    between atoms: C2_2  and  N4_23 
REMARK    3  A    between atoms: C3_3  and  N1_4 
REMARK       I    between atoms: N1_4  and  C4_5 
REMARK    4  A    between atoms: C4_5  and  C5_7 
REMARK    5  A    between atoms: C6_8  and  N3_19 
REMARK    6  A    between atoms: C9_11  and  O2_17 
REMARK       I    between atoms: N3_19  and  C14_20 
ROOT
ATOM      1  C5  <0> d           6.699   0.270  -0.654  0.00  0.00     0.129 A 
ATOM      2  C6  <0> d           7.990   0.606  -1.001  0.00  0.00     0.080 A 
ATOM      3  C7  <0> d           8.274  -0.072  -2.268  0.00  0.00     0.022 A 
ATOM      4  C8  <0> d           9.395  -0.119  -3.103  0.00  0.00     0.053 A 
ATOM      5  C9  <0> d           9.353  -0.868  -4.261  0.00  0.00     0.069 A 
ATOM      6  C10 <0> d           8.201  -1.576  -4.598  0.00  0.00     0.039 A 
ATOM      7  C11 <0> d           7.092  -1.538  -3.784  0.00  0.00     0.033 A 
ATOM      8  C12 <0> d           7.112  -0.788  -2.611  0.00  0.00     0.045 A 
ATOM      9  N2  <0> d           6.177  -0.573  -1.623  0.00  0.00    -0.349 N 
ATOM     10  H2  <0> d           5.152  -0.959  -1.522  0.00  0.00     0.166 HD
ENDROOT
BRANCH   1  11
ATOM     11  C4  <0> d           5.995   0.725   0.545  0.00  0.00     0.270 C 
ATOM     12  N1  <0> d           4.695   0.418   0.720  0.00  0.00    -0.354 N 
ATOM     13  H8  <0> d           4.162  -0.173  -0.039  0.00  0.00     0.162 HD
ATOM     14  O1  <0> d           6.585   1.379   1.385  0.00  0.00    -0.266 OA
BRANCH  12  15
ATOM     15  C3  <0> d           3.990   0.874   1.922  0.00  0.00     0.158 C 
BRANCH  15  16
ATOM     16  C2  <0> d           2.538   0.395   1.873  0.00  0.00     0.236 C 
ATOM     17  C1  <0> d           1.770   0.974   3.064  0.00  0.00     0.044 C 
BRANCH  16  18
ATOM     18  N4  <0> d           1.915   0.847   0.622  0.00  0.00     0.098 N 
ATOM     19  C19 <0> d           2.008   2.308   0.485  0.00  0.00     0.299 C 
ATOM     20  C18 <0> d           1.401   2.729  -0.856  0.00  0.00     0.198 C 
ATOM     21  O4  <0> d           0.051   2.263  -0.930  0.00  0.00    -0.388 OA
ATOM     22  C17 <0> d          -0.076   0.844  -0.801  0.00  0.00     0.198 C 
ATOM     23  C16 <0> d           0.515   0.405   0.541  0.00  0.00     0.299 C 
ENDBRANCH  16  18
ENDBRANCH  15  16
ENDBRANCH  12  15
ENDBRANCH   1  11
BRANCH   2  24
ATOM     24  N3  <0> d           8.855   1.429  -0.286  0.00  0.00    -0.325 N 
ATOM     25  C14 <0> d           9.789   2.151  -0.936  0.00  0.00     0.218 C 
ATOM     26  O3  <0> d           9.820   2.152  -2.149  0.00  0.00    -0.274 OA
ATOM     27  C15 <0> d          10.795   2.958  -0.157  0.00  0.00     0.117 C 
ATOM     28  H15 <0> d           8.777   1.490   0.809  0.00  0.00     0.169 HD
ENDBRANCH   2  24
BRANCH   5  29
ATOM     29  O2  <0> d          10.440  -0.916  -5.077  0.00  0.00    -0.356 OA
ATOM     30  C13 <0> d          10.329  -1.711  -6.259  0.00  0.00     0.210 C 
ENDBRANCH   5  29
TORSDOF 6
