REMARK  3 active torsions:
REMARK  status: ('A' for Active; 'I' for Inactive)
REMARK    1  A    between atoms: C4_4  and  C7_7 
REMARK    2  A    between atoms: C11_11  and  C18_20 
REMARK    3  A    between atoms: C21_23  and  C24_26 
ROOT
ATOM      1  C7  <0> d          -4.531  -0.472   5.898  0.00  0.00     0.031 C 
ATOM      2  C8  <0> d          -5.448   0.741   6.048  0.00  0.00     0.067 C 
ATOM      3  C9  <0> d          -4.814   1.956   5.393  0.00  0.00     0.022 C 
ATOM      4  C10 <0> d          -3.477   2.099   5.369  0.00  0.00     0.037 C 
ATOM      5  C11 <0> d          -2.722   3.258   4.764  0.00  0.00     0.154 C 
ATOM      6  N1  <0> d          -3.545   4.394   4.408  0.00  0.00    -0.375 N 
ATOM      7  C12 <0> d          -4.515   4.293   3.412  0.00  0.00     0.055 A 
ATOM      8  C13 <0> d          -4.388   4.968   2.208  0.00  0.00     0.031 A 
ATOM      9  C14 <0> d          -5.316   4.748   1.205  0.00  0.00     0.002 A 
ATOM     10  C15 <0> d          -6.361   3.863   1.399  0.00  0.00     0.002 A 
ATOM     11  C16 <0> d          -6.503   3.205   2.609  0.00  0.00     0.032 A 
ATOM     12  C17 <0> d          -5.586   3.438   3.620  0.00  0.00     0.059 A 
ATOM     13  N2  <0> d          -5.695   2.848   4.874  0.00  0.00    -0.357 N 
ATOM     14  C25 <0> d          -2.645   1.109   5.943  0.00  0.00     0.160 C 
ATOM     15  O1  <0> d          -1.441   1.273   5.924  0.00  0.00    -0.293 OA
ATOM     16  C26 <0> d          -3.196  -0.134   6.573  0.00  0.00     0.093 C 
ATOM     17  H10 <0> d          -3.420   5.238   4.870  0.00  0.00     0.160 HD
ATOM     18  H15 <0> d          -6.459   3.093   5.419  0.00  0.00     0.166 HD
ENDROOT
BRANCH   5  19
ATOM     19  C18 <0> d          -2.016   2.773   3.524  0.00  0.00    -0.031 A 
ATOM     20  C23 <0> d          -0.635   2.791   3.463  0.00  0.00     0.010 A 
ATOM     21  C22 <0> d           0.012   2.341   2.327  0.00  0.00     0.017 A 
ATOM     22  C21 <0> d          -0.722   1.883   1.249  0.00  0.00     0.047 A 
ATOM     23  C20 <0> d          -2.103   1.866   1.310  0.00  0.00     0.017 A 
ATOM     24  C19 <0> d          -2.750   2.310   2.448  0.00  0.00     0.010 A 
BRANCH  22  25
ATOM     25  C24 <0> d          -0.017   1.398   0.008  0.00  0.00     0.417 C 
ATOM     26  F1  <0> d           0.164   2.469  -0.874  0.00  0.00    -0.166 F 
ATOM     27  F2  <0> d          -0.788   0.409  -0.610  0.00  0.00    -0.166 F 
ATOM     28  F3  <0> d           1.229   0.867   0.358  0.00  0.00    -0.166 F 
ENDBRANCH  22  25
ENDBRANCH   5  19
BRANCH   1  29
ATOM     29  C4  <0> d          -5.154  -1.669   6.568  0.00  0.00    -0.053 A 
ATOM     30  C3  <0> d          -5.444  -2.801   5.830  0.00  0.00     0.007 A 
ATOM     31  C2  <0> d          -6.015  -3.900   6.445  0.00  0.00     0.001 A 
ATOM     32  C1  <0> d          -6.297  -3.866   7.798  0.00  0.00     0.000 A 
ATOM     33  C6  <0> d          -6.006  -2.734   8.536  0.00  0.00     0.001 A 
ATOM     34  C5  <0> d          -5.431  -1.637   7.922  0.00  0.00     0.007 A 
ENDBRANCH   1  29
TORSDOF 3
