REMARK  3 active torsions:
REMARK  status: ('A' for Active; 'I' for Inactive)
REMARK    1  A    between atoms: C5_5  and  N3_11 
REMARK    2  A    between atoms: N3_11  and  C8_12 
REMARK    3  A    between atoms: C8_12  and  C10_14 
REMARK       I    between atoms: C10_14  and  N4_16 
ROOT
ATOM      1  N3  <0> d          -3.196  -3.041  -0.154  0.00  0.00    -0.361 N 
ATOM      2  H7  <0> d          -3.616  -2.169  -0.216  0.00  0.00     0.162 HD
ENDROOT
BRANCH   1   3
ATOM      3  C5  <0> d          -1.818  -3.150  -0.206  0.00  0.00     0.138 A 
ATOM      4  C4  <0> d          -1.009  -1.989  -0.350  0.00  0.00     0.046 A 
ATOM      5  C3  <0> d          -1.398  -0.594  -0.463  0.00  0.00     0.032 A 
ATOM      6  C7  <0> d           0.383  -2.222  -0.391  0.00  0.00     0.113 A 
ATOM      7  C2  <0> d          -0.447   0.343  -0.593  0.00  0.00    -0.018 A 
ATOM      8  C1  <0> d          -0.618   1.834  -0.725  0.00  0.00     0.056 C 
ATOM      9  S1  <0> d           1.068  -0.598  -0.581  0.00  0.00    -0.074 SA
ATOM     10  N2  <0> d           0.879  -3.441  -0.300  0.00  0.00    -0.234 NA
ATOM     11  C6  <0> d           0.077  -4.479  -0.167  0.00  0.00     0.236 A 
ATOM     12  N1  <0> d          -1.236  -4.335  -0.121  0.00  0.00    -0.224 NA
ENDBRANCH   1   3
BRANCH   1  13
ATOM     13  C8  <0> d          -4.020  -4.243  -0.005  0.00  0.00     0.171 C 
ATOM     14  C9  <0> d          -4.268  -4.865  -1.381  0.00  0.00     0.042 C 
BRANCH  13  15
ATOM     15  C10 <0> d          -5.339  -3.873   0.624  0.00  0.00     0.242 C 
ATOM     16  O1  <0> d          -5.710  -2.719   0.619  0.00  0.00    -0.271 OA
ATOM     17  N4  <0> d          -6.105  -4.825   1.192  0.00  0.00    -0.347 N 
ATOM     18  C14 <0> d          -7.444  -4.507   1.713  0.00  0.00     0.153 C 
ATOM     19  C11 <0> d          -5.625  -6.210   1.313  0.00  0.00     0.153 C 
ATOM     20  C13 <0> d          -7.554  -5.045   3.139  0.00  0.00     0.252 C 
ATOM     21  N5  <0> d          -7.223  -6.475   3.151  0.00  0.00    -0.072 N 
ATOM     22  C12 <0> d          -5.819  -6.667   2.763  0.00  0.00     0.252 C 
ATOM     23  H15 <0> d          -7.820  -6.963   2.501  0.00  0.00     0.277 HD
ATOM     24  H20 <0> d          -7.367  -6.845   4.079  0.00  0.00     0.277 HD
ENDBRANCH  13  15
ENDBRANCH   1  13
TORSDOF 3
