REMARK  4 active torsions:
REMARK  status: ('A' for Active; 'I' for Inactive)
REMARK    1  A    between atoms: C8_8  and  C10_13 
REMARK    2  A    between atoms: C11_14  and  C12_15 
REMARK       I    between atoms: C12_15  and  N2_17 
REMARK    3  A    between atoms: N2_17  and  C13_18 
REMARK    4  A    between atoms: C13_18  and  C14_19 
ROOT
ATOM      1  C10 <0> d           2.546  -4.214  -0.043  0.00  0.00     0.022 C 
ATOM      2  C11 <0> d           3.741  -4.838  -0.160  0.00  0.00     0.075 C 
ENDROOT
BRANCH   1   3
ATOM      3  C8  <0> d           2.482  -2.749  -0.037  0.00  0.00     0.033 A 
ATOM      4  C7  <0> d           1.258  -2.102  -0.037  0.00  0.00     0.030 A 
ATOM      5  C5  <0> d           1.228  -0.687  -0.030  0.00  0.00    -0.008 A 
ATOM      6  C4  <0> d           2.432   0.044  -0.024  0.00  0.00     0.045 A 
ATOM      7  C6  <0> d           0.002  -0.004  -0.030  0.00  0.00     0.014 A 
ATOM      8  C3  <0> d           2.385   1.436  -0.018  0.00  0.00     0.030 A 
ATOM      9  N1  <0> d           3.649  -0.606  -0.025  0.00  0.00    -0.322 N 
ATOM     10  C2  <0> d           1.169   2.083  -0.017  0.00  0.00     0.002 A 
ATOM     11  C1  <0> d          -0.017   1.360  -0.023  0.00  0.00     0.001 A 
ATOM     12  C9  <0> d           3.715  -1.951  -0.031  0.00  0.00     0.256 A 
ATOM     13  H1  <0> d           4.468  -0.087  -0.021  0.00  0.00     0.169 HD
ATOM     14  O1  <0> d           4.799  -2.506  -0.031  0.00  0.00    -0.267 OA
ENDBRANCH   1   3
BRANCH   2  15
ATOM     15  C12 <0> d           3.796  -6.293  -0.277  0.00  0.00     0.241 C 
ATOM     16  O2  <0> d           2.768  -6.944  -0.270  0.00  0.00    -0.269 OA
ATOM     17  N2  <0> d           4.987  -6.915  -0.394  0.00  0.00    -0.353 N 
ATOM     18  H9  <0> d           5.806  -6.396  -0.400  0.00  0.00     0.163 HD
BRANCH  17  19
ATOM     19  C13 <0> d           5.042  -8.374  -0.511  0.00  0.00     0.161 C 
BRANCH  19  20
ATOM     20  C14 <0> d           6.479  -8.814  -0.627  0.00  0.00    -0.038 A 
ATOM     21  C18 <0> d           7.223  -9.114   0.503  0.00  0.00     0.028 A 
ATOM     22  C17 <0> d           8.536  -9.521   0.357  0.00  0.00     0.116 A 
ATOM     23  N3  <0> d           9.085  -9.613  -0.838  0.00  0.00    -0.273 NA
ATOM     24  C16 <0> d           8.409  -9.329  -1.935  0.00  0.00     0.116 A 
ATOM     25  C15 <0> d           7.090  -8.923  -1.867  0.00  0.00     0.028 A 
ENDBRANCH  19  20
ENDBRANCH  17  19
ENDBRANCH   2  15
TORSDOF 4
