REMARK  4 active torsions:
REMARK  status: ('A' for Active; 'I' for Inactive)
REMARK    1  A    between atoms: C5_5  and  S1_8 
REMARK    2  A    between atoms: C6_6  and  N1_7 
REMARK    3  A    between atoms: S1_8  and  N2_11 
REMARK    4  A    between atoms: N2_11  and  C7_12 
ROOT
ATOM      1  S1  <0> d           1.014  -2.278  -0.991  0.00  0.00     0.262 S 
ATOM      2  O1  <0> d          -0.355  -2.530  -1.275  0.00  0.00    -0.200 OA
ATOM      3  O2  <0> d           2.037  -2.447  -1.962  0.00  0.00    -0.200 OA
ENDROOT
BRANCH   1   4
ATOM      4  C5  <0> d           1.114  -0.608  -0.439  0.00  0.00     0.122 A 
ATOM      5  C4  <0> d           2.328   0.052  -0.450  0.00  0.00     0.037 A 
ATOM      6  C3  <0> d           2.408   1.364  -0.018  0.00  0.00     0.040 A 
ATOM      7 Br1  <0> d           3.882  -0.838  -1.058  0.00  0.00    -0.049 Br
ATOM      8  C2  <0> d           1.273   2.019   0.427  0.00  0.00     0.014 A 
ATOM      9  C1  <0> d           0.056   1.364   0.440  0.00  0.00     0.049 A 
ATOM     10 Br2  <0> d           1.387   3.812   1.017  0.00  0.00    -0.051 Br
ATOM     11  C6  <0> d          -0.027   0.047   0.006  0.00  0.00     0.051 A 
BRANCH  11  12
ATOM     12  N1  <0> d          -1.255  -0.618   0.018  0.00  0.00    -0.398 N 
ATOM     13  H5  <0> d          -2.080  -0.114  -0.059  0.00  0.00     0.156 HD
ATOM     14  H6  <0> d          -1.283  -1.583   0.104  0.00  0.00     0.156 HD
ENDBRANCH  11  12
ENDBRANCH   1   4
BRANCH   1  15
ATOM     15  N2  <0> d           1.416  -3.243   0.293  0.00  0.00    -0.308 N 
ATOM     16  H7  <0> d           2.218  -3.789   0.258  0.00  0.00     0.172 HD
BRANCH  15  17
ATOM     17  C7  <0> d           0.562  -3.273   1.483  0.00  0.00     0.125 C 
ATOM     18  C10 <0> d           0.577  -4.673   2.123  0.00  0.00     0.211 C 
ATOM     19  N3  <0> d           0.501  -4.468   3.587  0.00  0.00    -0.065 N 
ATOM     20  C11 <0> d           1.968  -5.309   1.877  0.00  0.00     0.037 C 
ATOM     21  C9  <0> d           0.794  -3.064   3.899  0.00  0.00     0.237 C 
ATOM     22  C13 <0> d           1.471  -5.355   4.248  0.00  0.00     0.235 C 
ATOM     23  H18 <0> d          -0.432  -4.695   3.897  0.00  0.00     0.280 HD
ATOM     24  C8  <0> d           1.131  -2.349   2.580  0.00  0.00     0.055 C 
ATOM     25  C12 <0> d           2.147  -6.194   3.138  0.00  0.00     0.030 C 
ENDBRANCH  15  17
ENDBRANCH   1  15
TORSDOF 4
