REMARK  9 active torsions:
REMARK  status: ('A' for Active; 'I' for Inactive)
REMARK    1  A    between atoms: C6_6  and  C7_7 
REMARK    2  A    between atoms: C8_8  and  C9_9 
REMARK    3  A    between atoms: C10_10  and  C14_19 
REMARK    4  A    between atoms: N3_13  and  C11_14 
REMARK    5  A    between atoms: C11_14  and  C12_15 
REMARK    6  A    between atoms: C12_15  and  C13_16 
REMARK    7  A    between atoms: C12_15  and  O2_18 
REMARK    8  A    between atoms: C13_16  and  O1_17 
REMARK    9  A    between atoms: C14_19  and  N4_20 
ROOT
ATOM      1  C9  <0> d          -2.438  -2.946  -0.021  0.00  0.00     0.082 A 
ATOM      2  C10 <0> d          -3.560  -2.832   0.779  0.00  0.00     0.112 A 
ATOM      3  N1  <0> d          -4.386  -3.809   0.401  0.00  0.00    -0.133 NA
ATOM      4  N2  <0> d          -3.845  -4.484  -0.549  0.00  0.00    -0.065 NA
ATOM      5  N3  <0> d          -2.686  -4.012  -0.845  0.00  0.00    -0.247 N 
ENDROOT
BRANCH   1   6
ATOM      6  C8  <0> d          -1.238  -2.101   0.005  0.00  0.00     0.034 C 
ATOM      7  C7  <0> d          -0.535  -1.964   1.144  0.00  0.00     0.014 C 
BRANCH   7   8
ATOM      8  C6  <0> d           0.731  -1.211   1.142  0.00  0.00    -0.036 A 
ATOM      9  C1  <0> d           1.463  -1.067   2.324  0.00  0.00     0.013 A 
ATOM     10  C2  <0> d           2.648  -0.361   2.315  0.00  0.00     0.024 A 
ATOM     11  C3  <0> d           3.112   0.204   1.139  0.00  0.00     0.034 A 
ATOM     12  C4  <0> d           2.392   0.065  -0.036  0.00  0.00     0.024 A 
ATOM     13 Cl1  <0> d           4.604   1.091   1.137  0.00  0.00    -0.084 Cl
ATOM     14  C5  <0> d           1.205  -0.638  -0.041  0.00  0.00     0.013 A 
ENDBRANCH   7   8
ENDBRANCH   1   6
BRANCH   5  15
ATOM     15  C11 <0> d          -1.786  -4.525  -1.881  0.00  0.00     0.187 C 
BRANCH  15  16
ATOM     16  C12 <0> d          -0.869  -5.591  -1.277  0.00  0.00     0.161 C 
BRANCH  16  17
ATOM     17  C13 <0> d           0.152  -6.038  -2.325  0.00  0.00     0.197 C 
BRANCH  17  18
ATOM     18  O1  <0> d           1.081  -6.946  -1.729  0.00  0.00    -0.398 OA
ATOM     19  H12 <0> d           1.759  -7.271  -2.337  0.00  0.00     0.209 HD
ENDBRANCH  17  18
ENDBRANCH  16  17
BRANCH  16  20
ATOM     20  O2  <0> d          -1.650  -6.714  -0.865  0.00  0.00    -0.392 OA
ATOM     21  H13 <0> d          -2.143  -7.135  -1.582  0.00  0.00     0.210 HD
ENDBRANCH  16  20
ENDBRANCH  15  16
ENDBRANCH   5  15
BRANCH   2  22
ATOM     22  C14 <0> d          -3.801  -1.809   1.859  0.00  0.00     0.292 C 
BRANCH  22  23
ATOM     23  N4  <0> d          -4.560  -0.680   1.305  0.00  0.00    -0.074 N 
ATOM     24  H16 <0> d          -4.002  -0.209   0.609  0.00  0.00     0.274 HD
ATOM     25  H17 <0> d          -5.409  -1.022   0.881  0.00  0.00     0.274 HD
ATOM     26  H18 <0> d          -4.791  -0.035   2.046  0.00  0.00     0.274 HD
ENDBRANCH  22  23
ENDBRANCH   2  22
TORSDOF 9
