REMARK  8 active torsions:
REMARK  status: ('A' for Active; 'I' for Inactive)
REMARK    1  A    between atoms: C4_4  and  C7_8 
REMARK    2  A    between atoms: C7_8  and  C8_10 
REMARK    3  A    between atoms: C8_10  and  C9_11 
REMARK    4  A    between atoms: C9_11  and  C10_12 
REMARK    5  A    between atoms: C10_12  and  O3_14 
REMARK    6  A    between atoms: O3_14  and  C11_15 
REMARK    7  A    between atoms: C11_15  and  C12_16 
REMARK    8  A    between atoms: C11_15  and  C15_19 
REMARK       I    between atoms: C15_19  and  N1_21 
REMARK       I    between atoms: N1_21  and  C16_22 
REMARK       I    between atoms: C16_22  and  N2_24 
ROOT
ATOM      1  O3  <0> d           1.373   1.575   2.496  0.00  0.00    -0.306 OA
ENDROOT
BRANCH   1   2
ATOM      2  C10 <0> d           1.592   2.754   3.098  0.00  0.00     0.260 C 
ATOM      3  O2  <0> d           0.676   3.347   3.617  0.00  0.00    -0.265 OA
BRANCH   2   4
ATOM      4  C9  <0> d           2.981   3.339   3.128  0.00  0.00     0.118 C 
BRANCH   4   5
ATOM      5  C8  <0> d           2.955   4.678   3.869  0.00  0.00     0.093 C 
BRANCH   5   6
ATOM      6  C7  <0> d           4.344   5.262   3.898  0.00  0.00     0.161 C 
ATOM      7  O1  <0> d           5.264   4.667   3.377  0.00  0.00    -0.292 OA
BRANCH   6   8
ATOM      8  C4  <0> d           4.582   6.548   4.555  0.00  0.00     0.023 A 
ATOM      9  C3  <0> d           3.512   7.288   5.179  0.00  0.00     0.030 A 
ATOM     10  C2  <0> d           3.833   8.458   5.761  0.00  0.00    -0.020 A 
ATOM     11  C1  <0> d           2.929   9.425   6.482  0.00  0.00     0.056 C 
ATOM     12  S1  <0> d           5.585   8.592   5.466  0.00  0.00    -0.099 SA
ATOM     13  C5  <0> d           5.845   7.115   4.601  0.00  0.00    -0.007 A 
ATOM     14  C6  <0> d           7.133   6.577   4.034  0.00  0.00     0.057 C 
ENDBRANCH   6   8
ENDBRANCH   5   6
ENDBRANCH   4   5
ENDBRANCH   2   4
ENDBRANCH   1   2
BRANCH   1  15
ATOM     15  C11 <0> d           0.011   1.072   2.506  0.00  0.00     0.227 C 
BRANCH  15  16
ATOM     16  C12 <0> d          -0.729   1.579   1.267  0.00  0.00     0.016 C 
ATOM     17  C13 <0> d          -0.013   1.086   0.008  0.00  0.00     0.012 C 
ATOM     18  C14 <0> d          -0.750   3.109   1.275  0.00  0.00     0.012 C 
ENDBRANCH  15  16
BRANCH  15  19
ATOM     19  C15 <0> d           0.032  -0.434   2.498  0.00  0.00     0.255 C 
ATOM     20  O4  <0> d           1.085  -1.026   2.393  0.00  0.00    -0.270 OA
ATOM     21  N1  <0> d          -1.121  -1.125   2.607  0.00  0.00    -0.277 N 
ATOM     22  C16 <0> d          -1.103  -2.472   2.600  0.00  0.00     0.320 C 
ATOM     23  H20 <0> d          -1.964  -0.651   2.691  0.00  0.00     0.173 HD
ATOM     24  O5  <0> d          -0.047  -3.065   2.495  0.00  0.00    -0.247 OA
ATOM     25  N2  <0> d          -2.255  -3.162   2.709  0.00  0.00    -0.352 N 
ATOM     26  H21 <0> d          -3.098  -2.689   2.792  0.00  0.00     0.160 HD
ATOM     27  H22 <0> d          -2.242  -4.132   2.703  0.00  0.00     0.160 HD
ENDBRANCH  15  19
ENDBRANCH   1  15
TORSDOF 8
