REMARK  6 active torsions:
REMARK  status: ('A' for Active; 'I' for Inactive)
REMARK    1  A    between atoms: C6_6  and  C7_7 
REMARK    2  A    between atoms: C9_9  and  N1_11 
REMARK    3  A    between atoms: N1_11  and  C11_12 
REMARK    4  A    between atoms: C11_12  and  C12_13 
REMARK    5  A    between atoms: C12_13  and  C13_14 
REMARK    6  A    between atoms: C13_14  and  N2_15 
ROOT
ATOM      1  N1  <0> d          -1.632  -4.113   0.531  0.00  0.00    -0.071 N 
ATOM      2  H11 <0> d          -1.665  -4.648  -0.325  0.00  0.00     0.277 HD
ATOM      3  H28 <0> d          -0.688  -4.110   0.888  0.00  0.00     0.277 HD
ENDROOT
BRANCH   1   4
ATOM      4  C9  <0> d          -2.060  -2.734   0.263  0.00  0.00     0.187 C 
ATOM      5  C8  <0> d          -1.258  -2.046  -0.855  0.00  0.00     0.042 C 
ATOM      6  C7  <0> d          -1.293  -0.775   0.010  0.00  0.00     0.022 C 
ATOM      7  C10 <0> d          -1.450  -1.702   1.227  0.00  0.00     0.042 C 
BRANCH   6   8
ATOM      8  C6  <0> d           0.002  -0.004   0.002  0.00  0.00    -0.054 A 
ATOM      9  C1  <0> d          -0.017   1.378   0.010  0.00  0.00     0.009 A 
ATOM     10  C2  <0> d           1.171   2.086   0.002  0.00  0.00     0.019 A 
ATOM     11  C3  <0> d           2.378   1.411  -0.013  0.00  0.00     0.011 A 
ATOM     12  C4  <0> d           2.396   0.027  -0.021  0.00  0.00     0.019 A 
ATOM     13 Br1  <0> d           4.003   2.378  -0.024  0.00  0.00    -0.051 Br
ATOM     14  C5  <0> d           1.208  -0.679  -0.013  0.00  0.00     0.009 A 
ENDBRANCH   6   8
ENDBRANCH   1   4
BRANCH   1  15
ATOM     15  C11 <0> d          -2.529  -4.721   1.523  0.00  0.00     0.234 C 
BRANCH  15  16
ATOM     16  C12 <0> d          -2.083  -6.157   1.802  0.00  0.00     0.055 C 
BRANCH  16  17
ATOM     17  C13 <0> d          -3.017  -6.790   2.836  0.00  0.00     0.236 C 
BRANCH  17  18
ATOM     18  N2  <0> d          -2.589  -8.169   3.103  0.00  0.00    -0.071 N 
ATOM     19  C18 <0> d          -3.410  -8.735   4.180  0.00  0.00     0.235 C 
ATOM     20  C17 <0> d          -2.916 -10.143   4.518  0.00  0.00     0.028 C 
ATOM     21  C16 <0> d          -3.024 -11.028   3.273  0.00  0.00     0.003 C 
ATOM     22  C15 <0> d          -2.224 -10.390   2.134  0.00  0.00     0.028 C 
ATOM     23  C14 <0> d          -2.744  -8.973   1.884  0.00  0.00     0.235 C 
ATOM     24  H29 <0> d          -1.620  -8.172   3.384  0.00  0.00     0.279 HD
ENDBRANCH  17  18
ENDBRANCH  16  17
ENDBRANCH  15  16
ENDBRANCH   1  15
TORSDOF 6
