REMARK  5 active torsions:
REMARK  status: ('A' for Active; 'I' for Inactive)
REMARK    1  A    between atoms: C4_4  and  N1_7 
REMARK    2  A    between atoms: C7_8  and  N3_17 
REMARK       I    between atoms: N3_17  and  C12_18 
REMARK    3  A    between atoms: C12_18  and  C13_20 
REMARK       I    between atoms: C13_20  and  N4_22 
REMARK    4  A    between atoms: N4_22  and  C14_23 
REMARK    5  A    between atoms: C14_23  and  C15_24 
ROOT
ATOM      1  N1  <0> d          -4.893  -0.584   0.217  0.00  0.00    -0.217 N 
ATOM      2  C7  <0> d          -4.820   0.765   0.340  0.00  0.00     0.141 A 
ATOM      3  C8  <0> d          -6.104   1.259   0.275  0.00  0.00     0.029 A 
ATOM      4  C9  <0> d          -6.962   0.187   0.102  0.00  0.00     0.080 A 
ATOM      5  N2  <0> d          -6.239  -0.924   0.070  0.00  0.00    -0.169 NA
ATOM      6  C10 <0> d          -8.452   0.509   0.001  0.00  0.00     0.202 C 
ATOM      7  S1  <0> d          -8.424   2.319  -0.327  0.00  0.00     0.154 S 
ATOM      8  O1  <0> d          -8.432   2.544  -1.730  0.00  0.00    -0.227 OA
ATOM      9  O2  <0> d          -9.387   2.962   0.497  0.00  0.00    -0.227 OA
ATOM     10  C11 <0> d          -6.739   2.647   0.334  0.00  0.00     0.185 C 
ENDROOT
BRANCH   2  11
ATOM     11  N3  <0> d          -3.658   1.514   0.506  0.00  0.00    -0.303 N 
ATOM     12  C12 <0> d          -3.704   2.695   1.152  0.00  0.00     0.315 C 
ATOM     13  O3  <0> d          -4.770   3.140   1.528  0.00  0.00    -0.262 OA
ATOM     14  H11 <0> d          -2.815   1.184   0.157  0.00  0.00     0.171 HD
BRANCH  12  15
ATOM     15  C13 <0> d          -2.446   3.458   1.405  0.00  0.00     0.309 C 
ATOM     16  O4  <0> d          -1.381   3.013   1.029  0.00  0.00    -0.262 OA
ATOM     17  N4  <0> d          -2.493   4.640   2.051  0.00  0.00    -0.350 N 
ATOM     18  H12 <0> d          -3.344   4.995   2.352  0.00  0.00     0.162 HD
BRANCH  17  19
ATOM     19  C14 <0> d          -1.257   5.385   2.304  0.00  0.00     0.155 C 
BRANCH  19  20
ATOM     20  C15 <0> d          -1.586   6.678   3.053  0.00  0.00     0.139 C 
ATOM     21  O5  <0> d          -2.434   7.510   2.243  0.00  0.00    -0.384 OA
ATOM     22  C18 <0> d          -2.075   8.879   2.526  0.00  0.00     0.168 C 
ATOM     23  C17 <0> d          -0.530   8.834   2.633  0.00  0.00     0.029 C 
ATOM     24  C16 <0> d          -0.292   7.470   3.325  0.00  0.00     0.035 C 
ENDBRANCH  19  20
ENDBRANCH  17  19
ENDBRANCH  12  15
ENDBRANCH   2  11
BRANCH   1  25
ATOM     25  C4  <0> d          -3.813  -1.476   0.236  0.00  0.00     0.060 A 
ATOM     26  C3  <0> d          -3.915  -2.678   0.924  0.00  0.00     0.031 A 
ATOM     27  C2  <0> d          -2.848  -3.555   0.941  0.00  0.00     0.002 A 
ATOM     28  C1  <0> d          -1.679  -3.237   0.273  0.00  0.00     0.000 A 
ATOM     29  C6  <0> d          -1.575  -2.041  -0.413  0.00  0.00     0.002 A 
ATOM     30  C5  <0> d          -2.640  -1.162  -0.438  0.00  0.00     0.031 A 
ENDBRANCH   1  25
TORSDOF 5
