REMARK  8 active torsions:
REMARK  status: ('A' for Active; 'I' for Inactive)
REMARK    1  A    between atoms: C4_4  and  O3_28 
REMARK    2  A    between atoms: C5_5  and  C7_7 
REMARK    3  A    between atoms: C7_7  and  N1_8 
REMARK    4  A    between atoms: N2_11  and  C17_20 
REMARK    5  A    between atoms: C10_12  and  C11_13 
REMARK    6  A    between atoms: C16_18  and  O1_19 
REMARK    7  A    between atoms: C17_20  and  C18_21 
REMARK    8  A    between atoms: C23_26  and  O2_27 
ROOT
ATOM      1  N1  <0> d           1.526  -2.773   1.359  0.00  0.00    -0.032 N 
ATOM      2  C8  <0> d           0.367  -2.473   2.243  0.00  0.00     0.266 C 
ATOM      3  C9  <0> d           0.489  -3.576   3.325  0.00  0.00     0.266 C 
ATOM      4  N2  <0> d           0.962  -4.756   2.565  0.00  0.00    -0.032 N 
ATOM      5  C10 <0> d           1.604  -4.250   1.337  0.00  0.00     0.423 C 
ATOM      6  H25 <0> d           2.373  -2.382   1.742  0.00  0.00     0.283 HD
ATOM      7  H26 <0> d           0.180  -5.348   2.326  0.00  0.00     0.283 HD
ENDROOT
BRANCH   1   8
ATOM      8  C7  <0> d           1.286  -2.253   0.006  0.00  0.00     0.279 C 
BRANCH   8   9
ATOM      9  C5  <0> d           1.332  -0.747   0.032  0.00  0.00     0.001 A 
ATOM     10  C4  <0> d           2.554  -0.090   0.031  0.00  0.00     0.073 A 
ATOM     11  C3  <0> d           2.593   1.297   0.055  0.00  0.00     0.037 A 
ATOM     12  C2  <0> d           1.416   2.020   0.079  0.00  0.00     0.003 A 
ATOM     13  C1  <0> d           0.200   1.362   0.080  0.00  0.00     0.001 A 
ATOM     14  C6  <0> d           0.158  -0.019   0.057  0.00  0.00     0.011 A 
BRANCH  10  15
ATOM     15  O3  <0> d           3.710  -0.803   0.007  0.00  0.00    -0.360 OA
ATOM     16  H24 <0> d           4.054  -1.025   0.883  0.00  0.00     0.217 HD
ENDBRANCH  10  15
ENDBRANCH   8   9
ENDBRANCH   1   8
BRANCH   5  17
ATOM     17  C11 <0> d           3.046  -4.684   1.299  0.00  0.00     0.033 A 
ATOM     18  C16 <0> d           3.389  -5.908   0.743  0.00  0.00     0.075 A 
ATOM     19  C15 <0> d           4.719  -6.302   0.704  0.00  0.00     0.037 A 
ATOM     20  C14 <0> d           5.697  -5.480   1.229  0.00  0.00     0.003 A 
ATOM     21  C13 <0> d           5.352  -4.263   1.788  0.00  0.00     0.001 A 
ATOM     22  C12 <0> d           4.029  -3.866   1.823  0.00  0.00     0.014 A 
BRANCH  18  23
ATOM     23  O1  <0> d           2.424  -6.717   0.231  0.00  0.00    -0.360 OA
ATOM     24  H16 <0> d           2.295  -6.622  -0.722  0.00  0.00     0.217 HD
ENDBRANCH  18  23
ENDBRANCH   5  17
BRANCH   4  25
ATOM     25  C17 <0> d           1.938  -5.508   3.366  0.00  0.00     0.279 C 
BRANCH  25  26
ATOM     26  C18 <0> d           1.256  -6.077   4.583  0.00  0.00     0.001 A 
ATOM     27  C23 <0> d           0.501  -7.236   4.479  0.00  0.00     0.073 A 
ATOM     28  C22 <0> d          -0.121  -7.760   5.603  0.00  0.00     0.037 A 
ATOM     29  C21 <0> d           0.004  -7.121   6.821  0.00  0.00     0.003 A 
ATOM     30  C20 <0> d           0.752  -5.963   6.922  0.00  0.00     0.001 A 
ATOM     31  C19 <0> d           1.378  -5.442   5.804  0.00  0.00     0.011 A 
BRANCH  27  32
ATOM     32  O2  <0> d           0.375  -7.860   3.278  0.00  0.00    -0.360 OA
ATOM     33  H23 <0> d           1.056  -8.524   3.106  0.00  0.00     0.217 HD
ENDBRANCH  27  32
ENDBRANCH  25  26
ENDBRANCH   4  25
TORSDOF 8
