REMARK  5 active torsions:
REMARK  status: ('A' for Active; 'I' for Inactive)
REMARK    1  A    between atoms: C2_2  and  C3_3 
REMARK    2  A    between atoms: N1_6  and  N3_10 
REMARK       I    between atoms: N3_10  and  C6_11 
REMARK    3  A    between atoms: C6_11  and  C7_13 
REMARK    4  A    between atoms: C7_13  and  N4_14 
REMARK       I    between atoms: N5_17  and  C12_20 
REMARK    5  A    between atoms: C12_20  and  C13_22 
ROOT
ATOM      1  N3  <0> d           0.737  -2.993  -7.087  0.00  0.00    -0.255 N 
ATOM      2  C6  <0> d           0.750  -1.985  -6.192  0.00  0.00     0.262 C 
ATOM      3  O3  <0> d           1.804  -1.583  -5.747  0.00  0.00    -0.270 OA
ATOM      4  H8  <0> d          -0.219  -3.358  -7.490  0.00  0.00     0.191 HD
ENDROOT
BRANCH   2   5
ATOM      5  C7  <0> d          -0.546  -1.359  -5.743  0.00  0.00     0.339 C 
BRANCH   5   6
ATOM      6  N4  <0> d          -0.264  -0.293  -4.774  0.00  0.00    -0.060 N 
ATOM      7  C11 <0> d           0.312  -0.842  -3.539  0.00  0.00     0.255 C 
ATOM      8  C10 <0> d           0.761   0.314  -2.631  0.00  0.00     0.153 C 
ATOM      9  N5  <0> d          -0.383   1.217  -2.434  0.00  0.00    -0.347 N 
ATOM     10  C9  <0> d          -1.100   1.702  -3.624  0.00  0.00     0.153 C 
ATOM     11  C12 <0> d          -0.761   1.595  -1.197  0.00  0.00     0.248 C 
ATOM     12  C8  <0> d          -1.472   0.496  -4.493  0.00  0.00     0.255 C 
ATOM     13  O4  <0> d          -1.704   2.344  -1.053  0.00  0.00    -0.270 OA
ATOM     14  H28 <0> d           0.480   0.383  -5.219  0.00  0.00     0.280 HD
BRANCH  11  15
ATOM     15  C13 <0> d          -0.013   1.086   0.008  0.00  0.00     0.213 C 
ATOM     16  O5  <0> d          -0.639   1.560   1.212  0.00  0.00    -0.376 OA
ATOM     17  C16 <0> d           0.413   1.778   2.177  0.00  0.00     0.168 C 
ATOM     18  C15 <0> d           1.553   2.402   1.333  0.00  0.00     0.029 C 
ATOM     19  C14 <0> d           1.429   1.629  -0.003  0.00  0.00     0.043 C 
ENDBRANCH  11  15
ENDBRANCH   5   6
ENDBRANCH   2   5
BRANCH   1  20
ATOM     20  N1  <0> d           1.941  -3.575  -7.503  0.00  0.00    -0.167 N 
ATOM     21  C4  <0> d           2.379  -4.783  -7.096  0.00  0.00     0.275 A 
ATOM     22  C3  <0> d           3.706  -4.995  -7.797  0.00  0.00     0.114 A 
ATOM     23  O1  <0> d           1.827  -5.541  -6.329  0.00  0.00    -0.268 OA
ATOM     24  N2  <0> d           3.878  -3.767  -8.593  0.00  0.00    -0.323 N 
ATOM     25  C17 <0> d           3.643  -6.222  -8.709  0.00  0.00     0.049 C 
ATOM     26  C5  <0> d           2.796  -3.003  -8.359  0.00  0.00     0.345 A 
ATOM     27  H7  <0> d           4.775  -3.636  -9.216  0.00  0.00     0.165 HD
ATOM     28  O2  <0> d           2.616  -1.913  -8.866  0.00  0.00    -0.245 OA
BRANCH  22  29
ATOM     29  C2  <0> d           4.837  -5.138  -6.777  0.00  0.00     0.036 C 
ATOM     30  C1  <0> d           6.178  -5.226  -7.510  0.00  0.00     0.008 C 
ENDBRANCH  22  29
ENDBRANCH   1  20
TORSDOF 5
