REMARK  6 active torsions:
REMARK  status: ('A' for Active; 'I' for Inactive)
REMARK    1  A    between atoms: C2_2  and  C3_3 
REMARK    2  A    between atoms: C2_2  and  N1_9 
REMARK    3  A    between atoms: N1_9  and  C7_10 
REMARK    4  A    between atoms: C11_14  and  O1_16 
REMARK    5  A    between atoms: O1_16  and  C13_17 
REMARK    6  A    between atoms: C13_17  and  C14_18 
REMARK       I    between atoms: C14_18  and  N2_20 
ROOT
ATOM      1  C7  <0> d          -2.053  -0.660   1.223  0.00  0.00     0.031 A 
ATOM      2  C8  <0> d          -1.428  -0.323   2.418  0.00  0.00     0.029 A 
ATOM      3  C9  <0> d          -2.101  -0.470   3.615  0.00  0.00     0.005 A 
ATOM      4  C10 <0> d          -3.396  -0.954   3.628  0.00  0.00     0.037 A 
ATOM      5  C11 <0> d          -4.024  -1.292   2.438  0.00  0.00     0.071 A 
ATOM      6  C12 <0> d          -3.355  -1.141   1.234  0.00  0.00     0.065 A 
ENDROOT
BRANCH   1   7
ATOM      7  N1  <0> d          -1.372  -0.511   0.012  0.00  0.00    -0.381 N 
ATOM      8  H7  <0> d          -1.810  -0.743  -0.822  0.00  0.00     0.160 HD
BRANCH   7   9
ATOM      9  C2  <0> d           0.002  -0.004   0.002  0.00  0.00     0.118 C 
ATOM     10  C1  <0> d          -0.019   1.526   0.010  0.00  0.00     0.038 C 
BRANCH   9  11
ATOM     11  C3  <0> d           0.707  -0.490  -1.238  0.00  0.00     0.006 A 
ATOM     12  S1  <0> d           0.081  -0.638  -2.903  0.00  0.00    -0.085 SA
ATOM     13  C6  <0> d           1.561  -1.271  -3.674  0.00  0.00     0.051 A 
ATOM     14  C5  <0> d           2.418  -1.335  -2.625  0.00  0.00     0.028 A 
ATOM     15 Br1  <0> d           1.854  -1.740  -5.483  0.00  0.00    -0.043 Br
ATOM     16  C4  <0> d           1.980  -0.934  -1.377  0.00  0.00     0.018 A 
ENDBRANCH   9  11
ENDBRANCH   7   9
ENDBRANCH   1   7
BRANCH   5  17
ATOM     17  O1  <0> d          -5.298  -1.767   2.453  0.00  0.00    -0.342 OA
BRANCH  17  18
ATOM     18  C13 <0> d          -5.929  -1.892   3.729  0.00  0.00     0.278 C 
BRANCH  18  19
ATOM     19  C14 <0> d          -7.325  -2.430   3.548  0.00  0.00     0.239 C 
ATOM     20  O2  <0> d          -7.739  -2.681   2.436  0.00  0.00    -0.271 OA
ATOM     21  N2  <0> d          -8.114  -2.631   4.622  0.00  0.00    -0.368 N 
ATOM     22  H14 <0> d          -7.783  -2.430   5.511  0.00  0.00     0.159 HD
ATOM     23  H15 <0> d          -9.012  -2.978   4.506  0.00  0.00     0.159 HD
ENDBRANCH  18  19
ENDBRANCH  17  18
ENDBRANCH   5  17
TORSDOF 6
