REMARK  3 active torsions:
REMARK  status: ('A' for Active; 'I' for Inactive)
REMARK    1  A    between atoms: C2_2  and  O2_4 
REMARK    2  A    between atoms: O2_4  and  C3_5 
REMARK    3  A    between atoms: C6_8  and  N1_11 
ROOT
ATOM      1  N1  <0> d           1.103  -0.319  -0.842  0.00  0.00    -0.252 N 
ATOM      2  C9  <0> d           1.912   0.748  -1.140  0.00  0.00     0.238 C 
ATOM      3  O3  <0> d           2.718   0.834  -2.042  0.00  0.00    -0.272 OA
ATOM      4  C10 <0> d           1.589   1.763  -0.130  0.00  0.00     0.126 C 
ATOM      5  C11 <0> d           1.594   3.257  -0.216  0.00  0.00     0.204 C 
ATOM      6  C12 <0> d           2.888   3.833   0.398  0.00  0.00     0.036 C 
ATOM      7  C13 <0> d           2.384   4.953   1.342  0.00  0.00     0.030 C 
ATOM      8  C14 <0> d           1.054   4.349   1.860  0.00  0.00     0.237 C 
ATOM      9  C15 <0> d          -0.265   2.452   1.097  0.00  0.00     0.249 A 
ATOM     10  C16 <0> d           0.037   1.487  -0.001  0.00  0.00     0.145 C 
ATOM     11  C17 <0> d           0.089   0.016   0.019  0.00  0.00     0.239 C 
ATOM     12  O4  <0> d          -0.613  -0.738   0.658  0.00  0.00    -0.272 OA
ATOM     13  C18 <0> d           0.195   1.995   2.453  0.00  0.00     0.015 A 
ATOM     14  C19 <0> d           1.412   1.589   2.953  0.00  0.00     0.012 A 
ATOM     15  C20 <0> d           1.525   1.217   4.281  0.00  0.00     0.001 A 
ATOM     16  C21 <0> d           0.414   1.254   5.103  0.00  0.00     0.002 A 
ATOM     17  C22 <0> d          -0.807   1.660   4.606  0.00  0.00     0.030 A 
ATOM     18  C23 <0> d          -0.930   2.037   3.271  0.00  0.00     0.044 A 
ATOM     19  N2  <0> d          -2.038   2.479   2.545  0.00  0.00    -0.324 N 
ATOM     20  C24 <0> d          -1.732   2.745   1.261  0.00  0.00     0.264 A 
ATOM     21  O5  <0> d          -2.490   3.145   0.403  0.00  0.00    -0.270 OA
ATOM     22  H21 <0> d          -2.926   2.582   2.922  0.00  0.00     0.169 HD
ATOM     23  N3  <0> d           0.489   3.669   0.672  0.00  0.00    -0.043 N 
ATOM     24  H22 <0> d          -0.139   4.309   0.173  0.00  0.00     0.282 HD
ENDROOT
BRANCH   1  25
ATOM     25  C6  <0> d           1.292  -1.609  -1.358  0.00  0.00     0.045 A 
ATOM     26  C5  <0> d           2.347  -1.862  -2.225  0.00  0.00     0.033 A 
ATOM     27  C4  <0> d           2.533  -3.132  -2.733  0.00  0.00     0.039 A 
ATOM     28  C3  <0> d           1.667  -4.156  -2.378  0.00  0.00     0.079 A 
ATOM     29  C8  <0> d           0.613  -3.904  -1.511  0.00  0.00     0.039 A 
ATOM     30  C7  <0> d           0.429  -2.635  -0.999  0.00  0.00     0.033 A 
BRANCH  28  31
ATOM     31  O2  <0> d           1.850  -5.406  -2.878  0.00  0.00    -0.279 OA
BRANCH  31  32
ATOM     32  C2  <0> d           2.930  -6.081  -2.451  0.00  0.00     0.260 C 
ATOM     33  C1  <0> d           3.271  -7.418  -3.058  0.00  0.00     0.126 C 
ATOM     34  O1  <0> d           3.627  -5.617  -1.581  0.00  0.00    -0.265 OA
ENDBRANCH  31  32
ENDBRANCH  28  31
ENDBRANCH   1  25
TORSDOF 3
