REMARK  5 active torsions:
REMARK  status: ('A' for Active; 'I' for Inactive)
REMARK    1  A    between atoms: C5_8  and  C12_19 
REMARK    2  A    between atoms: C7_12  and  C8_13 
REMARK    3  A    between atoms: C8_13  and  O3_15 
REMARK    4  A    between atoms: O3_15  and  C9_16 
REMARK    5  A    between atoms: C12_19  and  N3_20 
ROOT
ATOM      1  C1  <0> d          -0.018   1.503   0.010  0.00  0.00     0.051 C 
ATOM      2  C2  <0> d           0.002  -0.004   0.002  0.00  0.00    -0.020 A 
ATOM      3  C3  <0> d           0.005  -0.697  -1.210  0.00  0.00     0.075 A 
ATOM      4  C4  <0> d          -0.009  -0.166  -2.592  0.00  0.00     0.260 A 
ATOM      5  O1  <0> d          -0.025   1.034  -2.800  0.00  0.00    -0.267 OA
ATOM      6  N1  <0> d          -0.002  -1.044  -3.614  0.00  0.00    -0.309 N 
ATOM      7  H1  <0> d          -0.010  -0.712  -4.525  0.00  0.00     0.170 HD
ATOM      8  C5  <0> d           0.018  -2.382  -3.394  0.00  0.00     0.136 A 
ATOM      9  N2  <0> d           0.030  -2.883  -2.189  0.00  0.00    -0.225 NA
ATOM     10  C6  <0> d           0.025  -2.108  -1.113  0.00  0.00     0.116 A 
ATOM     11  S1  <0> d           0.037  -2.396   0.639  0.00  0.00    -0.063 SA
ATOM     12  C7  <0> d           0.023  -0.695   1.179  0.00  0.00     0.089 A 
ENDROOT
BRANCH   8  13
ATOM     13  C12 <0> d           0.024  -3.317  -4.576  0.00  0.00     0.350 C 
BRANCH  13  14
ATOM     14  N3  <0> d           0.045  -4.707  -4.101  0.00  0.00     0.099 N 
ATOM     15  C16 <0> d           0.290  -5.639  -5.210  0.00  0.00     0.305 C 
ATOM     16  C15 <0> d           0.364  -7.067  -4.665  0.00  0.00     0.210 C 
ATOM     17  N4  <0> d          -0.898  -7.401  -3.992  0.00  0.00    -0.068 N 
ATOM     18  C17 <0> d           0.600  -8.042  -5.820  0.00  0.00     0.042 C 
ATOM     19  C14 <0> d          -1.117  -6.476  -2.872  0.00  0.00     0.262 C 
ATOM     20  H19 <0> d          -0.854  -8.347  -3.644  0.00  0.00     0.277 HD
ATOM     21  H25 <0> d          -1.660  -7.320  -4.648  0.00  0.00     0.277 HD
ATOM     22  C13 <0> d          -1.203  -5.043  -3.402  0.00  0.00     0.300 C 
ENDBRANCH  13  14
ENDBRANCH   8  13
BRANCH  12  23
ATOM     23  C8  <0> d           0.030  -0.170   2.547  0.00  0.00     0.301 C 
ATOM     24  O2  <0> d           0.015   1.031   2.737  0.00  0.00    -0.259 OA
BRANCH  23  25
ATOM     25  O3  <0> d           0.051  -1.019   3.595  0.00  0.00    -0.312 OA
BRANCH  25  26
ATOM     26  C9  <0> d           0.057  -0.438   4.900  0.00  0.00     0.124 C 
ATOM     27  C10 <0> d          -1.384  -0.250   5.380  0.00  0.00     0.040 C 
ATOM     28  C11 <0> d           0.800  -1.362   5.867  0.00  0.00     0.040 C 
ENDBRANCH  25  26
ENDBRANCH  23  25
ENDBRANCH  12  23
TORSDOF 5
