REMARK  6 active torsions:
REMARK  status: ('A' for Active; 'I' for Inactive)
REMARK    1  A    between atoms: C6_6  and  O1_8 
REMARK    2  A    between atoms: O1_8  and  C8_9 
REMARK    3  A    between atoms: C8_9  and  C9_10 
REMARK    4  A    between atoms: C9_10  and  C10_11 
REMARK       I    between atoms: C10_11  and  N1_13 
REMARK    5  A    between atoms: N1_13  and  N2_14 
REMARK       I    between atoms: N2_14  and  C11_15 
REMARK    6  A    between atoms: C11_15  and  C12_17 
ROOT
ATOM      1  C10 <0> d           0.058  -2.134   6.039  0.00  0.00     0.238 C 
ATOM      2  O2  <0> d           0.042  -0.922   5.984  0.00  0.00    -0.272 OA
ATOM      3  N1  <0> d           0.072  -2.754   7.235  0.00  0.00    -0.267 N 
ATOM      4  H11 <0> d           0.085  -3.723   7.279  0.00  0.00     0.190 HD
ENDROOT
BRANCH   1   5
ATOM      5  C9  <0> d           0.063  -2.946   4.769  0.00  0.00     0.131 C 
BRANCH   5   6
ATOM      6  C8  <0> d           0.045  -2.006   3.562  0.00  0.00     0.185 C 
BRANCH   6   7
ATOM      7  O1  <0> d           0.050  -2.776   2.358  0.00  0.00    -0.350 OA
BRANCH   7   8
ATOM      8  C6  <0> d           0.035  -2.088   1.186  0.00  0.00     0.075 A 
ATOM      9  C5  <0> d           0.039  -2.772  -0.020  0.00  0.00    -0.029 A 
ATOM     10  C4  <0> d           0.024  -2.071  -1.211  0.00  0.00     0.010 A 
ATOM     11  C17 <0> d           0.059  -4.279  -0.033  0.00  0.00     0.051 C 
ATOM     12  C3  <0> d           0.006  -0.688  -1.200  0.00  0.00     0.007 A 
ATOM     13  C2  <0> d           0.002  -0.004   0.002  0.00  0.00    -0.059 A 
ATOM     14  C1  <0> d          -0.018   1.503   0.010  0.00  0.00     0.048 C 
ATOM     15  C7  <0> d           0.023  -0.700   1.195  0.00  0.00     0.044 A 
ENDBRANCH   7   8
ENDBRANCH   6   7
ENDBRANCH   5   6
ENDBRANCH   1   5
BRANCH   3  16
ATOM     16  N2  <0> d           0.067  -1.999   8.416  0.00  0.00    -0.263 N 
ATOM     17  C11 <0> d           0.081  -2.619   9.612  0.00  0.00     0.271 C 
ATOM     18  O3  <0> d           0.097  -3.833   9.667  0.00  0.00    -0.266 OA
ATOM     19  H12 <0> d           0.054  -1.030   8.371  0.00  0.00     0.190 HD
BRANCH  17  20
ATOM     20  C12 <0> d           0.076  -1.823  10.857  0.00  0.00     0.051 A 
ATOM     21  C16 <0> d           0.057  -0.429  10.807  0.00  0.00     0.135 A 
ATOM     22  N3  <0> d           0.047   0.281  11.916  0.00  0.00    -0.248 NA
ATOM     23  C15 <0> d           0.065  -0.287  13.108  0.00  0.00     0.125 A 
ATOM     24  C14 <0> d           0.090  -1.666  13.242  0.00  0.00     0.045 A 
ATOM     25 Cl1  <0> d           0.058   0.709  14.529  0.00  0.00    -0.062 Cl
ATOM     26  C13 <0> d           0.096  -2.456  12.107  0.00  0.00     0.022 A 
ENDBRANCH  17  20
ENDBRANCH   3  16
TORSDOF 6
