REMARK  5 active torsions:
REMARK  status: ('A' for Active; 'I' for Inactive)
REMARK    1  A    between atoms: N1_5  and  C5_7 
REMARK    2  A    between atoms: C7_9  and  O2_16 
REMARK    3  A    between atoms: C8_10  and  O1_15 
REMARK    4  A    between atoms: C12_19  and  N4_30 
REMARK    5  A    between atoms: C14_21  and  C15_22 
ROOT
ATOM      1  C1  <0> d           0.193   1.498  -0.002  0.00  0.00     0.073 C 
ATOM      2  C2  <0> d           0.098  -0.006  -0.004  0.00  0.00     0.063 A 
ATOM      3  C3  <0> d          -0.077  -0.809  -1.123  0.00  0.00     0.035 A 
ATOM      4  C4  <0> d          -0.115  -2.112  -0.709  0.00  0.00     0.182 A 
ATOM      5  N1  <0> d           0.034  -2.116   0.634  0.00  0.00    -0.208 N 
ATOM      6  N2  <0> d           0.170  -0.783   1.052  0.00  0.00    -0.170 NA
ATOM      7  O3  <0> d          -0.279  -3.149  -1.566  0.00  0.00    -0.274 OA
ATOM      8  C12 <0> d          -0.680  -2.864  -2.822  0.00  0.00     0.161 C 
ATOM      9  C13 <0> d          -0.676  -1.619  -3.348  0.00  0.00     0.086 C 
ATOM     10  C14 <0> d          -0.210  -0.413  -2.571  0.00  0.00     0.106 C 
ATOM     11  C21 <0> d          -1.130  -1.438  -4.694  0.00  0.00     0.100 C 
ATOM     12  N3  <0> d          -1.491  -1.294  -5.761  0.00  0.00    -0.191 NA
ENDROOT
BRANCH   8  13
ATOM     13  N4  <0> d          -1.118  -3.898  -3.611  0.00  0.00    -0.379 N 
ATOM     14  H15 <0> d          -1.133  -4.802  -3.262  0.00  0.00     0.158 HD
ATOM     15  H16 <0> d          -1.413  -3.724  -4.519  0.00  0.00     0.158 HD
ENDBRANCH   8  13
BRANCH  10  16
ATOM     16  C15 <0> d           1.125   0.047  -3.096  0.00  0.00    -0.044 A 
ATOM     17  C20 <0> d           1.269   1.331  -3.587  0.00  0.00     0.008 A 
ATOM     18  C19 <0> d           2.495   1.755  -4.066  0.00  0.00     0.001 A 
ATOM     19  C18 <0> d           3.575   0.891  -4.061  0.00  0.00     0.000 A 
ATOM     20  C17 <0> d           3.429  -0.394  -3.575  0.00  0.00     0.001 A 
ATOM     21  C16 <0> d           2.204  -0.817  -3.093  0.00  0.00     0.008 A 
ENDBRANCH  10  16
BRANCH   5  22
ATOM     22  C5  <0> d           0.054  -3.249   1.461  0.00  0.00     0.087 A 
ATOM     23  C10 <0> d          -0.713  -3.277   2.618  0.00  0.00     0.083 A 
ATOM     24  C9  <0> d          -0.698  -4.397   3.432  0.00  0.00     0.070 A 
ATOM     25 Cl1  <0> d          -1.696  -1.911   3.041  0.00  0.00    -0.080 Cl
ATOM     26  C8  <0> d           0.090  -5.487   3.098  0.00  0.00     0.118 A 
ATOM     27 Br1  <0> d          -1.749  -4.436   5.003  0.00  0.00    -0.046 Br
ATOM     28  C7  <0> d           0.864  -5.458   1.942  0.00  0.00     0.104 A 
ATOM     29  C6  <0> d           0.845  -4.340   1.125  0.00  0.00     0.073 A 
BRANCH  26  30
ATOM     30  O1  <0> d           0.108  -6.585   3.901  0.00  0.00    -0.357 OA
ATOM     31  H6  <0> d           0.785  -6.556   4.591  0.00  0.00     0.218 HD
ENDBRANCH  26  30
BRANCH  28  32
ATOM     32  O2  <0> d           1.638  -6.527   1.614  0.00  0.00    -0.353 OA
ATOM     33  C11 <0> d           2.405  -6.428   0.412  0.00  0.00     0.210 C 
ENDBRANCH  28  32
ENDBRANCH   5  22
TORSDOF 5
