REMARK  3 active torsions:
REMARK  status: ('A' for Active; 'I' for Inactive)
REMARK    1  A    between atoms: N1_2  and  C2_3 
REMARK       I    between atoms: N1_2  and  C4_7 
REMARK    2  A    between atoms: C2_3  and  C3_4 
REMARK       I    between atoms: C3_4  and  N2_6 
REMARK    3  A    between atoms: C4_7  and  C5_9 
ROOT
ATOM      1  C5  <0> d          -0.022   0.075  -2.446  0.00  0.00     0.053 A 
ATOM      2  C6  <0> d           1.181   0.455  -3.090  0.00  0.00     0.009 A 
ATOM      3  C7  <0> d           2.434   0.143  -2.545  0.00  0.00     0.015 A 
ATOM      4  C8  <0> d           3.567   0.527  -3.197  0.00  0.00     0.001 A 
ATOM      5  C9  <0> d           3.496   1.226  -4.401  0.00  0.00     0.002 A 
ATOM      6  C10 <0> d           2.296   1.545  -4.957  0.00  0.00     0.032 A 
ATOM      7  C11 <0> d           1.104   1.166  -4.313  0.00  0.00     0.068 A 
ATOM      8  N3  <0> d          -0.086   1.466  -4.836  0.00  0.00    -0.252 NA
ATOM      9  C12 <0> d          -1.215   1.125  -4.255  0.00  0.00     0.042 A 
ATOM     10  C13 <0> d          -1.224   0.420  -3.052  0.00  0.00    -0.017 A 
ATOM     11  C14 <0> d          -2.650   0.159  -2.620  0.00  0.00     0.042 C 
ATOM     12  C15 <0> d          -3.507   1.144  -3.443  0.00  0.00     0.011 C 
ATOM     13  C16 <0> d          -2.644   1.379  -4.696  0.00  0.00     0.060 C 
ENDROOT
BRANCH   1  14
ATOM     14  C4  <0> d           0.000  -0.672  -1.169  0.00  0.00     0.255 C 
ATOM     15  N1  <0> d           0.002  -0.004   0.002  0.00  0.00    -0.344 N 
ATOM     16  C1  <0> d          -0.018   1.461   0.010  0.00  0.00     0.153 C 
ATOM     17  O2  <0> d           0.017  -1.887  -1.175  0.00  0.00    -0.267 OA
BRANCH  15  18
ATOM     18  C2  <0> d           0.024  -0.743   1.267  0.00  0.00     0.228 C 
BRANCH  18  19
ATOM     19  C3  <0> d          -1.389  -1.016   1.714  0.00  0.00     0.233 C 
ATOM     20  O1  <0> d          -2.322  -0.631   1.042  0.00  0.00    -0.272 OA
ATOM     21  N2  <0> d          -1.615  -1.688   2.860  0.00  0.00    -0.369 N 
ATOM     22  H6  <0> d          -0.869  -1.996   3.397  0.00  0.00     0.159 HD
ATOM     23  H7  <0> d          -2.525  -1.864   3.148  0.00  0.00     0.159 HD
ENDBRANCH  18  19
ENDBRANCH  15  18
ENDBRANCH   1  14
TORSDOF 3
