REMARK  3 active torsions:
REMARK  status: ('A' for Active; 'I' for Inactive)
REMARK    1  A    between atoms: C4_4  and  C5_7 
REMARK    2  A    between atoms: C5_7  and  N2_8 
REMARK    3  A    between atoms: C13_16  and  O2_17 
ROOT
ATOM      1  N2  <0> d           1.424  -3.694  -1.928  0.00  0.00    -0.353 N 
ATOM      2  C6  <0> d           2.134  -3.309  -3.029  0.00  0.00     0.092 A 
ATOM      3  C7  <0> d           3.369  -3.851  -2.948  0.00  0.00     0.029 A 
ATOM      4  C8  <0> d           3.421  -4.592  -1.758  0.00  0.00    -0.006 A 
ATOM      5  C9  <0> d           2.217  -4.476  -1.151  0.00  0.00     0.020 A 
ATOM      6  C10 <0> d           1.869  -5.130   0.163  0.00  0.00     0.058 C 
ATOM      7  C11 <0> d           2.903  -6.226   0.448  0.00  0.00     0.009 C 
ATOM      8  C12 <0> d           4.314  -5.654   0.282  0.00  0.00     0.037 C 
ATOM      9  C13 <0> d           4.579  -5.385  -1.207  0.00  0.00     0.153 C 
ENDROOT
BRANCH   1  10
ATOM     10  C5  <0> d           0.039  -3.320  -1.631  0.00  0.00     0.195 C 
BRANCH  10  11
ATOM     11  C4  <0> d           0.027  -2.108  -0.735  0.00  0.00     0.099 A 
ATOM     12  C3  <0> d           0.008  -0.824  -1.141  0.00  0.00     0.065 A 
ATOM     13  C2  <0> d           0.002  -0.004   0.002  0.00  0.00     0.060 A 
ATOM     14  C1  <0> d          -0.018   1.503   0.010  0.00  0.00     0.072 C 
ATOM     15  N1  <0> d           0.023  -0.775   1.052  0.00  0.00    -0.133 NA
ATOM     16  O1  <0> d           0.034  -2.119   0.606  0.00  0.00    -0.216 OA
ENDBRANCH  10  11
ENDBRANCH   1  10
BRANCH   9  17
ATOM     17  O2  <0> d           5.785  -4.631  -1.342  0.00  0.00    -0.391 OA
ATOM     18  H16 <0> d           6.571  -5.083  -1.007  0.00  0.00     0.210 HD
ENDBRANCH   9  17
TORSDOF 3
