REMARK  4 active torsions:
REMARK  status: ('A' for Active; 'I' for Inactive)
REMARK    1  A    between atoms: C2_2  and  C3_3 
REMARK    2  A    between atoms: C2_2  and  N3_18 
REMARK    3  A    between atoms: C3_3  and  N1_4 
REMARK    4  A    between atoms: C4_5  and  C5_6 
ROOT
ATOM      1  C5  <0> d          -1.130   5.094   4.781  0.00  0.00     0.058 A 
ATOM      2  C6  <0> d          -0.183   5.832   3.920  0.00  0.00    -0.003 A 
ATOM      3  C7  <0> d           0.700   5.174   3.072  0.00  0.00     0.013 A 
ATOM      4  C8  <0> d           1.562   5.908   2.283  0.00  0.00     0.001 A 
ATOM      5  C9  <0> d           1.548   7.295   2.327  0.00  0.00     0.001 A 
ATOM      6  C10 <0> d           0.676   7.965   3.157  0.00  0.00     0.018 A 
ATOM      7  C11 <0> d          -0.203   7.241   3.963  0.00  0.00     0.043 A 
ATOM      8  C12 <0> d          -1.149   7.916   4.862  0.00  0.00     0.259 A 
ATOM      9  O1  <0> d          -1.168   9.132   4.907  0.00  0.00    -0.267 OA
ATOM     10  N2  <0> d          -1.993   7.214   5.635  0.00  0.00    -0.289 N 
ATOM     11  C13 <0> d          -2.031   5.871   5.641  0.00  0.00     0.260 A 
ATOM     12  O2  <0> d          -2.820   5.294   6.365  0.00  0.00    -0.267 OA
ATOM     13  H13 <0> d          -2.694   7.738   6.301  0.00  0.00     0.172 HD
ENDROOT
BRANCH   1  14
ATOM     14  C4  <0> d          -1.163   3.717   4.782  0.00  0.00     0.101 C 
ATOM     15  N1  <0> d          -0.789   3.028   3.672  0.00  0.00    -0.396 N 
ATOM     16  H7  <0> d          -0.565   3.567   2.740  0.00  0.00     0.158 HD
BRANCH  15  17
ATOM     17  C3  <0> d          -0.684   1.568   3.717  0.00  0.00     0.154 C 
BRANCH  17  18
ATOM     18  C2  <0> d          -0.130   1.055   2.386  0.00  0.00     0.236 C 
ATOM     19  C1  <0> d          -1.129   1.357   1.268  0.00  0.00     0.044 C 
BRANCH  18  20
ATOM     20  N3  <0> d           1.146   1.723   2.097  0.00  0.00     0.098 N 
ATOM     21  C17 <0> d           2.035   1.692   3.268  0.00  0.00     0.299 C 
ATOM     22  C16 <0> d           3.326   2.447   2.942  0.00  0.00     0.198 C 
ATOM     23  O3  <0> d           3.934   1.867   1.785  0.00  0.00    -0.388 OA
ATOM     24  C15 <0> d           3.096   1.881   0.626  0.00  0.00     0.198 C 
ATOM     25  C14 <0> d           1.803   1.120   0.928  0.00  0.00     0.299 C 
ENDBRANCH  18  20
ENDBRANCH  17  18
ENDBRANCH  15  17
ENDBRANCH   1  14
TORSDOF 4
