REMARK  6 active torsions:
REMARK  status: ('A' for Active; 'I' for Inactive)
REMARK    1  A    between atoms: C3_3  and  O1_8 
REMARK    2  A    between atoms: O1_8  and  C7_9 
REMARK    3  A    between atoms: C7_9  and  C8_10 
REMARK    4  A    between atoms: C8_10  and  N1_11 
REMARK    5  A    between atoms: C10_13  and  C11_16 
REMARK    6  A    between atoms: C11_16  and  N4_17 
ROOT
ATOM      1  N1  <0> d           7.197   1.509  -0.060  0.00  0.00    -0.259 N 
ATOM      2  C9  <0> d           8.197   1.626  -0.964  0.00  0.00     0.144 A 
ATOM      3  C10 <0> d           9.137   0.722  -0.605  0.00  0.00     0.101 A 
ATOM      4  N2  <0> d           8.673   0.104   0.486  0.00  0.00    -0.134 NA
ATOM      5  N3  <0> d           7.524   0.597   0.787  0.00  0.00    -0.066 NA
ENDROOT
BRANCH   1   6
ATOM      6  C8  <0> d           5.958   2.291  -0.043  0.00  0.00     0.178 C 
BRANCH   6   7
ATOM      7  C7  <0> d           4.757   1.343  -0.037  0.00  0.00     0.197 C 
BRANCH   7   8
ATOM      8  O1  <0> d           3.548   2.105  -0.021  0.00  0.00    -0.349 OA
BRANCH   8   9
ATOM      9  C3  <0> d           2.381   1.410  -0.013  0.00  0.00     0.070 A 
ATOM     10  C2  <0> d           1.170   2.087   0.002  0.00  0.00     0.037 A 
ATOM     11  C1  <0> d          -0.017   1.378   0.010  0.00  0.00     0.004 A 
ATOM     12  C6  <0> d           0.002  -0.004   0.002  0.00  0.00     0.019 A 
ATOM     13  C5  <0> d           1.208  -0.682  -0.013  0.00  0.00     0.013 A 
ATOM     14  C4  <0> d           2.398   0.023  -0.021  0.00  0.00     0.055 A 
ATOM     15 Br1  <0> d           1.230  -2.573  -0.024  0.00  0.00    -0.051 Br
ENDBRANCH   8   9
ENDBRANCH   7   8
ENDBRANCH   6   7
ENDBRANCH   1   6
BRANCH   3  16
ATOM     16  C11 <0> d          10.449   0.462  -1.300  0.00  0.00     0.292 C 
BRANCH  16  17
ATOM     17  N4  <0> d          11.511   1.241  -0.648  0.00  0.00    -0.074 N 
ATOM     18  H12 <0> d          11.289   2.224  -0.705  0.00  0.00     0.274 HD
ATOM     19  H13 <0> d          11.583   0.967   0.320  0.00  0.00     0.274 HD
ATOM     20  H14 <0> d          12.389   1.067  -1.113  0.00  0.00     0.274 HD
ENDBRANCH  16  17
ENDBRANCH   3  16
TORSDOF 6
