REMARK  6 active torsions:
REMARK  status: ('A' for Active; 'I' for Inactive)
REMARK    1  A    between atoms: N1_2  and  S1_4 
REMARK    2  A    between atoms: S1_4  and  C3_7 
REMARK    3  A    between atoms: N2_12  and  C8_14 
REMARK    4  A    between atoms: C8_14  and  C9_15 
REMARK       I    between atoms: C9_15  and  N3_17 
REMARK    5  A    between atoms: N3_17  and  C10_18 
REMARK    6  A    between atoms: C15_23  and  C16_24 
ROOT
ATOM      1  C8  <0> d          -2.477  -2.828  -0.206  0.00  0.00     0.234 C 
ENDROOT
BRANCH   1   2
ATOM      2  N2  <0> d          -2.192  -4.261  -0.313  0.00  0.00    -0.314 N 
ATOM      3  C6  <0> d          -2.029  -4.818  -1.528  0.00  0.00     0.247 A 
ATOM      4  C5  <0> d          -1.749  -6.191  -1.641  0.00  0.00     0.076 A 
ATOM      5  O3  <0> d          -2.119  -4.130  -2.532  0.00  0.00    -0.268 OA
ATOM      6  C4  <0> d          -1.657  -6.949  -0.510  0.00  0.00     0.032 A 
ATOM      7  C3  <0> d          -1.838  -6.339   0.739  0.00  0.00     0.095 A 
ATOM      8  C7  <0> d          -2.101  -5.014   0.813  0.00  0.00     0.120 A 
BRANCH   7   9
ATOM      9  S1  <0> d          -1.725  -7.299   2.213  0.00  0.00     0.261 S 
ATOM     10  O1  <0> d          -0.591  -8.142   2.062  0.00  0.00    -0.200 OA
ATOM     11  O2  <0> d          -1.862  -6.394   3.299  0.00  0.00    -0.200 OA
BRANCH   9  12
ATOM     12  N1  <0> d          -3.050  -8.292   2.253  0.00  0.00    -0.315 N 
ATOM     13  C1  <0> d          -2.988  -9.622   1.642  0.00  0.00     0.162 C 
ATOM     14  C2  <0> d          -4.284  -7.841   2.902  0.00  0.00     0.162 C 
ENDBRANCH   9  12
ENDBRANCH   7   9
ENDBRANCH   1   2
BRANCH   1  15
ATOM     15  C9  <0> d          -1.183  -2.065  -0.100  0.00  0.00     0.240 C 
ATOM     16  O4  <0> d          -0.125  -2.659  -0.113  0.00  0.00    -0.271 OA
ATOM     17  N3  <0> d          -1.199  -0.722   0.009  0.00  0.00    -0.325 N 
ATOM     18  H12 <0> d          -2.043  -0.253   0.100  0.00  0.00     0.169 HD
BRANCH  17  19
ATOM     19  C10 <0> d           0.001  -0.003  -0.009  0.00  0.00     0.049 A 
ATOM     20  C15 <0> d           0.074   1.246   0.594  0.00  0.00     0.074 A 
ATOM     21  C14 <0> d           1.261   1.952   0.574  0.00  0.00     0.018 A 
ATOM     22  C13 <0> d           2.375   1.418  -0.046  0.00  0.00     0.001 A 
ATOM     23  C12 <0> d           2.306   0.174  -0.647  0.00  0.00     0.002 A 
ATOM     24  C11 <0> d           1.123  -0.537  -0.630  0.00  0.00     0.030 A 
BRANCH  20  25
ATOM     25  C16 <0> d          -1.142   1.832   1.264  0.00  0.00     0.419 C 
ATOM     26  F1  <0> d          -0.823   3.087   1.793  0.00  0.00    -0.166 F 
ATOM     27  F2  <0> d          -2.170   1.969   0.325  0.00  0.00    -0.166 F 
ATOM     28  F3  <0> d          -1.561   0.984   2.294  0.00  0.00    -0.166 F 
ENDBRANCH  20  25
ENDBRANCH  17  19
ENDBRANCH   1  15
TORSDOF 6
