REMARK  10 active torsions:
REMARK  status: ('A' for Active; 'I' for Inactive)
REMARK    1  A    between atoms: N1_7  and  C7_8 
REMARK    2  A    between atoms: C7_8  and  C8_9 
REMARK    3  A    between atoms: C8_9  and  C9_10 
REMARK    4  A    between atoms: C9_10  and  N2_11 
REMARK    5  A    between atoms: N2_11  and  S1_12 
REMARK    6  A    between atoms: S1_12  and  C10_15 
REMARK    7  A    between atoms: C10_15  and  C11_16 
REMARK    8  A    between atoms: C11_16  and  C12_17 
REMARK    9  A    between atoms: C12_17  and  N3_18 
REMARK   10  A    between atoms: N3_18  and  C13_19 
ROOT
ATOM      1  N2  <0> d           4.842  -0.112   3.791  0.00  0.00    -0.319 N 
ATOM      2  H19 <0> d           4.325  -0.473   4.528  0.00  0.00     0.172 HD
ENDROOT
BRANCH   1   3
ATOM      3  C9  <0> d           4.173   0.276   2.547  0.00  0.00     0.133 C 
BRANCH   3   4
ATOM      4  C8  <0> d           2.764  -0.321   2.518  0.00  0.00     0.048 C 
BRANCH   4   5
ATOM      5  C7  <0> d           2.066   0.083   1.218  0.00  0.00     0.237 C 
BRANCH   5   6
ATOM      6  N1  <0> d           0.713  -0.490   1.191  0.00  0.00    -0.067 N 
ATOM      7  C2  <0> d           0.002  -0.004   0.002  0.00  0.00     0.184 C 
ATOM      8  C1  <0> d          -0.019   1.526   0.010  0.00  0.00     0.040 C 
ATOM      9  C3  <0> d          -1.434  -0.533   0.011  0.00  0.00     0.033 C 
ATOM     10  C4  <0> d          -1.408  -2.064   0.003  0.00  0.00     0.004 C 
ATOM     11  C5  <0> d          -0.600  -2.558   1.206  0.00  0.00     0.028 C 
ATOM     12  C6  <0> d           0.805  -1.954   1.152  0.00  0.00     0.235 C 
ATOM     13  H34 <0> d           0.213  -0.206   2.020  0.00  0.00     0.280 HD
ENDBRANCH   5   6
ENDBRANCH   4   5
ENDBRANCH   3   4
ENDBRANCH   1   3
BRANCH   1  14
ATOM     14  S1  <0> d           6.482   0.068   3.940  0.00  0.00     0.226 S 
ATOM     15  O1  <0> d           6.783  -0.421   5.240  0.00  0.00    -0.206 OA
ATOM     16  O2  <0> d           7.021  -0.562   2.786  0.00  0.00    -0.206 OA
BRANCH  14  17
ATOM     17  C10 <0> d           6.764   1.858   3.865  0.00  0.00     0.165 C 
BRANCH  17  18
ATOM     18  C11 <0> d           8.261   2.144   3.994  0.00  0.00     0.044 C 
BRANCH  18  19
ATOM     19  C12 <0> d           8.499   3.654   3.930  0.00  0.00     0.233 C 
BRANCH  19  20
ATOM     20  N3  <0> d           9.937   3.929   4.054  0.00  0.00    -0.072 N 
ATOM     21  H26 <0> d          10.272   3.572   4.936  0.00  0.00     0.277 HD
ATOM     22  H35 <0> d          10.431   3.478   3.299  0.00  0.00     0.277 HD
BRANCH  20  23
ATOM     23  C13 <0> d          10.165   5.379   3.993  0.00  0.00     0.177 C 
ATOM     24  C14 <0> d          11.645   5.673   4.247  0.00  0.00     0.039 C 
ATOM     25  C15 <0> d           9.771   5.899   2.609  0.00  0.00     0.039 C 
ENDBRANCH  20  23
ENDBRANCH  19  20
ENDBRANCH  18  19
ENDBRANCH  17  18
ENDBRANCH  14  17
ENDBRANCH   1  14
TORSDOF 10
