REMARK  6 active torsions:
REMARK  status: ('A' for Active; 'I' for Inactive)
REMARK    1  A    between atoms: C4_4  and  C7_7 
REMARK    2  A    between atoms: C7_7  and  C8_8 
REMARK    3  A    between atoms: C8_8  and  C22_24 
REMARK    4  A    between atoms: N1_11  and  C13_14 
REMARK    5  A    between atoms: C13_14  and  C14_15 
REMARK    6  A    between atoms: C22_24  and  O1_25 
ROOT
ATOM      1  C8  <0> d           4.171  -0.963   1.399  0.00  0.00    -0.012 C 
ATOM      2  C9  <0> d           4.354   0.373   2.124  0.00  0.00     0.039 C 
ATOM      3  C10 <0> d           5.459   1.175   1.433  0.00  0.00     0.236 C 
ATOM      4  N1  <0> d           6.716   0.419   1.474  0.00  0.00    -0.067 N 
ATOM      5  C11 <0> d           6.570  -0.831   0.720  0.00  0.00     0.236 C 
ATOM      6  C12 <0> d           5.508  -1.711   1.383  0.00  0.00     0.039 C 
ATOM      7  H28 <0> d           6.949   0.207   2.433  0.00  0.00     0.280 HD
ENDROOT
BRANCH   4   8
ATOM      8  C13 <0> d           7.790   1.225   0.880  0.00  0.00     0.271 C 
BRANCH   8   9
ATOM      9  C14 <0> d           9.104   0.502   1.032  0.00  0.00    -0.024 A 
ATOM     10  C21 <0> d          10.025   0.531   2.231  0.00  0.00     0.156 A 
ATOM     11  N2  <0> d          11.161  -0.331   1.887  0.00  0.00    -0.385 N 
ATOM     12  C20 <0> d          10.976  -0.803   0.678  0.00  0.00     0.038 A 
ATOM     13  H27 <0> d          11.923  -0.517   2.457  0.00  0.00     0.160 HD
ATOM     14  C15 <0> d           9.701  -0.300   0.120  0.00  0.00    -0.004 A 
ATOM     15  C19 <0> d          11.762  -1.671  -0.130  0.00  0.00     0.030 A 
ATOM     16  C16 <0> d           9.320  -0.723  -1.232  0.00  0.00     0.014 A 
ATOM     17  C17 <0> d          10.141  -1.552  -1.916  0.00  0.00     0.001 A 
ATOM     18  C18 <0> d          11.344  -2.016  -1.366  0.00  0.00     0.002 A 
ENDBRANCH   8   9
ENDBRANCH   4   8
BRANCH   1  19
ATOM     19  C7  <0> d           3.711  -0.707  -0.038  0.00  0.00     0.050 C 
BRANCH  19  20
ATOM     20  C4  <0> d           2.396   0.029  -0.020  0.00  0.00    -0.057 A 
ATOM     21  C3  <0> d           2.377   1.411  -0.013  0.00  0.00     0.007 A 
ATOM     22  C2  <0> d           1.171   2.086   0.002  0.00  0.00     0.001 A 
ATOM     23  C1  <0> d          -0.017   1.378   0.010  0.00  0.00     0.000 A 
ATOM     24  C6  <0> d           0.002  -0.004   0.002  0.00  0.00     0.001 A 
ATOM     25  C5  <0> d           1.208  -0.679  -0.012  0.00  0.00     0.007 A 
ENDBRANCH  19  20
ENDBRANCH   1  19
BRANCH   1  26
ATOM     26  C22 <0> d           3.123  -1.805   2.130  0.00  0.00     0.173 C 
BRANCH  26  27
ATOM     27  O1  <0> d           1.878  -1.104   2.147  0.00  0.00    -0.400 OA
ATOM     28  H26 <0> d           1.165  -1.580   2.595  0.00  0.00     0.209 HD
ENDBRANCH  26  27
ENDBRANCH   1  26
TORSDOF 6
