REMARK  7 active torsions:
REMARK  status: ('A' for Active; 'I' for Inactive)
REMARK    1  A    between atoms: C6_6  and  S1_26 
REMARK    2  A    between atoms: N1_10  and  C10_11 
REMARK    3  A    between atoms: C10_11  and  C11_12 
REMARK    4  A    between atoms: C14_15  and  O1_18 
REMARK    5  A    between atoms: O1_18  and  C17_19 
REMARK    6  A    between atoms: C17_19  and  C18_20 
REMARK    7  A    between atoms: S1_26  and  N4_29 
ROOT
ATOM      1  C1  <0> d          -0.019   1.526   0.010  0.00  0.00     0.032 C 
ATOM      2  C2  <0> d           0.002  -0.004   0.002  0.00  0.00     0.085 A 
ATOM      3  C3  <0> d           0.778  -0.520  -1.221  0.00  0.00     0.065 A 
ATOM      4  C4  <0> d           1.931  -1.304  -0.635  0.00  0.00    -0.028 A 
ATOM      5  C5  <0> d           2.960  -1.995  -1.246  0.00  0.00     0.034 A 
ATOM      6  C6  <0> d           3.911  -2.644  -0.481  0.00  0.00     0.080 A 
ATOM      7  C7  <0> d           3.831  -2.599   0.899  0.00  0.00     0.027 A 
ATOM      8  C8  <0> d           2.807  -1.911   1.513  0.00  0.00     0.031 A 
ATOM      9  C9  <0> d           1.842  -1.253   0.747  0.00  0.00     0.037 A 
ATOM     10  N1  <0> d           0.735  -0.509   1.166  0.00  0.00    -0.371 N 
ENDROOT
BRANCH  10  11
ATOM     11  C10 <0> d           0.363  -0.268   2.562  0.00  0.00     0.162 C 
BRANCH  11  12
ATOM     12  C11 <0> d          -0.561  -1.363   3.031  0.00  0.00    -0.040 A 
ATOM     13  C16 <0> d          -0.039  -2.505   3.609  0.00  0.00     0.011 A 
ATOM     14  C15 <0> d          -0.884  -3.508   4.045  0.00  0.00     0.037 A 
ATOM     15  C14 <0> d          -2.256  -3.372   3.893  0.00  0.00     0.069 A 
ATOM     16  C13 <0> d          -2.777  -2.227   3.308  0.00  0.00     0.037 A 
ATOM     17  C12 <0> d          -1.928  -1.225   2.878  0.00  0.00     0.011 A 
BRANCH  15  18
ATOM     18  O1  <0> d          -3.089  -4.359   4.317  0.00  0.00    -0.344 OA
BRANCH  18  19
ATOM     19  C17 <0> d          -2.482  -5.509   4.911  0.00  0.00     0.254 C 
BRANCH  19  20
ATOM     20  C18 <0> d          -3.554  -6.488   5.316  0.00  0.00     0.129 A 
ATOM     21  N3  <0> d          -4.051  -7.476   4.541  0.00  0.00    -0.346 N 
ATOM     22  C20 <0> d          -4.997  -8.133   5.281  0.00  0.00     0.111 A 
ATOM     23  C21 <0> d          -3.652  -7.787   3.167  0.00  0.00     0.157 C 
ATOM     24  C19 <0> d          -5.050  -7.520   6.479  0.00  0.00     0.136 A 
ATOM     25  N2  <0> d          -4.158  -6.519   6.473  0.00  0.00    -0.244 NA
ENDBRANCH  19  20
ENDBRANCH  18  19
ENDBRANCH  15  18
ENDBRANCH  11  12
ENDBRANCH  10  11
BRANCH   6  26
ATOM     26  S1  <0> d           5.222  -3.525  -1.262  0.00  0.00     0.256 S 
ATOM     27  O2  <0> d           5.670  -4.498  -0.329  0.00  0.00    -0.201 OA
ATOM     28  O3  <0> d           4.763  -3.869  -2.561  0.00  0.00    -0.201 OA
BRANCH  26  29
ATOM     29  N4  <0> d           6.473  -2.459  -1.469  0.00  0.00    -0.324 N 
ATOM     30  H23 <0> d           6.381  -1.540  -1.173  0.00  0.00     0.169 HD
ATOM     31  H24 <0> d           7.297  -2.753  -1.887  0.00  0.00     0.169 HD
ENDBRANCH  26  29
ENDBRANCH   6  26
TORSDOF 7
