REMARK  7 active torsions:
REMARK  status: ('A' for Active; 'I' for Inactive)
REMARK    1  A    between atoms: N1_5  and  C5_7 
REMARK    2  A    between atoms: C8_10  and  C10_13 
REMARK    3  A    between atoms: C10_13  and  O2_15 
REMARK    4  A    between atoms: O2_15  and  C11_16 
REMARK    5  A    between atoms: C11_16  and  C12_17 
REMARK       I    between atoms: C12_17  and  N4_19 
REMARK    6  A    between atoms: N4_19  and  C13_20 
REMARK    7  A    between atoms: C14_21  and  C17_25 
REMARK       I    between atoms: C17_25  and  N5_27 
ROOT
ATOM      1  O2  <0> d          -0.416  -7.833   3.342  0.00  0.00    -0.308 OA
ENDROOT
BRANCH   1   2
ATOM      2  C10 <0> d           0.071  -6.684   3.850  0.00  0.00     0.295 C 
ATOM      3  O1  <0> d           0.505  -6.657   4.984  0.00  0.00    -0.259 OA
BRANCH   2   4
ATOM      4  C8  <0> d           0.076  -5.458   3.029  0.00  0.00     0.057 A 
ATOM      5  C7  <0> d           0.581  -4.256   3.547  0.00  0.00     0.023 A 
ATOM      6  C6  <0> d           0.565  -3.137   2.739  0.00  0.00     0.053 A 
ATOM      7  C5  <0> d           0.053  -3.236   1.449  0.00  0.00     0.150 A 
ATOM      8  N3  <0> d          -0.420  -4.385   0.990  0.00  0.00    -0.240 NA
ATOM      9  C9  <0> d          -0.420  -5.478   1.724  0.00  0.00     0.136 A 
BRANCH   7  10
ATOM     10  N1  <0> d           0.034  -2.108   0.629  0.00  0.00    -0.220 N 
ATOM     11  C4  <0> d           0.028  -2.107  -0.731  0.00  0.00     0.036 A 
ATOM     12  C3  <0> d           0.008  -0.817  -1.138  0.00  0.00     0.055 A 
ATOM     13  C18 <0> d           0.041  -3.321  -1.622  0.00  0.00     0.070 C 
ATOM     14  C2  <0> d           0.002  -0.004   0.002  0.00  0.00     0.053 A 
ATOM     15  C1  <0> d          -0.018   1.503   0.010  0.00  0.00     0.072 C 
ATOM     16  N2  <0> d           0.023  -0.775   1.058  0.00  0.00    -0.171 NA
ENDBRANCH   7  10
ENDBRANCH   2   4
ENDBRANCH   1   2
BRANCH   1  17
ATOM     17  C11 <0> d          -0.390  -8.981   4.193  0.00  0.00     0.282 C 
BRANCH  17  18
ATOM     18  C12 <0> d          -0.970 -10.163   3.461  0.00  0.00     0.246 C 
ATOM     19  O3  <0> d          -1.367 -10.035   2.321  0.00  0.00    -0.271 OA
ATOM     20  N4  <0> d          -1.048 -11.362   4.071  0.00  0.00    -0.319 N 
ATOM     21  H10 <0> d          -0.731 -11.464   4.982  0.00  0.00     0.169 HD
BRANCH  20  22
ATOM     22  C13 <0> d          -1.582 -12.450   3.397  0.00  0.00     0.092 A 
ATOM     23  S1  <0> d          -2.185 -12.498   1.831  0.00  0.00    -0.083 SA
ATOM     24  C16 <0> d          -2.659 -14.210   1.731  0.00  0.00     0.053 A 
ATOM     25  C15 <0> d          -2.334 -14.694   2.945  0.00  0.00     0.027 A 
ATOM     26  C14 <0> d          -1.746 -13.746   3.863  0.00  0.00     0.066 A 
BRANCH  26  27
ATOM     27  C17 <0> d          -1.342 -14.134   5.218  0.00  0.00     0.252 C 
ATOM     28  O4  <0> d          -0.849 -13.310   5.966  0.00  0.00    -0.268 OA
ATOM     29  N5  <0> d          -1.517 -15.403   5.636  0.00  0.00    -0.366 N 
ATOM     30  H13 <0> d          -1.910 -16.060   5.040  0.00  0.00     0.159 HD
ATOM     31  H14 <0> d          -1.250 -15.660   6.532  0.00  0.00     0.159 HD
ENDBRANCH  26  27
ENDBRANCH  20  22
ENDBRANCH  17  18
ENDBRANCH   1  17
TORSDOF 7
