REMARK  5 active torsions:
REMARK  status: ('A' for Active; 'I' for Inactive)
REMARK    1  A    between atoms: C6_6  and  C7_7 
REMARK    2  A    between atoms: N1_11  and  C11_15 
REMARK    3  A    between atoms: C11_15  and  C12_16 
REMARK    4  A    between atoms: C12_16  and  N2_17 
REMARK       I    between atoms: N2_17  and  C13_18 
REMARK    5  A    between atoms: C13_18  and  C14_20 
ROOT
ATOM      1  C7  <0> d          -1.258  -0.759   0.011  0.00  0.00     0.036 C 
ATOM      2  C8  <0> d          -1.240  -2.111  -0.099  0.00  0.00     0.079 A 
ATOM      3  C9  <0> d          -2.364  -3.062  -0.220  0.00  0.00     0.268 A 
ATOM      4  O1  <0> d          -3.521  -2.685  -0.233  0.00  0.00    -0.266 OA
ATOM      5  N1  <0> d          -2.049  -4.343  -0.313  0.00  0.00    -0.273 N 
ATOM      6  C10 <0> d          -0.765  -4.756  -0.297  0.00  0.00     0.294 A 
ATOM      7  O2  <0> d          -0.336  -5.891  -0.374  0.00  0.00    -0.259 OA
ATOM      8  S1  <0> d           0.152  -3.232  -0.146  0.00  0.00    -0.023 SA
ENDROOT
BRANCH   5   9
ATOM      9  C11 <0> d          -3.119  -5.336  -0.434  0.00  0.00     0.155 C 
BRANCH   9  10
ATOM     10  C12 <0> d          -3.437  -5.564  -1.913  0.00  0.00     0.143 C 
BRANCH  10  11
ATOM     11  N2  <0> d          -4.507  -6.558  -2.035  0.00  0.00    -0.355 N 
ATOM     12  C13 <0> d          -4.955  -6.920  -3.254  0.00  0.00     0.253 C 
ATOM     13  O3  <0> d          -4.471  -6.422  -4.252  0.00  0.00    -0.268 OA
ATOM     14  H11 <0> d          -4.893  -6.955  -1.239  0.00  0.00     0.162 HD
BRANCH  12  15
ATOM     15  C14 <0> d          -6.032  -7.919  -3.377  0.00  0.00     0.047 A 
ATOM     16  C18 <0> d          -6.494  -8.294  -4.622  0.00  0.00     0.108 A 
ATOM     17  N3  <0> d          -7.473  -9.210  -4.739  0.00  0.00    -0.333 N 
ATOM     18  C17 <0> d          -8.030  -9.773  -3.651  0.00  0.00     0.245 A 
ATOM     19  H1  <0> d          -7.785  -9.465  -5.621  0.00  0.00     0.168 HD
ATOM     20  C16 <0> d          -7.595  -9.418  -2.360  0.00  0.00     0.075 A 
ATOM     21  O4  <0> d          -8.919 -10.597  -3.784  0.00  0.00    -0.268 OA
ATOM     22  C15 <0> d          -6.603  -8.498  -2.218  0.00  0.00     0.024 A 
ENDBRANCH  12  15
ENDBRANCH  10  11
ENDBRANCH   9  10
ENDBRANCH   5   9
BRANCH   1  23
ATOM     23  C6  <0> d          -0.003   0.001  -0.058  0.00  0.00    -0.035 A 
ATOM     24  C1  <0> d           1.190  -0.642  -0.411  0.00  0.00     0.014 A 
ATOM     25  C2  <0> d           2.364   0.077  -0.473  0.00  0.00     0.043 A 
ATOM     26  C3  <0> d           2.365   1.434  -0.186  0.00  0.00     0.116 A 
ATOM     27  C4  <0> d           1.188   2.077   0.164  0.00  0.00     0.043 A 
ATOM     28  F1  <0> d           3.520   2.133  -0.249  0.00  0.00    -0.206 F 
ATOM     29  C5  <0> d           0.006   1.371   0.230  0.00  0.00     0.014 A 
ENDBRANCH   1  23
TORSDOF 5
