REMARK  4 active torsions:
REMARK  status: ('A' for Active; 'I' for Inactive)
REMARK    1  A    between atoms: C6_9  and  C7_10 
REMARK    2  A    between atoms: C7_10  and  N2_11 
REMARK       I    between atoms: N2_11  and  C8_12 
REMARK    3  A    between atoms: C8_12  and  C9_14 
REMARK    4  A    between atoms: C9_14  and  C10_15 
ROOT
ATOM      1  N2  <0> d           5.707  -4.116  -1.440  0.00  0.00    -0.356 N 
ATOM      2  C8  <0> d           4.810  -3.133  -1.224  0.00  0.00     0.223 C 
ATOM      3  O2  <0> d           4.761  -2.181  -1.974  0.00  0.00    -0.273 OA
ATOM      4  H8  <0> d           5.745  -4.877  -0.840  0.00  0.00     0.162 HD
ENDROOT
BRANCH   1   5
ATOM      5  C7  <0> d           6.623  -4.034  -2.579  0.00  0.00     0.167 C 
BRANCH   5   6
ATOM      6  C6  <0> d           7.516  -5.248  -2.594  0.00  0.00     0.033 A 
ATOM      7  C2  <0> d           7.188  -6.336  -3.349  0.00  0.00    -0.047 A 
ATOM      8  C1  <0> d           5.929  -6.336  -4.177  0.00  0.00     0.049 C 
ATOM      9  C3  <0> d           8.037  -7.451  -3.349  0.00  0.00     0.032 A 
ATOM     10  C4  <0> d           9.163  -7.444  -2.598  0.00  0.00     0.009 A 
ATOM     11  N1  <0> d           9.486  -6.362  -1.844  0.00  0.00    -0.327 N 
ATOM     12  C15 <0> d          10.068  -8.648  -2.599  0.00  0.00     0.068 C 
ATOM     13  H1  <0> d          10.296  -6.373  -1.311  0.00  0.00     0.169 HD
ATOM     14  C5  <0> d           8.693  -5.273  -1.826  0.00  0.00     0.254 A 
ATOM     15  O1  <0> d           8.996  -4.309  -1.143  0.00  0.00    -0.268 OA
ENDBRANCH   5   6
ENDBRANCH   1   5
BRANCH   2  16
ATOM     16  C9  <0> d           3.867  -3.217  -0.052  0.00  0.00     0.163 C 
BRANCH  16  17
ATOM     17  C10 <0> d           2.974  -2.003  -0.037  0.00  0.00     0.062 A 
ATOM     18  N4  <0> d           3.386  -0.726  -0.034  0.00  0.00    -0.227 NA
ATOM     19  C14 <0> d           2.343   0.054  -0.020  0.00  0.00     0.177 A 
ATOM     20  N3  <0> d           1.195  -0.694  -0.013  0.00  0.00    -0.309 N 
ATOM     21  S1  <0> d           1.726   1.720  -0.005  0.00  0.00    -0.062 SA
ATOM     22  C11 <0> d           1.631  -2.016  -0.024  0.00  0.00     0.126 A 
ATOM     23  C12 <0> d           0.002  -0.004   0.002  0.00  0.00     0.106 A 
ATOM     24  C13 <0> d          -0.016   1.328   0.009  0.00  0.00     0.071 A 
ENDBRANCH  16  17
ENDBRANCH   2  16
TORSDOF 4
