REMARK  6 active torsions:
REMARK  status: ('A' for Active; 'I' for Inactive)
REMARK    1  A    between atoms: C2_2  and  C3_3 
REMARK    2  A    between atoms: C2_2  and  N3_13 
REMARK       I    between atoms: N3_13  and  C10_14 
REMARK    3  A    between atoms: C10_14  and  C11_16 
REMARK    4  A    between atoms: N4_18  and  C19_25 
REMARK    5  A    between atoms: C19_25  and  C20_26 
REMARK    6  A    between atoms: C20_26  and  O3_27 
ROOT
ATOM      1  N3  <0> d           0.711  -0.489   1.189  0.00  0.00    -0.349 N 
ATOM      2  C10 <0> d           2.054  -0.600   1.174  0.00  0.00     0.254 C 
ATOM      3  O2  <0> d           2.678  -0.296   0.174  0.00  0.00    -0.268 OA
ATOM      4  H8  <0> d           0.213  -0.731   1.986  0.00  0.00     0.163 HD
ENDROOT
BRANCH   1   5
ATOM      5  C2  <0> d           0.002  -0.004   0.002  0.00  0.00     0.114 C 
ATOM      6  C1  <0> d          -0.019   1.526   0.010  0.00  0.00     0.037 C 
BRANCH   5   7
ATOM      7  C3  <0> d          -1.412  -0.526   0.013  0.00  0.00    -0.034 A 
ATOM      8  C9  <0> d          -1.966  -0.939  -1.148  0.00  0.00     0.041 A 
ATOM      9  C8  <0> d          -3.335  -1.451  -1.151  0.00  0.00     0.063 A 
ATOM     10  C6  <0> d          -4.085  -1.490   0.145  0.00  0.00     0.063 A 
ATOM     11  N2  <0> d          -4.144  -1.919  -2.067  0.00  0.00    -0.306 N 
ATOM     12  C5  <0> d          -3.411  -1.019   1.353  0.00  0.00     0.032 A 
ATOM     13  N1  <0> d          -5.270  -1.978  -0.121  0.00  0.00    -0.307 N 
ATOM     14  C4  <0> d          -2.142  -0.564   1.274  0.00  0.00     0.011 A 
ATOM     15  C7  <0> d          -5.336  -2.250  -1.467  0.00  0.00     0.325 A 
ATOM     16  H21 <0> d          -5.981  -2.123   0.523  0.00  0.00     0.170 HD
ATOM     17  O1  <0> d          -6.300  -2.712  -2.039  0.00  0.00    -0.247 OA
ATOM     18  H22 <0> d          -3.938  -2.016  -3.010  0.00  0.00     0.170 HD
ENDBRANCH   5   7
ENDBRANCH   1   5
BRANCH   2  19
ATOM     19  C11 <0> d           2.764  -1.087   2.364  0.00  0.00     0.060 A 
ATOM     20  C14 <0> d           4.221  -1.265   2.511  0.00  0.00     0.008 A 
ATOM     21  C13 <0> d           4.419  -1.744   3.816  0.00  0.00     0.045 A 
ATOM     22  C15 <0> d           5.310  -1.058   1.669  0.00  0.00     0.015 A 
ATOM     23  N4  <0> d           3.178  -1.857   4.408  0.00  0.00    -0.353 N 
ATOM     24  C18 <0> d           5.712  -2.007   4.256  0.00  0.00     0.030 A 
ATOM     25  C12 <0> d           2.207  -1.468   3.548  0.00  0.00     0.109 A 
ATOM     26  C17 <0> d           6.781  -1.807   3.410  0.00  0.00     0.002 A 
ATOM     27  C16 <0> d           6.583  -1.330   2.123  0.00  0.00     0.001 A 
BRANCH  23  28
ATOM     28  C19 <0> d           2.945  -2.330   5.775  0.00  0.00     0.154 C 
BRANCH  28  29
ATOM     29  C20 <0> d           3.097  -1.162   6.752  0.00  0.00     0.187 C 
BRANCH  29  30
ATOM     30  O3  <0> d           2.869  -1.623   8.085  0.00  0.00    -0.394 OA
ATOM     31  C21 <0> d           2.987  -0.605   9.081  0.00  0.00     0.201 C 
ENDBRANCH  29  30
ENDBRANCH  28  29
ENDBRANCH  23  28
ENDBRANCH   2  19
TORSDOF 6
