REMARK  3 active torsions:
REMARK  status: ('A' for Active; 'I' for Inactive)
REMARK    1  A    between atoms: C6_6  and  N1_7 
REMARK    2  A    between atoms: N1_7  and  C7_8 
REMARK    3  A    between atoms: C12_13  and  N2_14 
ROOT
ATOM      1  C7  <0> d          -2.443  -0.089   0.117  0.00  0.00     0.061 A 
ATOM      2  C8  <0> d          -2.518   1.294   0.113  0.00  0.00     0.062 A 
ATOM      3  C9  <0> d          -3.753   1.929   0.218  0.00  0.00     0.043 A 
ATOM      4  C10 <0> d          -4.903   1.156   0.326  0.00  0.00    -0.020 A 
ATOM      5  C11 <0> d          -4.835  -0.220   0.330  0.00  0.00     0.041 A 
ATOM      6  C12 <0> d          -3.605  -0.853   0.220  0.00  0.00     0.053 A 
ATOM      7  C13 <0> d          -6.059   2.126   0.421  0.00  0.00     0.144 A 
ATOM      8  C14 <0> d          -5.405   3.489   0.352  0.00  0.00     0.226 A 
ATOM      9  O1  <0> d          -5.969   4.562   0.395  0.00  0.00    -0.273 OA
ATOM     10  N3  <0> d          -4.082   3.287   0.237  0.00  0.00    -0.326 N 
ATOM     11  H10 <0> d          -3.429   4.002   0.174  0.00  0.00     0.169 HD
ENDROOT
BRANCH   1  12
ATOM     12  N1  <0> d          -1.198  -0.721   0.010  0.00  0.00    -0.352 N 
ATOM     13  H3  <0> d          -1.093  -1.489  -0.573  0.00  0.00     0.166 HD
BRANCH  12  14
ATOM     14  C6  <0> d          -0.108  -0.245   0.744  0.00  0.00     0.077 A 
ATOM     15  C1  <0> d          -0.283   0.778   1.666  0.00  0.00     0.075 A 
ATOM     16  C2  <0> d           0.798   1.248   2.392  0.00  0.00     0.121 A 
ATOM     17  C3  <0> d           2.054   0.697   2.200  0.00  0.00     0.087 A 
ATOM     18  F3  <0> d           0.627   2.244   3.288  0.00  0.00    -0.206 F 
ATOM     19  C4  <0> d           2.232  -0.324   1.282  0.00  0.00     0.160 A 
ATOM     20  C5  <0> d           1.155  -0.797   0.553  0.00  0.00     0.181 A 
ATOM     21  F2  <0> d           3.459  -0.859   1.097  0.00  0.00    -0.203 F 
ATOM     22  F1  <0> d           1.329  -1.792  -0.344  0.00  0.00    -0.200 F 
ENDBRANCH  12  14
ENDBRANCH   1  12
BRANCH   6  23
ATOM     23  N2  <0> d          -3.530  -2.253   0.218  0.00  0.00    -0.397 N 
ATOM     24  H6  <0> d          -2.669  -2.693   0.144  0.00  0.00     0.156 HD
ATOM     25  H7  <0> d          -4.340  -2.782   0.290  0.00  0.00     0.156 HD
ENDBRANCH   6  23
TORSDOF 3
