REMARK  4 active torsions:
REMARK  status: ('A' for Active; 'I' for Inactive)
REMARK    1  A    between atoms: C5_6  and  C6_7 
REMARK    2  A    between atoms: C6_7  and  N2_8 
REMARK    3  A    between atoms: N2_8  and  C7_9 
REMARK    4  A    between atoms: C7_9  and  C8_10 
ROOT
ATOM      1  N2  <0> d           1.411  -0.048   2.952  0.00  0.00    -0.070 N 
ATOM      2  H10 <0> d           1.967  -0.886   2.870  0.00  0.00     0.277 HD
ATOM      3  H19 <0> d           1.797   0.671   2.360  0.00  0.00     0.277 HD
ENDROOT
BRANCH   1   4
ATOM      4  C6  <0> d           0.031  -0.335   2.538  0.00  0.00     0.289 C 
BRANCH   4   5
ATOM      5  C5  <0> d           0.023  -0.804   1.106  0.00  0.00     0.036 A 
ATOM      6  N1  <0> d           0.002  -0.004   0.002  0.00  0.00    -0.363 N 
ATOM      7  C1  <0> d          -0.018   1.461   0.010  0.00  0.00     0.155 C 
ATOM      8  C2  <0> d           0.008  -0.792  -1.110  0.00  0.00     0.090 A 
ATOM      9  C3  <0> d           0.027  -2.081  -0.714  0.00  0.00     0.019 A 
ATOM     10  C4  <0> d           0.033  -2.089   0.695  0.00  0.00     0.028 A 
ENDBRANCH   4   5
ENDBRANCH   1   4
BRANCH   1  11
ATOM     11  C7  <0> d           1.417   0.410   4.348  0.00  0.00     0.238 C 
BRANCH  11  12
ATOM     12  C8  <0> d           2.855   0.708   4.780  0.00  0.00     0.026 C 
ATOM     13  C11 <0> d           2.858   1.313   6.212  0.00  0.00     0.146 C 
ATOM     14  S1  <0> d           4.605   1.002   6.706  0.00  0.00     0.144 S 
ATOM     15  C10 <0> d           5.012  -0.363   5.543  0.00  0.00     0.141 C 
ATOM     16  O1  <0> d           4.627   0.499   8.035  0.00  0.00    -0.228 OA
ATOM     17  O2  <0> d           5.390   2.140   6.376  0.00  0.00    -0.228 OA
ATOM     18  C9  <0> d           3.669  -0.597   4.810  0.00  0.00     0.022 C 
ENDBRANCH  11  12
ENDBRANCH   1  11
TORSDOF 4
