REMARK  2 active torsions:
REMARK  status: ('A' for Active; 'I' for Inactive)
REMARK    1  A    between atoms: C9_10  and  O2_11 
REMARK    2  A    between atoms: C15_19  and  N2_21 
ROOT
ATOM      1  C1  <0> d           0.093  -1.062  -0.006  0.00  0.00     0.051 C 
ATOM      2  C2  <0> d           0.104  -2.353   0.771  0.00  0.00    -0.024 A 
ATOM      3  C3  <0> d           0.129  -3.595   0.268  0.00  0.00     0.150 A 
ATOM      4  O1  <0> d           0.132  -4.497   1.265  0.00  0.00    -0.318 OA
ATOM      5  C4  <0> d           0.107  -3.885   2.467  0.00  0.00     0.121 A 
ATOM      6  C5  <0> d           0.095  -2.503   2.231  0.00  0.00     0.042 A 
ATOM      7  C6  <0> d           0.077  -1.598   3.301  0.00  0.00     0.093 A 
ATOM      8  C7  <0> d           0.075  -2.099   4.597  0.00  0.00    -0.011 A 
ATOM      9  C8  <0> d           0.087  -3.461   4.830  0.00  0.00     0.050 A 
ATOM     10  C9  <0> d           0.096  -4.359   3.778  0.00  0.00     0.101 A 
ATOM     11  C10 <0> d           0.064  -0.898   5.513  0.00  0.00     0.096 C 
ATOM     12  C11 <0> d           0.946  -1.048   6.719  0.00  0.00     0.016 C 
ATOM     13  C12 <0> d           0.875   0.170   7.641  0.00  0.00     0.020 C 
ATOM     14  C13 <0> d           1.443   1.403   6.938  0.00  0.00     0.122 C 
ATOM     15  N1  <0> d           0.392   2.063   6.153  0.00  0.00    -0.357 N 
ATOM     16  C14 <0> d          -0.041   1.528   5.001  0.00  0.00     0.283 C 
ATOM     17  O3  <0> d          -0.878   2.091   4.328  0.00  0.00    -0.268 OA
ATOM     18  C15 <0> d           0.549   0.213   4.573  0.00  0.00     0.322 C 
ATOM     19  O4  <0> d           0.059  -0.229   3.302  0.00  0.00    -0.302 OA
ATOM     20  H14 <0> d           0.007   2.895   6.471  0.00  0.00     0.162 HD
ENDROOT
BRANCH  18  21
ATOM     21  N2  <0> d           2.017   0.277   4.574  0.00  0.00    -0.028 N 
ATOM     22  C20 <0> d           2.547  -0.670   3.586  0.00  0.00     0.239 C 
ATOM     23  C19 <0> d           4.076  -0.666   3.639  0.00  0.00     0.028 C 
ATOM     24  C18 <0> d           4.589   0.742   3.325  0.00  0.00     0.003 C 
ATOM     25  C17 <0> d           3.971   1.732   4.317  0.00  0.00     0.028 C 
ATOM     26  C16 <0> d           2.446   1.640   4.238  0.00  0.00     0.239 C 
ATOM     27  H25 <0> d           2.362   0.034   5.490  0.00  0.00     0.284 HD
ENDBRANCH  18  21
BRANCH  10  28
ATOM     28  O2  <0> d           0.108  -5.697   4.021  0.00  0.00    -0.358 OA
ATOM     29  H7  <0> d           0.994  -6.074   4.103  0.00  0.00     0.217 HD
ENDBRANCH  10  28
TORSDOF 2
