REMARK  6 active torsions:
REMARK  status: ('A' for Active; 'I' for Inactive)
REMARK    1  A    between atoms: C6_6  and  O3_27 
REMARK    2  A    between atoms: C7_7  and  C11_11 
REMARK       I    between atoms: C11_11  and  N1_13 
REMARK    3  A    between atoms: N1_13  and  C12_14 
REMARK    4  A    between atoms: C12_14  and  C13_15 
REMARK    5  A    between atoms: C13_15  and  C14_16 
REMARK    6  A    between atoms: C13_15  and  N2_21 
ROOT
ATOM      1  C11 <0> d           2.637  -4.395   0.968  0.00  0.00     0.254 C 
ATOM      2  O1  <0> d           3.618  -5.039   1.285  0.00  0.00    -0.268 OA
ATOM      3  N1  <0> d           1.524  -5.027   0.545  0.00  0.00    -0.354 N 
ATOM      4  H8  <0> d           0.741  -4.513   0.292  0.00  0.00     0.162 HD
ENDROOT
BRANCH   3   5
ATOM      5  C12 <0> d           1.496  -6.489   0.468  0.00  0.00     0.163 C 
BRANCH   5   6
ATOM      6  C13 <0> d           0.088  -6.954   0.089  0.00  0.00     0.262 C 
BRANCH   6   7
ATOM      7  C14 <0> d           0.040  -8.460   0.087  0.00  0.00     0.085 A 
ATOM      8  O2  <0> d           0.082  -9.248   1.173  0.00  0.00    -0.325 OA
ATOM      9  C17 <0> d           0.013 -10.535   0.795  0.00  0.00     0.142 A 
ATOM     10  C16 <0> d          -0.065 -10.581  -0.547  0.00  0.00     0.027 A 
ATOM     11  C15 <0> d          -0.047  -9.243  -1.004  0.00  0.00     0.037 A 
ENDBRANCH   6   7
BRANCH   6  12
ATOM     12  N2  <0> d          -0.878  -6.433   1.065  0.00  0.00    -0.059 N 
ATOM     13  C22 <0> d          -2.212  -6.963   0.760  0.00  0.00     0.236 C 
ATOM     14  C21 <0> d          -3.237  -6.361   1.724  0.00  0.00     0.028 C 
ATOM     15  C20 <0> d          -2.856  -6.730   3.161  0.00  0.00     0.003 C 
ATOM     16  C19 <0> d          -1.433  -6.237   3.444  0.00  0.00     0.028 C 
ATOM     17  C18 <0> d          -0.476  -6.844   2.416  0.00  0.00     0.236 C 
ATOM     18  H25 <0> d          -0.897  -5.426   1.014  0.00  0.00     0.280 HD
ENDBRANCH   6  12
ENDBRANCH   5   6
ENDBRANCH   3   5
BRANCH   1  19
ATOM     19  C7  <0> d           2.665  -2.922   1.047  0.00  0.00     0.066 A 
ATOM     20  C6  <0> d           3.832  -2.265   1.490  0.00  0.00     0.082 A 
ATOM     21  C5  <0> d           3.879  -0.905   1.569  0.00  0.00     0.049 A 
ATOM     22  C4  <0> d           2.756  -0.141   1.207  0.00  0.00    -0.023 A 
ATOM     23  C3  <0> d           2.780   1.262   1.280  0.00  0.00     0.012 A 
ATOM     24  C9  <0> d           1.577  -0.792   0.760  0.00  0.00    -0.025 A 
ATOM     25  C2  <0> d           1.678   1.976   0.924  0.00  0.00     0.001 A 
ATOM     26  C1  <0> d           0.520   1.337   0.484  0.00  0.00     0.001 A 
ATOM     27  C10 <0> d           0.458  -0.020   0.400  0.00  0.00     0.012 A 
ATOM     28  C8  <0> d           1.544  -2.192   0.684  0.00  0.00     0.032 A 
BRANCH  20  29
ATOM     29  O3  <0> d           4.921  -2.995   1.842  0.00  0.00    -0.360 OA
ATOM     30  H24 <0> d           4.942  -3.245   2.776  0.00  0.00     0.217 HD
ENDBRANCH  20  29
ENDBRANCH   1  19
TORSDOF 6
