REMARK  4 active torsions:
REMARK  status: ('A' for Active; 'I' for Inactive)
REMARK    1  A    between atoms: C2_2  and  C4_4 
REMARK    2  A    between atoms: C4_4  and  S1_5 
REMARK    3  A    between atoms: S1_5  and  C5_8 
REMARK    4  A    between atoms: C9_16  and  C10_17 
ROOT
ATOM      1  C5  <0> d          -4.214  -0.554  -0.612  0.00  0.00     0.242 A 
ATOM      2  N1  <0> d          -5.197   0.134  -0.119  0.00  0.00    -0.178 NA
ATOM      3  S2  <0> d          -6.561  -0.757  -0.512  0.00  0.00     0.053 SA
ATOM      4  C6  <0> d          -5.832  -2.048  -1.273  0.00  0.00     0.202 A 
ATOM      5  N2  <0> d          -6.358  -3.142  -1.777  0.00  0.00    -0.182 NA
ATOM      6  C7  <0> d          -5.551  -4.089  -2.292  0.00  0.00     0.283 C 
ATOM      7  O3  <0> d          -6.014  -5.051  -2.884  0.00  0.00    -0.265 OA
ATOM      8  C8  <0> d          -4.085  -3.934  -2.123  0.00  0.00     0.079 C 
ATOM      9  C9  <0> d          -3.234  -5.016  -2.131  0.00  0.00     0.032 C 
ATOM     10  C17 <0> d          -3.585  -2.541  -1.943  0.00  0.00     0.125 C 
ATOM     11  N3  <0> d          -2.421  -2.134  -2.371  0.00  0.00    -0.384 N 
ATOM     12  N4  <0> d          -4.497  -1.703  -1.269  0.00  0.00    -0.247 N 
ATOM     13  H16 <0> d          -1.794  -2.770  -2.749  0.00  0.00     0.157 HD
ATOM     14  H17 <0> d          -2.182  -1.196  -2.311  0.00  0.00     0.157 HD
ENDROOT
BRANCH   9  15
ATOM     15  C10 <0> d          -3.778  -6.376  -2.114  0.00  0.00    -0.032 A 
ATOM     16  C15 <0> d          -4.909  -6.671  -1.340  0.00  0.00     0.051 A 
ATOM     17  C14 <0> d          -5.420  -7.953  -1.331  0.00  0.00     0.105 A 
ATOM     18  C13 <0> d          -4.805  -8.956  -2.084  0.00  0.00     0.105 A 
ATOM     19  O4  <0> d          -6.492  -8.493  -0.680  0.00  0.00    -0.323 OA
ATOM     20  C12 <0> d          -3.681  -8.665  -2.848  0.00  0.00     0.040 A 
ATOM     21  O5  <0> d          -5.492 -10.119  -1.901  0.00  0.00    -0.323 OA
ATOM     22  C11 <0> d          -3.167  -7.389  -2.867  0.00  0.00     0.014 A 
ATOM     23  C16 <0> d          -6.769  -9.732  -1.359  0.00  0.00     0.352 C 
ENDBRANCH   9  15
BRANCH   1  24
ATOM     24  S1  <0> d          -2.550  -0.001  -0.439  0.00  0.00     0.210 S 
ATOM     25  O1  <0> d          -1.773  -1.190  -0.417  0.00  0.00    -0.220 OA
ATOM     26  O2  <0> d          -2.573   0.870   0.684  0.00  0.00    -0.220 OA
BRANCH  24  27
ATOM     27  C4  <0> d          -2.211   0.940  -1.952  0.00  0.00     0.153 C 
BRANCH  27  28
ATOM     28  C2  <0> d          -0.770   1.452  -1.922  0.00  0.00    -0.008 C 
ATOM     29  C1  <0> d           0.195   0.265  -1.959  0.00  0.00     0.010 C 
ATOM     30  C3  <0> d          -0.521   2.348  -3.137  0.00  0.00     0.010 C 
ENDBRANCH  27  28
ENDBRANCH  24  27
ENDBRANCH   1  24
TORSDOF 4
