REMARK  7 active torsions:
REMARK  status: ('A' for Active; 'I' for Inactive)
REMARK    1  A    between atoms: C2_2  and  C4_4 
REMARK    2  A    between atoms: C4_4  and  O2_6 
REMARK    3  A    between atoms: O2_6  and  C5_7 
REMARK    4  A    between atoms: C7_9  and  C19_24 
REMARK    5  A    between atoms: C11_13  and  C18_22 
REMARK    6  A    between atoms: C18_22  and  O5_23 
REMARK    7  A    between atoms: C19_24  and  O6_25 
ROOT
ATOM      1  C5  <0> d          -0.074  -1.011  -3.862  0.00  0.00     0.144 C 
ATOM      2  C6  <0> d           1.422  -1.206  -4.250  0.00  0.00     0.040 C 
ATOM      3  C7  <0> d           1.704  -2.597  -4.771  0.00  0.00     0.012 C 
ATOM      4  C8  <0> d           1.369  -2.762  -6.169  0.00  0.00     0.007 C 
ATOM      5  C9  <0> d           1.056  -4.197  -6.686  0.00  0.00     0.005 C 
ATOM      6  C10 <0> d          -0.345  -4.233  -7.347  0.00  0.00     0.036 C 
ATOM      7  C11 <0> d          -1.260  -3.582  -6.343  0.00  0.00    -0.058 C 
ATOM      8  C12 <0> d          -1.431  -2.258  -6.376  0.00  0.00     0.011 C 
ATOM      9  C13 <0> d          -2.025  -1.349  -5.430  0.00  0.00     0.166 C 
ATOM     10  C14 <0> d          -0.873  -0.391  -5.005  0.00  0.00     0.087 C 
ATOM     11  C15 <0> d          -1.555   0.902  -4.681  0.00  0.00     0.017 C 
ATOM     12  C16 <0> d          -1.190   1.978  -3.963  0.00  0.00     0.025 C 
ATOM     13  C17 <0> d          -2.913   0.690  -5.340  0.00  0.00     0.289 C 
ATOM     14  O3  <0> d          -3.733   1.583  -5.445  0.00  0.00    -0.260 OA
ATOM     15  O4  <0> d          -3.060  -0.502  -5.875  0.00  0.00    -0.307 OA
ENDROOT
BRANCH   1  16
ATOM     16  O2  <0> d          -0.155  -0.195  -2.639  0.00  0.00    -0.311 OA
BRANCH  16  17
ATOM     17  C4  <0> d          -0.168  -0.854  -1.463  0.00  0.00     0.288 C 
ATOM     18  O1  <0> d          -0.114  -2.068  -1.446  0.00  0.00    -0.260 OA
BRANCH  17  19
ATOM     19  C2  <0> d          -0.248  -0.105  -0.202  0.00  0.00     0.004 C 
ATOM     20  C1  <0> d          -0.316   1.401  -0.223  0.00  0.00     0.054 C 
ATOM     21  C3  <0> d          -0.261  -0.756   0.959  0.00  0.00     0.024 C 
ENDBRANCH  17  19
ENDBRANCH  16  17
ENDBRANCH   1  16
BRANCH   3  22
ATOM     22  C19 <0> d           1.130  -3.664  -3.843  0.00  0.00     0.168 C 
BRANCH  22  23
ATOM     23  O6  <0> d           1.641  -3.471  -2.522  0.00  0.00    -0.400 OA
ATOM     24  H26 <0> d           1.317  -4.116  -1.878  0.00  0.00     0.209 HD
ENDBRANCH  22  23
ENDBRANCH   3  22
BRANCH   7  25
ATOM     25  C18 <0> d          -1.996  -4.451  -5.331  0.00  0.00     0.198 C 
BRANCH  25  26
ATOM     26  O5  <0> d          -2.759  -5.443  -6.021  0.00  0.00    -0.397 OA
ATOM     27  H23 <0> d          -3.255  -6.034  -5.438  0.00  0.00     0.209 HD
ENDBRANCH  25  26
ENDBRANCH   7  25
TORSDOF 7
