REMARK  4 active torsions:
REMARK  status: ('A' for Active; 'I' for Inactive)
REMARK    1  A    between atoms: N1_2  and  C2_3 
REMARK    2  A    between atoms: N1_2  and  C9_14 
REMARK    3  A    between atoms: C2_3  and  C3_4 
REMARK    4  A    between atoms: C4_6  and  C5_9 
ROOT
ATOM      1  C1  <0> d           0.201   1.451   0.041  0.00  0.00     0.310 C 
ATOM      2  N1  <0> d           0.002  -0.004   0.002  0.00  0.00     0.096 N 
ENDROOT
BRANCH   2   3
ATOM      3  C2  <0> d           0.573  -0.646   1.194  0.00  0.00     0.355 C 
BRANCH   3   4
ATOM      4  C3  <0> d          -0.171  -0.182   2.419  0.00  0.00     0.184 A 
ATOM      5  N3  <0> d          -1.225  -0.756   2.925  0.00  0.00    -0.109 NA
ATOM      6  O1  <0> d          -1.597   0.002   4.067  0.00  0.00    -0.191 OA
ATOM      7  C4  <0> d          -0.709   1.009   4.153  0.00  0.00     0.207 A 
ATOM      8  N2  <0> d           0.142   0.886   3.156  0.00  0.00    -0.202 NA
BRANCH   7   9
ATOM      9  C5  <0> d          -0.692   2.064   5.182  0.00  0.00     0.026 A 
ATOM     10  C8  <0> d           0.258   3.045   5.180  0.00  0.00     0.065 A 
ATOM     11  S1  <0> d          -0.124   3.995   6.509  0.00  0.00    -0.113 SA
ATOM     12  C7  <0> d          -1.549   3.117   7.116  0.00  0.00     0.050 A 
ATOM     13  C6  <0> d          -1.674   2.101   6.237  0.00  0.00     0.023 A 
ENDBRANCH   7   9
ENDBRANCH   3   4
ENDBRANCH   2   3
BRANCH   2  14
ATOM     14  C9  <0> d           0.565  -0.580  -1.227  0.00  0.00     0.227 C 
ATOM     15  C15 <0> d          -0.080   0.089  -2.444  0.00  0.00     0.069 C 
ATOM     16  C14 <0> d          -1.574  -0.271  -2.462  0.00  0.00     0.188 C 
ATOM     17  C13 <0> d          -2.153  -0.069  -1.043  0.00  0.00     0.035 C 
ATOM     18  N4  <0> d          -1.652  -1.754  -2.691  0.00  0.00    -0.067 N 
ATOM     19  C12 <0> d          -1.924  -1.416  -0.327  0.00  0.00     0.035 C 
ATOM     20  C11 <0> d          -1.228  -2.310  -1.379  0.00  0.00     0.188 C 
ATOM     21  C10 <0> d           0.288  -2.086  -1.257  0.00  0.00     0.069 C 
ATOM     22  H20 <0> d          -1.021  -2.046  -3.422  0.00  0.00     0.278 HD
ATOM     23  H21 <0> d          -2.599  -2.031  -2.905  0.00  0.00     0.278 HD
ENDBRANCH   2  14
TORSDOF 4
