REMARK  4 active torsions:
REMARK  status: ('A' for Active; 'I' for Inactive)
REMARK    1  A    between atoms: C6_6  and  C8_8 
REMARK    2  A    between atoms: C9_11  and  S1_14 
REMARK    3  A    between atoms: S1_14  and  C11_15 
REMARK    4  A    between atoms: C11_15  and  C12_16 
ROOT
ATOM      1  C8  <0> d           0.054  -2.845   2.489  0.00  0.00     0.310 C 
ATOM      2  N1  <0> d          -0.714  -2.111   3.529  0.00  0.00    -0.225 NA
ATOM      3  N2  <0> d          -1.095  -3.175   4.472  0.00  0.00    -0.221 NA
ATOM      4  C9  <0> d          -1.399  -4.341   3.611  0.00  0.00     0.339 C 
ATOM      5  N3  <0> d          -0.662  -4.133   2.345  0.00  0.00    -0.027 N 
ATOM      6  C10 <0> d           0.299  -5.223   2.132  0.00  0.00     0.275 C 
ATOM      7  H11 <0> d          -1.530  -1.670   3.133  0.00  0.00     0.143 HD
ATOM      8  H12 <0> d          -1.902  -2.906   5.014  0.00  0.00     0.143 HD
ATOM      9  H22 <0> d          -1.310  -4.085   1.572  0.00  0.00     0.284 HD
ENDROOT
BRANCH   4  10
ATOM     10  S1  <0> d          -3.182  -4.429   3.291  0.00  0.00    -0.112 SA
BRANCH  10  11
ATOM     11  C11 <0> d          -3.565  -2.841   2.501  0.00  0.00     0.155 C 
BRANCH  11  12
ATOM     12  C12 <0> d          -5.036  -2.783   2.178  0.00  0.00     0.116 A 
ATOM     13  N5  <0> d          -5.775  -3.804   2.487  0.00  0.00    -0.234 NA
ATOM     14  C19 <0> d          -7.107  -3.821   2.232  0.00  0.00     0.074 A 
ATOM     15  C14 <0> d          -7.699  -2.703   1.604  0.00  0.00     0.061 A 
ATOM     16  C18 <0> d          -7.904  -4.917   2.570  0.00  0.00     0.032 A 
ATOM     17  C13 <0> d          -6.832  -1.565   1.262  0.00  0.00     0.259 A 
ATOM     18  C15 <0> d          -9.064  -2.698   1.327  0.00  0.00     0.019 A 
ATOM     19  N4  <0> d          -5.519  -1.667   1.573  0.00  0.00    -0.310 N 
ATOM     20  O1  <0> d          -7.278  -0.571   0.719  0.00  0.00    -0.267 OA
ATOM     21  H3  <0> d          -4.917  -0.935   1.363  0.00  0.00     0.170 HD
ATOM     22  C16 <0> d          -9.830  -3.791   1.669  0.00  0.00     0.001 A 
ATOM     23  C17 <0> d          -9.252  -4.893   2.287  0.00  0.00     0.002 A 
ENDBRANCH  11  12
ENDBRANCH  10  11
ENDBRANCH   4  10
BRANCH   1  24
ATOM     24  C6  <0> d           0.037  -2.084   1.188  0.00  0.00    -0.012 A 
ATOM     25  C5  <0> d           0.040  -2.768  -0.013  0.00  0.00     0.011 A 
ATOM     26  C4  <0> d           0.025  -2.071  -1.207  0.00  0.00     0.001 A 
ATOM     27  C3  <0> d           0.006  -0.689  -1.199  0.00  0.00     0.007 A 
ATOM     28  C2  <0> d           0.002  -0.004   0.002  0.00  0.00    -0.061 A 
ATOM     29  C1  <0> d          -0.018   1.503   0.010  0.00  0.00     0.048 C 
ATOM     30  C7  <0> d           0.023  -0.702   1.195  0.00  0.00     0.017 A 
ENDBRANCH   1  24
TORSDOF 4
