REMARK  5 active torsions:
REMARK  status: ('A' for Active; 'I' for Inactive)
REMARK    1  A    between atoms: C2_2  and  O1_3 
REMARK    2  A    between atoms: O1_3  and  C3_4 
REMARK    3  A    between atoms: C5_6  and  C9_11 
REMARK    4  A    between atoms: C8_9  and  O2_10 
REMARK    5  A    between atoms: N2_15  and  C16_23 
ROOT
ATOM      1  C9  <0> d           0.172  -5.389  -0.024  0.00  0.00     0.119 C 
ATOM      2  C10 <0> d          -1.191  -5.910  -0.366  0.00  0.00     0.032 A 
ATOM      3  C11 <0> d          -2.110  -5.156  -1.034  0.00  0.00     0.034 A 
ATOM      4  N1  <0> d          -3.247  -5.880  -1.199  0.00  0.00    -0.296 N 
ATOM      5  N2  <0> d          -3.051  -7.134  -0.617  0.00  0.00    -0.237 N 
ATOM      6  C12 <0> d          -1.762  -7.161  -0.099  0.00  0.00     0.162 A 
ATOM      7  N3  <0> d          -1.292  -8.227   0.500  0.00  0.00    -0.193 NA
ATOM      8  C13 <0> d          -0.190  -8.571   1.056  0.00  0.00     0.258 C 
ATOM      9  O3  <0> d          -0.149  -9.722   1.448  0.00  0.00    -0.270 OA
ATOM     10  C14 <0> d           1.038  -7.785   1.295  0.00  0.00     0.138 C 
ATOM     11  S1  <0> d           1.433  -6.667  -0.057  0.00  0.00    -0.140 SA
ATOM     12  C15 <0> d           2.209  -8.749   1.491  0.00  0.00     0.031 C 
ATOM     13  C22 <0> d          -1.898  -3.743  -1.513  0.00  0.00     0.070 C 
ATOM     14  H12 <0> d          -4.055  -5.579  -1.644  0.00  0.00     0.187 HD
ENDROOT
BRANCH   1  15
ATOM     15  C5  <0> d           0.543  -4.314  -1.014  0.00  0.00    -0.037 A 
ATOM     16  C4  <0> d           0.813  -3.033  -0.572  0.00  0.00     0.048 A 
ATOM     17  C3  <0> d           1.155  -2.044  -1.480  0.00  0.00     0.102 A 
ATOM     18  C8  <0> d           1.220  -2.343  -2.838  0.00  0.00     0.099 A 
ATOM     19  C7  <0> d           0.954  -3.631  -3.274  0.00  0.00     0.040 A 
ATOM     20  C6  <0> d           0.614  -4.613  -2.362  0.00  0.00     0.011 A 
BRANCH  17  21
ATOM     21  O1  <0> d           1.420  -0.782  -1.047  0.00  0.00    -0.349 OA
BRANCH  21  22
ATOM     22  C2  <0> d           1.334  -0.548   0.360  0.00  0.00     0.171 C 
ATOM     23  C1  <0> d           1.663   0.917   0.654  0.00  0.00     0.034 C 
ENDBRANCH  21  22
ENDBRANCH  17  21
BRANCH  18  24
ATOM     24  O2  <0> d           1.549  -1.375  -3.734  0.00  0.00    -0.358 OA
ATOM     25  H11 <0> d           2.498  -1.304  -3.906  0.00  0.00     0.217 HD
ENDBRANCH  18  24
ENDBRANCH   1  15
BRANCH   5  26
ATOM     26  C16 <0> d          -3.984  -8.174  -0.563  0.00  0.00     0.058 A 
ATOM     27  C21 <0> d          -4.686  -8.539  -1.705  0.00  0.00     0.034 A 
ATOM     28  C20 <0> d          -5.602  -9.571  -1.651  0.00  0.00     0.044 A 
ATOM     29  C19 <0> d          -5.831 -10.234  -0.457  0.00  0.00     0.116 A 
ATOM     30  C18 <0> d          -5.137  -9.867   0.684  0.00  0.00     0.044 A 
ATOM     31  F1  <0> d          -6.732 -11.239  -0.405  0.00  0.00    -0.206 F 
ATOM     32  C17 <0> d          -4.215  -8.840   0.634  0.00  0.00     0.034 A 
ENDBRANCH   5  26
TORSDOF 5
