REMARK  2 active torsions:
REMARK  status: ('A' for Active; 'I' for Inactive)
REMARK    1  A    between atoms: N2_9  and  C9_13 
REMARK    2  A    between atoms: C9_13  and  C10_14 
ROOT
ATOM      1  C1  <0> d          -1.228   1.745   0.017  0.00  0.00     0.001 A 
ATOM      2  C2  <0> d          -0.013   1.076   0.008  0.00  0.00     0.002 A 
ATOM      3  C3  <0> d           1.175   1.772   0.000  0.00  0.00     0.032 A 
ATOM      4  C4  <0> d           1.159   3.170   0.008  0.00  0.00     0.073 A 
ATOM      5  C5  <0> d          -0.080   3.845   0.024  0.00  0.00     0.036 A 
ATOM      6  C6  <0> d          -1.269   3.123   0.031  0.00  0.00     0.017 A 
ATOM      7  C7  <0> d          -0.068   5.321   0.031  0.00  0.00     0.115 A 
ATOM      8  N1  <0> d          -1.178   6.010   0.046  0.00  0.00    -0.385 N 
ATOM      9  N2  <0> d           1.168   5.945   0.023  0.00  0.00    -0.309 N 
ATOM     10  C8  <0> d           2.312   5.196   0.007  0.00  0.00     0.182 A 
ATOM     11  N3  <0> d           2.309   3.888   0.001  0.00  0.00    -0.223 NA
ATOM     12  S1  <0> d           3.863   6.033  -0.003  0.00  0.00    -0.011 SA
ATOM     13  H6  <0> d          -1.143   7.109   0.052  0.00  0.00     0.157 HD
ATOM     14  H15 <0> d          -2.148   5.491   0.053  0.00  0.00     0.157 HD
ENDROOT
BRANCH   9  15
ATOM     15  C9  <0> d           1.250   7.408   0.030  0.00  0.00     0.164 C 
BRANCH  15  16
ATOM     16  C10 <0> d           1.292   7.909   1.475  0.00  0.00     0.140 C 
ATOM     17  O1  <0> d           0.035   7.662   2.125  0.00  0.00    -0.384 OA
ATOM     18  C13 <0> d          -0.278   8.742   3.012  0.00  0.00     0.168 C 
ATOM     19  C12 <0> d           0.852   9.788   2.890  0.00  0.00     0.029 C 
ATOM     20  C11 <0> d           1.470   9.448   1.505  0.00  0.00     0.035 C 
ENDBRANCH  15  16
ENDBRANCH   9  15
TORSDOF 2
