REMARK  3 active torsions:
REMARK  status: ('A' for Active; 'I' for Inactive)
REMARK    1  A    between atoms: N1_3  and  C5_10 
REMARK    2  A    between atoms: C7_12  and  C10_16 
REMARK    3  A    between atoms: C10_16  and  O3_17 
ROOT
ATOM      1  C1  <0> d           5.981   6.133   0.263  0.00  0.00     0.092 A 
ATOM      2  C2  <0> d           4.771   5.645  -0.082  0.00  0.00     0.101 A 
ATOM      3  N1  <0> d           3.727   5.738   0.799  0.00  0.00    -0.304 N 
ATOM      4  C3  <0> d           3.899   6.302   2.008  0.00  0.00     0.329 A 
ATOM      5  O1  <0> d           2.960   6.371   2.777  0.00  0.00    -0.246 OA
ATOM      6  N2  <0> d           5.097   6.791   2.379  0.00  0.00    -0.275 N 
ATOM      7  H1  <0> d           5.207   7.206   3.282  0.00  0.00     0.173 HD
ATOM      8  C4  <0> d           6.149   6.723   1.538  0.00  0.00     0.250 A 
ATOM      9  O2  <0> d           7.233   7.166   1.873  0.00  0.00    -0.268 OA
ENDROOT
BRANCH   3  10
ATOM     10  C5  <0> d           2.412   5.214   0.423  0.00  0.00     0.103 C 
ATOM     11  C9  <0> d           1.907   5.955  -0.819  0.00  0.00     0.099 C 
ATOM     12  S1  <0> d           0.243   5.344  -1.225  0.00  0.00    -0.167 SA
ATOM     13  C8  <0> d           0.473   3.542  -1.291  0.00  0.00     0.080 C 
ATOM     14  C7  <0> d           1.145   3.085   0.008  0.00  0.00     0.020 C 
ATOM     15  C6  <0> d           2.526   3.722   0.128  0.00  0.00     0.034 C 
BRANCH  14  16
ATOM     16  C10 <0> d           1.286   1.562  -0.002  0.00  0.00     0.169 C 
BRANCH  16  17
ATOM     17  O3  <0> d          -0.011   0.963   0.007  0.00  0.00    -0.400 OA
ATOM     18  H14 <0> d           0.002  -0.004   0.002  0.00  0.00     0.209 HD
ENDBRANCH  16  17
ENDBRANCH  14  16
ENDBRANCH   3  10
TORSDOF 3
