REMARK  7 active torsions:
REMARK  status: ('A' for Active; 'I' for Inactive)
REMARK    1  A    between atoms: C5_5  and  C9_9 
REMARK    2  A    between atoms: C9_9  and  C24_31 
REMARK    3  A    between atoms: N1_12  and  C12_16 
REMARK    4  A    between atoms: C12_16  and  C13_17 
REMARK       I    between atoms: C13_17  and  N3_19 
REMARK    5  A    between atoms: N3_19  and  C14_20 
REMARK    6  A    between atoms: C14_20  and  C15_21 
REMARK    7  A    between atoms: C15_21  and  C16_22 
ROOT
ATOM      1  C9  <0> d           0.059  -4.275  -0.021  0.00  0.00     0.171 A 
ATOM      2  C10 <0> d           1.520  -4.671  -0.106  0.00  0.00     0.266 A 
ATOM      3  O1  <0> d           2.312  -4.369  -0.973  0.00  0.00    -0.269 OA
ATOM      4  N1  <0> d           1.757  -5.427   0.985  0.00  0.00    -0.259 N 
ATOM      5  C11 <0> d           0.659  -5.563   1.738  0.00  0.00     0.327 A 
ATOM      6  O2  <0> d           0.625  -6.201   2.772  0.00  0.00    -0.247 OA
ATOM      7  N2  <0> d          -0.401  -4.915   1.223  0.00  0.00    -0.316 N 
ATOM      8  H10 <0> d          -1.295  -4.875   1.599  0.00  0.00     0.166 HD
ENDROOT
BRANCH   4   9
ATOM      9  C12 <0> d           3.054  -6.027   1.305  0.00  0.00     0.239 C 
BRANCH   9  10
ATOM     10  C13 <0> d           3.857  -5.067   2.145  0.00  0.00     0.236 C 
ATOM     11  O3  <0> d           3.392  -3.989   2.446  0.00  0.00    -0.272 OA
ATOM     12  N3  <0> d           5.093  -5.408   2.561  0.00  0.00    -0.359 N 
ATOM     13  H13 <0> d           5.466  -6.270   2.320  0.00  0.00     0.162 HD
BRANCH  12  14
ATOM     14  C14 <0> d           5.874  -4.475   3.378  0.00  0.00     0.127 C 
BRANCH  14  15
ATOM     15  C15 <0> d           7.229  -5.101   3.712  0.00  0.00     0.056 C 
BRANCH  15  16
ATOM     16  C16 <0> d           8.033  -4.142   4.552  0.00  0.00    -0.048 A 
ATOM     17  C23 <0> d           8.908  -3.013   4.057  0.00  0.00     0.155 A 
ATOM     18  N4  <0> d           9.465  -2.379   5.257  0.00  0.00    -0.385 N 
ATOM     19  C22 <0> d           9.017  -3.016   6.312  0.00  0.00     0.038 A 
ATOM     20  H29 <0> d          10.067  -1.619   5.268  0.00  0.00     0.160 HD
ATOM     21  C17 <0> d           8.121  -4.121   5.902  0.00  0.00    -0.006 A 
ATOM     22  C21 <0> d           9.244  -2.822   7.702  0.00  0.00     0.030 A 
ATOM     23  C18 <0> d           7.519  -4.952   6.951  0.00  0.00     0.014 A 
ATOM     24  C19 <0> d           7.802  -4.681   8.246  0.00  0.00     0.001 A 
ATOM     25  C20 <0> d           8.653  -3.628   8.609  0.00  0.00     0.002 A 
ENDBRANCH  15  16
ENDBRANCH  14  15
ENDBRANCH  12  14
ENDBRANCH   9  10
ENDBRANCH   4   9
BRANCH   1  26
ATOM     26  C5  <0> d          -0.080  -2.777   0.069  0.00  0.00    -0.015 A 
ATOM     27  C4  <0> d           0.633  -1.964  -0.792  0.00  0.00     0.011 A 
ATOM     28  C3  <0> d           0.505  -0.590  -0.710  0.00  0.00     0.008 A 
ATOM     29  C2  <0> d          -0.338  -0.030   0.232  0.00  0.00    -0.056 A 
ATOM     30  C1  <0> d          -0.478   1.468   0.322  0.00  0.00     0.049 C 
ATOM     31  C7  <0> d          -1.047  -0.843   1.096  0.00  0.00    -0.056 A 
ATOM     32  C6  <0> d          -0.922  -2.217   1.011  0.00  0.00     0.017 A 
ATOM     33  C8  <0> d          -1.961  -0.232   2.127  0.00  0.00     0.049 C 
ENDBRANCH   1  26
BRANCH   1  34
ATOM     34  C24 <0> d          -0.706  -4.807  -1.205  0.00  0.00    -0.016 A 
ATOM     35  C29 <0> d          -1.862  -5.540  -1.009  0.00  0.00     0.010 A 
ATOM     36  C28 <0> d          -2.567  -6.024  -2.095  0.00  0.00     0.001 A 
ATOM     37  C27 <0> d          -2.111  -5.784  -3.377  0.00  0.00     0.000 A 
ATOM     38  C26 <0> d          -0.952  -5.056  -3.574  0.00  0.00     0.001 A 
ATOM     39  C25 <0> d          -0.250  -4.568  -2.488  0.00  0.00     0.010 A 
ENDBRANCH   1  34
TORSDOF 7
