REMARK  4 active torsions:
REMARK  status: ('A' for Active; 'I' for Inactive)
REMARK    1  A    between atoms: C8_8  and  O3_29 
REMARK    2  A    between atoms: C13_15  and  C14_16 
REMARK    3  A    between atoms: C14_16  and  N1_17 
REMARK    4  A    between atoms: N2_20  and  C19_23 
ROOT
ATOM      1  C1  <0> d          -0.337   1.727  -0.429  0.00  0.00     0.011 C 
ATOM      2  C2  <0> d          -0.374   0.199  -0.342  0.00  0.00    -0.003 C 
ATOM      3  C3  <0> d           0.363  -0.381  -1.550  0.00  0.00     0.009 C 
ATOM      4  C4  <0> d           0.238  -1.907  -1.502  0.00  0.00     0.028 C 
ATOM      5  C5  <0> d           0.777  -2.386  -0.184  0.00  0.00    -0.023 C 
ATOM      6  C6  <0> d           0.796  -1.650   0.887  0.00  0.00    -0.070 C 
ATOM      7  C7  <0> d           0.289  -0.237   0.963  0.00  0.00     0.009 C 
ATOM      8  C8  <0> d          -0.706  -0.120   2.111  0.00  0.00     0.138 C 
ATOM      9  C9  <0> d          -0.408  -0.865   3.366  0.00  0.00     0.060 C 
ATOM     10  C10 <0> d           0.282  -2.231   3.246  0.00  0.00     0.143 C 
ATOM     11  C11 <0> d           1.362  -2.238   2.161  0.00  0.00     0.068 C 
ATOM     12  O1  <0> d           1.001  -2.363   4.504  0.00  0.00    -0.315 OA
ATOM     13  C12 <0> d           1.438  -1.132   4.847  0.00  0.00     0.265 C 
ATOM     14  O2  <0> d           2.508  -0.841   5.310  0.00  0.00    -0.265 OA
ATOM     15  C13 <0> d           0.293  -0.176   4.530  0.00  0.00     0.120 C 
ATOM     16  C23 <0> d           1.482   0.696   1.191  0.00  0.00     0.023 C 
ENDROOT
BRANCH  15  17
ATOM     17  C14 <0> d           0.805   1.228   4.254  0.00  0.00     0.250 C 
BRANCH  17  18
ATOM     18  N1  <0> d           1.322   1.815   5.497  0.00  0.00    -0.067 N 
ATOM     19  C18 <0> d           1.949   3.109   5.203  0.00  0.00     0.255 C 
ATOM     20  C17 <0> d           2.589   3.668   6.478  0.00  0.00     0.169 C 
ATOM     21  N2  <0> d           1.563   3.716   7.532  0.00  0.00    -0.211 N 
ATOM     22  C16 <0> d           0.769   2.503   7.783  0.00  0.00     0.169 C 
ATOM     23  C15 <0> d           0.216   1.999   6.446  0.00  0.00     0.255 C 
ATOM     24  H33 <0> d           2.007   1.194   5.901  0.00  0.00     0.280 HD
BRANCH  21  25
ATOM     25  C19 <0> d           1.350   4.870   8.265  0.00  0.00     0.724 A 
ATOM     26  N4  <0> d           2.084   5.943   8.011  0.00  0.00    -0.075 NA
ATOM     27  C22 <0> d           1.903   7.063   8.690  0.00  0.00     0.138 A 
ATOM     28  C21 <0> d           0.939   7.102   9.685  0.00  0.00     0.040 A 
ATOM     29  C20 <0> d           0.192   5.960   9.929  0.00  0.00     0.138 A 
ATOM     30  N3  <0> d           0.420   4.874   9.209  0.00  0.00    -0.075 NA
ENDBRANCH  21  25
ENDBRANCH  17  18
ENDBRANCH  15  17
BRANCH   8  31
ATOM     31  O3  <0> d          -1.991  -0.578   1.643  0.00  0.00    -0.394 OA
ATOM     32  H29 <0> d          -2.690  -0.539   2.311  0.00  0.00     0.210 HD
ENDBRANCH   8  31
TORSDOF 4
