REMARK  3 active torsions:
REMARK  status: ('A' for Active; 'I' for Inactive)
REMARK    1  A    between atoms: C4_4  and  S1_8 
REMARK    2  A    between atoms: S1_8  and  N1_11 
REMARK    3  A    between atoms: C11_17  and  N3_18 
ROOT
ATOM      1  N1  <0> d           4.055  -1.658   1.387  0.00  0.00    -0.158 NA
ATOM      2  C7  <0> d           5.124  -2.395   1.637  0.00  0.00     0.098 A 
ATOM      3  C8  <0> d           6.188  -2.485   0.697  0.00  0.00     0.052 A 
ATOM      4  C9  <0> d           7.260  -3.246   0.988  0.00  0.00     0.090 A 
ATOM      5  N2  <0> d           7.348  -3.929   2.159  0.00  0.00    -0.373 N 
ATOM      6  C10 <0> d           6.361  -3.885   3.101  0.00  0.00     0.119 A 
ATOM      7  C11 <0> d           5.250  -3.142   2.898  0.00  0.00     0.071 A 
ATOM      8  H10 <0> d           8.136  -4.467   2.330  0.00  0.00     0.164 HD
ENDROOT
BRANCH   1   9
ATOM      9  S1  <0> d           3.938  -0.827  -0.042  0.00  0.00     0.286 S 
ATOM     10  O1  <0> d           3.846  -1.802  -1.072  0.00  0.00    -0.198 OA
ATOM     11  O2  <0> d           4.956   0.164  -0.019  0.00  0.00    -0.198 OA
BRANCH   9  12
ATOM     12  C4  <0> d           2.399   0.030  -0.021  0.00  0.00     0.120 A 
ATOM     13  C3  <0> d           2.378   1.413  -0.013  0.00  0.00     0.028 A 
ATOM     14  C2  <0> d           1.171   2.086   0.002  0.00  0.00     0.002 A 
ATOM     15  C1  <0> d          -0.017   1.377   0.010  0.00  0.00     0.003 A 
ATOM     16  C6  <0> d           0.002  -0.004   0.002  0.00  0.00     0.044 A 
ATOM     17  C5  <0> d           1.211  -0.679  -0.013  0.00  0.00     0.139 A 
ATOM     18  F1  <0> d           1.230  -2.030  -0.022  0.00  0.00    -0.204 F 
ENDBRANCH   9  12
ENDBRANCH   1   9
BRANCH   7  19
ATOM     19  N3  <0> d           4.236  -3.088   3.867  0.00  0.00    -0.396 N 
ATOM     20  H8  <0> d           3.441  -2.555   3.709  0.00  0.00     0.156 HD
ATOM     21  H9  <0> d           4.330  -3.584   4.695  0.00  0.00     0.156 HD
ENDBRANCH   7  19
TORSDOF 3
