REMARK  3 active torsions:
REMARK  status: ('A' for Active; 'I' for Inactive)
REMARK    1  A    between atoms: C4_6  and  S2_10 
REMARK    2  A    between atoms: C5_7  and  N3_9 
REMARK    3  A    between atoms: S2_10  and  N4_13 
ROOT
ATOM      1  C1  <0> d          -0.017   1.373   0.010  0.00  0.00     0.107 A 
ATOM      2  C2  <0> d           1.118   2.071   0.003  0.00  0.00     0.071 A 
ATOM      3  S1  <0> d           2.347   0.775  -0.016  0.00  0.00    -0.062 SA
ATOM      4  C3  <0> d           1.231  -0.608  -0.013  0.00  0.00     0.180 A 
ATOM      5  N1  <0> d           0.002  -0.004   0.002  0.00  0.00    -0.286 N 
ATOM      6  C4  <0> d          -0.915  -1.059   0.005  0.00  0.00     0.203 A 
ATOM      7  C5  <0> d          -0.211  -2.210  -0.008  0.00  0.00     0.165 A 
ATOM      8  N2  <0> d           1.097  -1.904  -0.018  0.00  0.00    -0.203 NA
ENDROOT
BRANCH   6   9
ATOM      9  S2  <0> d          -2.671  -0.912   0.022  0.00  0.00     0.281 S 
ATOM     10  O1  <0> d          -3.174  -2.123   0.571  0.00  0.00    -0.199 OA
ATOM     11  O2  <0> d          -2.966   0.359   0.584  0.00  0.00    -0.199 OA
BRANCH   9  12
ATOM     12  N4  <0> d          -3.174  -0.862  -1.554  0.00  0.00    -0.304 N 
ATOM     13  C9  <0> d          -3.500  -2.108  -2.251  0.00  0.00     0.150 C 
ATOM     14  C8  <0> d          -2.516  -2.332  -3.396  0.00  0.00     0.161 C 
ATOM     15  S3  <0> d          -2.582  -0.903  -4.517  0.00  0.00     0.147 S 
ATOM     16  C7  <0> d          -2.267   0.483  -3.386  0.00  0.00     0.161 C 
ATOM     17  O3  <0> d          -1.499  -0.996  -5.432  0.00  0.00    -0.228 OA
ATOM     18  O4  <0> d          -3.906  -0.783  -5.021  0.00  0.00    -0.228 OA
ATOM     19  C6  <0> d          -3.282   0.427  -2.240  0.00  0.00     0.150 C 
ENDBRANCH   9  12
ENDBRANCH   6   9
BRANCH   7  20
ATOM     20  N3  <0> d          -0.753  -3.505  -0.011  0.00  0.00    -0.381 N 
ATOM     21  H3  <0> d          -1.716  -3.628  -0.002  0.00  0.00     0.157 HD
ATOM     22  H4  <0> d          -0.166  -4.276  -0.021  0.00  0.00     0.157 HD
ENDBRANCH   7  20
TORSDOF 3
