REMARK  2 active torsions:
REMARK  status: ('A' for Active; 'I' for Inactive)
REMARK    1  A    between atoms: C7_7  and  C11_13 
REMARK    2  A    between atoms: C12_14  and  O5_25 
ROOT
ATOM      1  C11 <0> d          -0.040  -2.915  -0.014  0.00  0.00     0.131 C 
ATOM      2  C12 <0> d          -0.922  -2.448  -1.180  0.00  0.00     0.208 C 
ATOM      3  C13 <0> d          -1.232  -0.979  -0.991  0.00  0.00     0.190 C 
ATOM      4  O3  <0> d          -1.133  -0.201  -1.915  0.00  0.00    -0.289 OA
ATOM      5  C14 <0> d          -1.655  -0.515   0.344  0.00  0.00     0.026 A 
ATOM      6  C15 <0> d          -2.271   0.721   0.508  0.00  0.00     0.016 A 
ATOM      7  C16 <0> d          -2.657   1.132   1.772  0.00  0.00     0.001 A 
ATOM      8  C17 <0> d          -2.434   0.324   2.874  0.00  0.00     0.001 A 
ATOM      9  C18 <0> d          -1.823  -0.909   2.730  0.00  0.00     0.016 A 
ATOM     10  C19 <0> d          -1.429  -1.340   1.467  0.00  0.00     0.024 A 
ATOM     11  C20 <0> d          -0.775  -2.654   1.283  0.00  0.00     0.172 C 
ATOM     12  O4  <0> d          -0.829  -3.504   2.146  0.00  0.00    -0.291 OA
ENDROOT
BRANCH   1  13
ATOM     13  C7  <0> d           1.258  -2.149  -0.022  0.00  0.00    -0.028 A 
ATOM     14  C5  <0> d           2.244  -2.428  -1.073  0.00  0.00    -0.015 A 
ATOM     15  C4  <0> d           3.465  -1.725  -1.103  0.00  0.00     0.029 A 
ATOM     16  C6  <0> d           1.985  -3.389  -2.050  0.00  0.00     0.013 A 
ATOM     17  C3  <0> d           4.398  -1.992  -2.098  0.00  0.00     0.016 A 
ATOM     18  C10 <0> d           3.731  -0.710  -0.063  0.00  0.00     0.232 A 
ATOM     19  C2  <0> d           4.122  -2.950  -3.060  0.00  0.00     0.001 A 
ATOM     20  C1  <0> d           2.925  -3.643  -3.035  0.00  0.00     0.001 A 
ATOM     21  C9  <0> d           2.679  -0.477   0.978  0.00  0.00     0.223 A 
ATOM     22  O2  <0> d           4.770  -0.083  -0.053  0.00  0.00    -0.283 OA
ATOM     23  C8  <0> d           1.480  -1.228   0.933  0.00  0.00     0.068 A 
ATOM     24  O1  <0> d           2.854   0.348   1.852  0.00  0.00    -0.284 OA
ENDBRANCH   1  13
BRANCH   2  25
ATOM     25  O5  <0> d          -2.137  -3.201  -1.195  0.00  0.00    -0.387 OA
ATOM     26  H12 <0> d          -2.742  -2.957  -1.909  0.00  0.00     0.210 HD
ENDBRANCH   2  25
TORSDOF 2
