REMARK  6 active torsions:
REMARK  status: ('A' for Active; 'I' for Inactive)
REMARK    1  A    between atoms: C5_5  and  C8_8 
REMARK    2  A    between atoms: C8_8  and  C9_9 
REMARK    3  A    between atoms: C8_8  and  N3_24 
REMARK    4  A    between atoms: C9_9  and  N1_10 
REMARK       I    between atoms: N1_10  and  C10_11 
REMARK       I    between atoms: C10_11  and  N2_13 
REMARK    5  A    between atoms: N2_13  and  C11_14 
REMARK    6  A    between atoms: C14_17  and  O2_21 
ROOT
ATOM      1  N1  <0> d           1.961  -4.223  -1.062  0.00  0.00    -0.341 N 
ATOM      2  C10 <0> d           3.245  -4.613  -1.194  0.00  0.00     0.320 C 
ATOM      3  O1  <0> d           3.772  -5.277  -0.322  0.00  0.00    -0.247 OA
ATOM      4  N2  <0> d           3.944  -4.266  -2.293  0.00  0.00    -0.309 N 
ATOM      5  H11 <0> d           1.541  -3.694  -1.757  0.00  0.00     0.164 HD
ATOM      6  H12 <0> d           3.505  -3.796  -3.019  0.00  0.00     0.170 HD
ENDROOT
BRANCH   1   7
ATOM      7  C9  <0> d           1.201  -4.600   0.132  0.00  0.00     0.162 C 
BRANCH   7   8
ATOM      8  C8  <0> d          -0.251  -4.142  -0.022  0.00  0.00     0.237 C 
BRANCH   8   9
ATOM      9  C5  <0> d          -0.298  -2.638  -0.095  0.00  0.00    -0.026 A 
ATOM     10  C4  <0> d          -0.419  -2.009  -1.320  0.00  0.00     0.010 A 
ATOM     11  C3  <0> d          -0.463  -0.629  -1.387  0.00  0.00     0.007 A 
ATOM     12  C2  <0> d          -0.386   0.122  -0.230  0.00  0.00    -0.062 A 
ATOM     13  C1  <0> d          -0.434   1.627  -0.303  0.00  0.00     0.048 C 
ATOM     14  C7  <0> d          -0.260  -0.507   0.995  0.00  0.00     0.007 A 
ATOM     15  C6  <0> d          -0.220  -1.887   1.063  0.00  0.00     0.010 A 
ENDBRANCH   8   9
BRANCH   8  16
ATOM     16  N3  <0> d          -1.034  -4.601   1.133  0.00  0.00    -0.069 N 
ATOM     17  C18 <0> d          -2.445  -4.242   0.941  0.00  0.00     0.270 C 
ATOM     18  C19 <0> d          -0.913  -6.060   1.259  0.00  0.00     0.270 C 
ATOM     19  H24 <0> d          -0.686  -4.161   1.972  0.00  0.00     0.279 HD
ENDBRANCH   8  16
ENDBRANCH   7   8
ENDBRANCH   1   7
BRANCH   4  20
ATOM     20  C11 <0> d           5.306  -4.584  -2.386  0.00  0.00     0.042 A 
ATOM     21  C16 <0> d           5.780  -5.769  -1.841  0.00  0.00     0.074 A 
ATOM     22  C15 <0> d           7.123  -6.086  -1.938  0.00  0.00     0.154 A 
ATOM     23  C14 <0> d           7.998  -5.214  -2.571  0.00  0.00     0.145 A 
ATOM     24  F1  <0> d           7.585  -7.242  -1.412  0.00  0.00    -0.203 F 
ATOM     25  C13 <0> d           7.525  -4.026  -3.111  0.00  0.00     0.154 A 
ATOM     26  C12 <0> d           6.181  -3.712  -3.018  0.00  0.00     0.074 A 
ATOM     27  F2  <0> d           8.376  -3.177  -3.727  0.00  0.00    -0.203 F 
BRANCH  23  28
ATOM     28  O2  <0> d           9.321  -5.523  -2.662  0.00  0.00    -0.350 OA
ATOM     29  C17 <0> d          10.165  -5.082  -1.597  0.00  0.00     0.210 C 
ENDBRANCH  23  28
ENDBRANCH   4  20
TORSDOF 6
