REMARK  3 active torsions:
REMARK  status: ('A' for Active; 'I' for Inactive)
REMARK       I    between atoms: N1_2  and  C2_3 
REMARK    1  A    between atoms: C2_3  and  C3_5 
REMARK    2  A    between atoms: C6_9  and  N2_10 
REMARK       I    between atoms: N2_10  and  C7_11 
REMARK    3  A    between atoms: C7_11  and  C8_13 
ROOT
ATOM      1  C3  <0> d           0.605  -2.131  -1.026  0.00  0.00     0.066 A 
ATOM      2  C4  <0> d           0.006  -2.904   0.037  0.00  0.00     0.027 A 
ATOM      3  C5  <0> d           0.092  -4.241  -0.090  0.00  0.00     0.053 A 
ATOM      4  S1  <0> d           0.970  -4.451  -1.624  0.00  0.00    -0.083 SA
ATOM      5  C6  <0> d           1.195  -2.846  -2.058  0.00  0.00     0.092 A 
ENDROOT
BRANCH   5   6
ATOM      6  N2  <0> d           1.828  -2.349  -3.187  0.00  0.00    -0.320 N 
ATOM      7  C7  <0> d           2.350  -3.197  -4.095  0.00  0.00     0.226 C 
ATOM      8  O2  <0> d           2.266  -4.395  -3.925  0.00  0.00    -0.273 OA
ATOM      9  H7  <0> d           1.895  -1.391  -3.323  0.00  0.00     0.169 HD
BRANCH   7  10
ATOM     10  C8  <0> d           3.037  -2.657  -5.322  0.00  0.00     0.078 C 
ATOM     11  C11 <0> d           3.577  -3.752  -6.258  0.00  0.00     0.014 C 
ATOM     12  C10 <0> d           3.095  -2.879  -7.429  0.00  0.00     0.002 C 
ATOM     13  C9  <0> d           2.068  -2.278  -6.455  0.00  0.00     0.014 C 
ENDBRANCH   7  10
ENDBRANCH   5   6
BRANCH   1  14
ATOM     14  C2  <0> d           0.585  -0.664  -1.018  0.00  0.00     0.254 C 
ATOM     15  N1  <0> d           0.002  -0.004   0.002  0.00  0.00    -0.361 N 
ATOM     16  C1  <0> d          -0.018   1.461   0.010  0.00  0.00     0.149 C 
ATOM     17  H4  <0> d          -0.404  -0.499   0.731  0.00  0.00     0.162 HD
ATOM     18  O1  <0> d           1.095  -0.044  -1.932  0.00  0.00    -0.268 OA
ENDBRANCH   1  14
TORSDOF 3
