REMARK  3 active torsions:
REMARK  status: ('A' for Active; 'I' for Inactive)
REMARK    1  A    between atoms: C7_7  and  C9_12 
REMARK    2  A    between atoms: C9_12  and  C10_13 
REMARK       I    between atoms: C10_13  and  N3_15 
REMARK    3  A    between atoms: N3_15  and  C11_16 
ROOT
ATOM      1  C9  <0> d           0.708  -2.713   1.277  0.00  0.00     0.134 C 
ENDROOT
BRANCH   1   2
ATOM      2  C7  <0> d           1.581  -2.203   0.128  0.00  0.00     0.144 A 
ATOM      3  C5  <0> d           1.490  -0.696   0.110  0.00  0.00    -0.018 A 
ATOM      4  C4  <0> d           2.692   0.014   0.240  0.00  0.00     0.044 A 
ATOM      5  C6  <0> d           0.300  -0.029  -0.027  0.00  0.00     0.010 A 
ATOM      6  C3  <0> d           2.676   1.406   0.230  0.00  0.00     0.018 A 
ATOM      7  C8  <0> d           3.941  -0.758   0.383  0.00  0.00     0.293 A 
ATOM      8  C2  <0> d           1.472   2.069   0.092  0.00  0.00     0.001 A 
ATOM      9  C1  <0> d           0.291   1.359  -0.036  0.00  0.00     0.001 A 
ATOM     10  N2  <0> d           3.926  -2.099   0.389  0.00  0.00    -0.135 NA
ATOM     11  O1  <0> d           4.998  -0.170   0.498  0.00  0.00    -0.264 OA
ATOM     12  N1  <0> d           2.917  -2.796   0.280  0.00  0.00    -0.301 N 
ATOM     13  H15 <0> d           3.007  -3.761   0.295  0.00  0.00     0.183 HD
ENDBRANCH   1   2
BRANCH   1  14
ATOM     14  C10 <0> d           0.675  -4.219   1.252  0.00  0.00     0.224 C 
ATOM     15  O2  <0> d           1.288  -4.825   0.400  0.00  0.00    -0.273 OA
ATOM     16  N3  <0> d          -0.037  -4.893   2.178  0.00  0.00    -0.327 N 
ATOM     17  H9  <0> d          -0.467  -4.412   2.902  0.00  0.00     0.169 HD
BRANCH  16  18
ATOM     18  C11 <0> d          -0.155  -6.285   2.093  0.00  0.00     0.033 C 
ATOM     19  C18 <0> d          -0.713  -6.868   0.872  0.00  0.00     0.030 C 
ATOM     20  C17 <0> d          -0.550  -8.200   0.614  0.00  0.00     0.012 C 
ATOM     21  C14 <0> d           0.111  -8.929   1.622  0.00  0.00    -0.028 C 
ATOM     22  C13 <0> d           0.072  -8.518   3.082  0.00  0.00     0.165 C 
ATOM     23  C15 <0> d           0.978  -9.955   1.561  0.00  0.00     0.028 C 
ATOM     24  C12 <0> d           0.244  -7.029   3.139  0.00  0.00     0.034 C 
ATOM     25  N4  <0> d           1.138  -9.285   3.709  0.00  0.00    -0.288 NA
ATOM     26  C16 <0> d           1.604 -10.114   2.818  0.00  0.00     0.112 C 
ENDBRANCH  16  18
ENDBRANCH   1  14
TORSDOF 3
