REMARK  6 active torsions:
REMARK  status: ('A' for Active; 'I' for Inactive)
REMARK    1  A    between atoms: C3_3  and  C6_7 
REMARK    2  A    between atoms: C6_7  and  N1_8 
REMARK    3  A    between atoms: N1_8  and  C8_10 
REMARK    4  A    between atoms: C8_10  and  C9_11 
REMARK       I    between atoms: C9_11  and  N2_13 
REMARK    5  A    between atoms: N2_13  and  C10_14 
REMARK    6  A    between atoms: C13_17  and  N3_21 
ROOT
ATOM      1  C9  <0> d          -4.663   1.056  -2.688  0.00  0.00     0.248 C 
ATOM      2  O2  <0> d          -3.869   0.968  -3.602  0.00  0.00    -0.271 OA
ATOM      3  N2  <0> d          -5.880   1.594  -2.902  0.00  0.00    -0.325 N 
ATOM      4  H13 <0> d          -6.543   1.592  -2.194  0.00  0.00     0.169 HD
ENDROOT
BRANCH   1   5
ATOM      5  C8  <0> d          -4.288   0.564  -1.314  0.00  0.00     0.337 C 
BRANCH   5   6
ATOM      6  N1  <0> d          -2.921   0.027  -1.343  0.00  0.00    -0.063 N 
ATOM      7  C7  <0> d          -2.879  -1.161  -2.206  0.00  0.00     0.270 C 
ATOM      8  H19 <0> d          -2.291   0.727  -1.705  0.00  0.00     0.280 HD
BRANCH   6   9
ATOM      9  C6  <0> d          -2.511  -0.343   0.019  0.00  0.00     0.276 C 
BRANCH   9  10
ATOM     10  C3  <0> d          -1.068  -0.778   0.009  0.00  0.00    -0.001 A 
ATOM     11  C2  <0> d           0.011   0.024  -0.001  0.00  0.00     0.056 A 
ATOM     12  C1  <0> d          -0.011   1.531  -0.004  0.00  0.00     0.077 C 
ATOM     13  O1  <0> d           1.112  -0.745  -0.013  0.00  0.00    -0.327 OA
ATOM     14  C5  <0> d           0.753  -2.039  -0.002  0.00  0.00     0.142 A 
ATOM     15  C4  <0> d          -0.590  -2.109   0.008  0.00  0.00     0.036 A 
ENDBRANCH   9  10
ENDBRANCH   6   9
ENDBRANCH   5   6
ENDBRANCH   1   5
BRANCH   3  16
ATOM     16  C10 <0> d          -6.188   2.157  -4.149  0.00  0.00     0.052 A 
ATOM     17  C15 <0> d          -7.510   2.232  -4.569  0.00  0.00     0.040 A 
ATOM     18  C14 <0> d          -7.814   2.792  -5.795  0.00  0.00     0.050 A 
ATOM     19 Br1  <0> d          -8.894   1.577  -3.460  0.00  0.00    -0.049 Br
ATOM     20  C13 <0> d          -6.797   3.269  -6.611  0.00  0.00     0.027 A 
ATOM     21  C12 <0> d          -5.475   3.188  -6.193  0.00  0.00     0.031 A 
ATOM     22  C11 <0> d          -5.171   2.633  -4.966  0.00  0.00     0.033 A 
BRANCH  20  23
ATOM     23  N3  <0> d          -7.104   3.831  -7.855  0.00  0.00    -0.399 N 
ATOM     24  H17 <0> d          -6.393   4.164  -8.425  0.00  0.00     0.156 HD
ATOM     25  H18 <0> d          -8.027   3.888  -8.147  0.00  0.00     0.156 HD
ENDBRANCH  20  23
ENDBRANCH   3  16
TORSDOF 6
