REMARK  4 active torsions:
REMARK  status: ('A' for Active; 'I' for Inactive)
REMARK    1  A    between atoms: C6_6  and  C8_9 
REMARK       I    between atoms: C8_9  and  N1_11 
REMARK    2  A    between atoms: C10_13  and  C17_21 
REMARK       I    between atoms: C17_21  and  N3_23 
REMARK    3  A    between atoms: N3_23  and  C18_24 
REMARK    4  A    between atoms: C18_24  and  C20_26 
ROOT
ATOM      1  C8  <0> d          -0.006  -2.789   2.454  0.00  0.00     0.260 C 
ATOM      2  O1  <0> d           1.051  -3.069   2.986  0.00  0.00    -0.267 OA
ATOM      3  N1  <0> d          -1.168  -3.152   3.033  0.00  0.00    -0.346 N 
ATOM      4  C9  <0> d          -2.544  -2.909   2.538  0.00  0.00     0.141 C 
ATOM      5  C10 <0> d          -3.312  -4.209   2.865  0.00  0.00     0.106 C 
ATOM      6  C11 <0> d          -2.531  -4.844   4.028  0.00  0.00    -0.007 C 
ATOM      7  C12 <0> d          -1.359  -3.891   4.304  0.00  0.00     0.136 C 
ATOM      8  C13 <0> d          -2.002  -6.216   3.622  0.00  0.00     0.039 C 
ATOM      9  C14 <0> d          -1.278  -6.852   4.813  0.00  0.00     0.233 C 
ATOM     10  N2  <0> d          -2.208  -6.977   5.942  0.00  0.00    -0.075 N 
ATOM     11  C15 <0> d          -2.639  -5.646   6.386  0.00  0.00     0.233 C 
ATOM     12  C16 <0> d          -3.420  -4.960   5.262  0.00  0.00     0.039 C 
ATOM     13  H17 <0> d          -3.013  -7.512   5.655  0.00  0.00     0.277 HD
ATOM     14  H32 <0> d          -1.746  -7.451   6.704  0.00  0.00     0.277 HD
ENDROOT
BRANCH   5  15
ATOM     15  C17 <0> d          -3.320  -5.128   1.671  0.00  0.00     0.224 C 
ATOM     16  O2  <0> d          -2.443  -5.048   0.838  0.00  0.00    -0.273 OA
ATOM     17  N3  <0> d          -4.303  -6.040   1.530  0.00  0.00    -0.352 N 
ATOM     18  H22 <0> d          -5.005  -6.104   2.196  0.00  0.00     0.163 HD
BRANCH  17  19
ATOM     19  C18 <0> d          -4.311  -6.934   0.369  0.00  0.00     0.117 C 
ATOM     20  C19 <0> d          -4.870  -6.189  -0.845  0.00  0.00     0.037 C 
BRANCH  19  21
ATOM     21  C20 <0> d          -5.175  -8.133   0.664  0.00  0.00     0.014 A 
ATOM     22  C22 <0> d          -6.472  -8.104   1.189  0.00  0.00     0.061 A 
ATOM     23  N5  <0> d          -6.895  -9.337   1.300  0.00  0.00    -0.179 NA
ATOM     24  C23 <0> d          -7.249  -6.866   1.556  0.00  0.00     0.073 C 
ATOM     25  N4  <0> d          -5.876 -10.191   0.860  0.00  0.00    -0.282 N 
ATOM     26  C21 <0> d          -4.831  -9.428   0.475  0.00  0.00     0.034 A 
ATOM     27  H3  <0> d          -5.914 -11.160   0.836  0.00  0.00     0.189 HD
ATOM     28  C24 <0> d          -3.518  -9.928  -0.068  0.00  0.00     0.070 C 
ENDBRANCH  19  21
ENDBRANCH  17  19
ENDBRANCH   5  15
BRANCH   1  29
ATOM     29  C6  <0> d          -0.017  -2.051   1.177  0.00  0.00     0.109 A 
ATOM     30  C5  <0> d           0.005  -2.746  -0.037  0.00  0.00     0.135 A 
ATOM     31  C4  <0> d          -0.005  -2.047  -1.230  0.00  0.00     0.044 A 
ATOM     32  F2  <0> d           0.035  -4.097  -0.044  0.00  0.00    -0.205 F 
ATOM     33  C3  <0> d          -0.037  -0.665  -1.225  0.00  0.00     0.013 A 
ATOM     34  C2  <0> d          -0.059   0.031  -0.029  0.00  0.00    -0.022 A 
ATOM     35  C1  <0> d          -0.093   1.537  -0.037  0.00  0.00     0.051 C 
ATOM     36  C7  <0> d          -0.043  -0.652   1.172  0.00  0.00     0.141 A 
ATOM     37  F1  <0> d          -0.058   0.029   2.338  0.00  0.00    -0.204 F 
ENDBRANCH   1  29
TORSDOF 4
