REMARK  7 active torsions:
REMARK  status: ('A' for Active; 'I' for Inactive)
REMARK    1  A    between atoms: C5_5  and  S1_12 
REMARK    2  A    between atoms: C6_6  and  C8_8 
REMARK    3  A    between atoms: C9_9  and  C10_10 
REMARK    4  A    between atoms: C10_10  and  O1_11 
REMARK    5  A    between atoms: S1_12  and  N1_15 
REMARK    6  A    between atoms: N1_15  and  C12_17 
REMARK    7  A    between atoms: C12_17  and  C13_18 
REMARK       I    between atoms: C13_18  and  N2_20 
ROOT
ATOM      1  C1  <0> d          -0.044   1.493  -0.537  0.00  0.00     0.048 C 
ATOM      2  C2  <0> d          -0.013  -0.008  -0.410  0.00  0.00    -0.061 A 
ATOM      3  C3  <0> d          -0.548  -0.798  -1.412  0.00  0.00     0.008 A 
ATOM      4  C4  <0> d          -0.523  -2.176  -1.303  0.00  0.00     0.027 A 
ATOM      5  C5  <0> d           0.036  -2.773  -0.192  0.00  0.00     0.098 A 
ATOM      6  C6  <0> d           0.578  -1.983   0.822  0.00  0.00     0.041 A 
ATOM      7  C7  <0> d           0.555  -0.593   0.704  0.00  0.00     0.029 A 
ENDROOT
BRANCH   5   8
ATOM      8  S1  <0> d           0.066  -4.530  -0.054  0.00  0.00     0.262 S 
ATOM      9  O2  <0> d          -0.324  -4.839   1.277  0.00  0.00    -0.200 OA
ATOM     10  O3  <0> d          -0.623  -5.038  -1.188  0.00  0.00    -0.200 OA
BRANCH   8  11
ATOM     11  N1  <0> d           1.645  -5.006  -0.207  0.00  0.00    -0.302 N 
ATOM     12  C11 <0> d           2.430  -5.333   0.985  0.00  0.00     0.163 C 
BRANCH  11  13
ATOM     13  C12 <0> d           2.256  -5.100  -1.535  0.00  0.00     0.237 C 
BRANCH  13  14
ATOM     14  C13 <0> d           2.989  -3.820  -1.843  0.00  0.00     0.234 C 
ATOM     15  O4  <0> d           2.999  -2.917  -1.033  0.00  0.00    -0.272 OA
ATOM     16  N2  <0> d           3.632  -3.677  -3.019  0.00  0.00    -0.369 N 
ATOM     17  H15 <0> d           3.624  -4.399  -3.667  0.00  0.00     0.159 HD
ATOM     18  H16 <0> d           4.104  -2.853  -3.217  0.00  0.00     0.159 HD
ENDBRANCH  13  14
ENDBRANCH  11  13
ENDBRANCH   8  11
ENDBRANCH   5   8
BRANCH   6  19
ATOM     19  C8  <0> d           1.160  -2.596   1.978  0.00  0.00    -0.063 C 
ATOM     20  C9  <0> d           1.637  -3.099   2.926  0.00  0.00    -0.075 C 
BRANCH  20  21
ATOM     21  C10 <0> d           2.236  -3.729   4.114  0.00  0.00     0.258 C 
BRANCH  21  22
ATOM     22  O1  <0> d           2.716  -2.716   5.000  0.00  0.00    -0.389 OA
ATOM     23  H9  <0> d           3.124  -3.060   5.806  0.00  0.00     0.210 HD
ENDBRANCH  21  22
ENDBRANCH  20  21
ENDBRANCH   6  19
TORSDOF 7
