REMARK  7 active torsions:
REMARK  status: ('A' for Active; 'I' for Inactive)
REMARK    1  A    between atoms: O1_2  and  C2_3 
REMARK    2  A    between atoms: C2_3  and  C3_4 
REMARK    3  A    between atoms: C3_4  and  N1_5 
REMARK    4  A    between atoms: C4_6  and  C5_10 
REMARK    5  A    between atoms: C5_10  and  C6_11 
REMARK    6  A    between atoms: C5_10  and  N6_25 
REMARK    7  A    between atoms: C10_15  and  O3_23 
ROOT
ATOM      1  C5  <0> d           2.466   1.062  -0.015  0.00  0.00     0.334 C 
ENDROOT
BRANCH   1   2
ATOM      2  C4  <0> d           3.207   1.343   1.267  0.00  0.00     0.186 A 
ATOM      3  N1  <0> d           3.365   0.499   2.304  0.00  0.00    -0.230 N 
ATOM      4  N4  <0> d           4.058   1.122   3.197  0.00  0.00    -0.044 NA
ATOM      5  N3  <0> d           4.333   2.301   2.762  0.00  0.00    -0.023 NA
ATOM      6  N2  <0> d           3.827   2.452   1.586  0.00  0.00    -0.111 NA
BRANCH   3   7
ATOM      7  C3  <0> d           2.848  -0.868   2.401  0.00  0.00     0.180 C 
BRANCH   7   8
ATOM      8  C2  <0> d           3.883  -1.845   1.842  0.00  0.00     0.189 C 
BRANCH   8   9
ATOM      9  O1  <0> d           3.379  -3.179   1.936  0.00  0.00    -0.394 OA
ATOM     10  C1  <0> d           4.273  -4.176   1.438  0.00  0.00     0.201 C 
ENDBRANCH   8   9
ENDBRANCH   7   8
ENDBRANCH   3   7
ENDBRANCH   1   2
BRANCH   1  11
ATOM     11  C6  <0> d           1.143   1.784   0.001  0.00  0.00     0.051 A 
ATOM     12  C14 <0> d           1.113   3.195   0.009  0.00  0.00     0.254 A 
ATOM     13  N5  <0> d          -0.047   3.875   0.023  0.00  0.00    -0.322 N 
ATOM     14  O2  <0> d           2.163   3.813   0.002  0.00  0.00    -0.268 OA
ATOM     15  C13 <0> d          -1.258   3.214   0.031  0.00  0.00     0.045 A 
ATOM     16  H2  <0> d          -0.021   4.975   0.029  0.00  0.00     0.169 HD
ATOM     17  C8  <0> d          -1.281   1.807   0.018  0.00  0.00    -0.006 A 
ATOM     18  C12 <0> d          -2.457   3.920   0.045  0.00  0.00     0.033 A 
ATOM     19  C7  <0> d          -0.013   1.076   0.008  0.00  0.00     0.029 A 
ATOM     20  C9  <0> d          -2.505   1.129   0.019  0.00  0.00     0.050 A 
ATOM     21  C10 <0> d          -3.682   1.849   0.028  0.00  0.00     0.069 A 
ATOM     22  C11 <0> d          -3.655   3.242   0.035  0.00  0.00     0.039 A 
BRANCH  21  23
ATOM     23  O3  <0> d          -4.875   1.196   0.030  0.00  0.00    -0.356 OA
ATOM     24  C15 <0> d          -6.056   2.001   0.039  0.00  0.00     0.210 C 
ENDBRANCH  21  23
ENDBRANCH   1  11
BRANCH   1  25
ATOM     25  N6  <0> d           3.266   1.531  -1.155  0.00  0.00     0.109 N 
ATOM     26  C19 <0> d           4.566   0.847  -1.203  0.00  0.00     0.300 C 
ATOM     27  C18 <0> d           5.389   1.407  -2.367  0.00  0.00     0.198 C 
ATOM     28  O4  <0> d           4.651   1.253  -3.582  0.00  0.00    -0.388 OA
ATOM     29  C17 <0> d           3.380   1.907  -3.571  0.00  0.00     0.198 C 
ATOM     30  C16 <0> d           2.537   1.353  -2.419  0.00  0.00     0.300 C 
ENDBRANCH   1  25
TORSDOF 7
