REMARK  6 active torsions:
REMARK  status: ('A' for Active; 'I' for Inactive)
REMARK    1  A    between atoms: C9_10  and  C10_11 
REMARK    2  A    between atoms: C10_11  and  N2_12 
REMARK    3  A    between atoms: N3_15  and  C17_21 
REMARK    4  A    between atoms: C13_16  and  C15_18 
REMARK    5  A    between atoms: C15_18  and  C16_19 
REMARK    6  A    between atoms: C16_19  and  O1_20 
ROOT
ATOM      1  N2  <0> d          -1.124  -1.513   3.323  0.00  0.00     0.094 N 
ATOM      2  C11 <0> d          -1.181  -2.793   2.603  0.00  0.00     0.300 C 
ATOM      3  C12 <0> d          -1.071  -3.944   3.607  0.00  0.00     0.266 C 
ATOM      4  N3  <0> d          -2.172  -3.857   4.574  0.00  0.00    -0.059 N 
ATOM      5  C13 <0> d          -2.088  -2.584   5.302  0.00  0.00     0.218 C 
ATOM      6  C14 <0> d          -2.207  -1.422   4.313  0.00  0.00     0.305 C 
ATOM      7  H32 <0> d          -3.054  -3.907   4.086  0.00  0.00     0.281 HD
ENDROOT
BRANCH   1   8
ATOM      8  C10 <0> d          -1.171  -0.381   2.387  0.00  0.00     0.302 C 
BRANCH   8   9
ATOM      9  C9  <0> d          -0.639   0.875   3.080  0.00  0.00     0.140 A 
ATOM     10  C2  <0> d          -0.593   2.029   2.103  0.00  0.00    -0.047 A 
ATOM     11  C1  <0> d          -1.757   2.639   1.365  0.00  0.00     0.046 C 
ATOM     12  C3  <0> d           0.704   2.407   2.031  0.00  0.00    -0.004 A 
ATOM     13  C8  <0> d           1.511   1.540   2.919  0.00  0.00     0.061 A 
ATOM     14  C4  <0> d           1.395   3.457   1.274  0.00  0.00     0.014 A 
ATOM     15  C7  <0> d           2.956   1.788   2.983  0.00  0.00     0.061 A 
ATOM     16  N1  <0> d           0.745   0.661   3.517  0.00  0.00    -0.378 N 
ATOM     17  C6  <0> d           3.497   2.783   2.244  0.00  0.00     0.026 A 
ATOM     18 Cl1  <0> d           3.965   0.810   4.002  0.00  0.00    -0.082 Cl
ATOM     19  C5  <0> d           2.731   3.602   1.405  0.00  0.00     0.003 A 
ATOM     20  H31 <0> d           1.043  -0.015   4.145  0.00  0.00     0.160 HD
ENDBRANCH   8   9
ENDBRANCH   1   8
BRANCH   5  21
ATOM     21  C15 <0> d          -3.225  -2.503   6.322  0.00  0.00     0.061 C 
BRANCH  21  22
ATOM     22  C16 <0> d          -3.075  -1.228   7.154  0.00  0.00     0.166 C 
BRANCH  22  23
ATOM     23  O1  <0> d          -4.065  -1.212   8.184  0.00  0.00    -0.401 OA
ATOM     24  H21 <0> d          -4.029  -0.430   8.752  0.00  0.00     0.209 HD
ENDBRANCH  22  23
ENDBRANCH  21  22
ENDBRANCH   5  21
BRANCH   4  25
ATOM     25  C17 <0> d          -2.076  -4.972   5.526  0.00  0.00     0.188 C 
ATOM     26  C21 <0> d          -2.106  -6.313   4.772  0.00  0.00     0.033 C 
ATOM     27  C20 <0> d          -0.773  -7.024   5.086  0.00  0.00     0.002 C 
ATOM     28  C19 <0> d          -0.317  -6.401   6.428  0.00  0.00     0.002 C 
ATOM     29  C18 <0> d          -0.727  -4.915   6.272  0.00  0.00     0.033 C 
ENDBRANCH   4  25
TORSDOF 6
