REMARK  4 active torsions:
REMARK  status: ('A' for Active; 'I' for Inactive)
REMARK    1  A    between atoms: C4_4  and  S1_7 
REMARK    2  A    between atoms: S1_7  and  N1_10 
REMARK    3  A    between atoms: N1_10  and  N2_11 
REMARK    4  A    between atoms: C9_15  and  C10_16 
ROOT
ATOM      1  N2  <0> d           3.549  -1.818   2.389  0.00  0.00    -0.192 N 
ATOM      2  C7  <0> d           2.615  -1.191   3.085  0.00  0.00     0.285 A 
ATOM      3  O3  <0> d           2.455   0.012   3.005  0.00  0.00    -0.265 OA
ATOM      4  C8  <0> d           1.772  -2.035   3.970  0.00  0.00     0.078 A 
ATOM      5  C9  <0> d           0.733  -1.673   4.804  0.00  0.00     0.034 C 
ATOM      6  S2  <0> d           2.472  -3.650   3.656  0.00  0.00    -0.053 SA
ATOM      7  C18 <0> d           3.718  -3.152   2.478  0.00  0.00     0.169 A 
ATOM      8  S3  <0> d           4.857  -4.134   1.659  0.00  0.00    -0.050 SA
ENDROOT
BRANCH   1   9
ATOM      9  N1  <0> d           4.378  -1.079   1.536  0.00  0.00    -0.212 N 
ATOM     10  H6  <0> d           5.212  -0.711   1.868  0.00  0.00     0.201 HD
BRANCH   9  11
ATOM     11  S1  <0> d           3.934  -0.832  -0.041  0.00  0.00     0.276 S 
ATOM     12  O1  <0> d           3.674  -2.114  -0.595  0.00  0.00    -0.199 OA
ATOM     13  O2  <0> d           4.890   0.060  -0.597  0.00  0.00    -0.199 OA
BRANCH  11  14
ATOM     14  C4  <0> d           2.396   0.029  -0.020  0.00  0.00     0.081 A 
ATOM     15  C3  <0> d           2.377   1.411  -0.013  0.00  0.00     0.025 A 
ATOM     16  C2  <0> d           1.171   2.086   0.002  0.00  0.00     0.002 A 
ATOM     17  C1  <0> d          -0.017   1.378   0.010  0.00  0.00     0.000 A 
ATOM     18  C6  <0> d           0.002  -0.004   0.002  0.00  0.00     0.002 A 
ATOM     19  C5  <0> d           1.208  -0.679  -0.012  0.00  0.00     0.025 A 
ENDBRANCH  11  14
ENDBRANCH   9  11
ENDBRANCH   1   9
BRANCH   5  20
ATOM     20  C10 <0> d           0.070  -2.646   5.556  0.00  0.00    -0.027 A 
ATOM     21  C17 <0> d           0.352  -4.132   5.582  0.00  0.00     0.159 A 
ATOM     22  N3  <0> d          -0.609  -4.710   6.526  0.00  0.00    -0.385 N 
ATOM     23  C16 <0> d          -1.375  -3.756   7.007  0.00  0.00     0.039 A 
ATOM     24  H14 <0> d          -0.673  -5.650   6.757  0.00  0.00     0.160 HD
ATOM     25  C11 <0> d          -0.994  -2.451   6.436  0.00  0.00    -0.002 A 
ATOM     26  C15 <0> d          -2.449  -3.790   7.939  0.00  0.00     0.030 A 
ATOM     27  C12 <0> d          -1.705  -1.298   6.834  0.00  0.00     0.014 A 
ATOM     28  C13 <0> d          -2.720  -1.409   7.729  0.00  0.00     0.001 A 
ATOM     29  C14 <0> d          -3.086  -2.644   8.274  0.00  0.00     0.002 A 
ENDBRANCH   5  20
TORSDOF 4
