REMARK  3 active torsions:
REMARK  status: ('A' for Active; 'I' for Inactive)
REMARK    1  A    between atoms: C2_2  and  N3_21 
REMARK    2  A    between atoms: C6_6  and  S1_7 
REMARK    3  A    between atoms: S1_7  and  N1_10 
ROOT
ATOM      1  S1  <0> d          -1.512  -0.905   0.012  0.00  0.00     0.264 S 
ATOM      2  O1  <0> d          -1.393  -1.888   1.031  0.00  0.00    -0.200 OA
ATOM      3  O2  <0> d          -2.558   0.058  -0.000  0.00  0.00    -0.200 OA
ENDROOT
BRANCH   1   4
ATOM      4  C6  <0> d           0.002  -0.004   0.002  0.00  0.00     0.122 A 
ATOM      5  C1  <0> d          -0.017   1.377   0.010  0.00  0.00     0.057 A 
ATOM      6  C2  <0> d           1.177   2.087   0.002  0.00  0.00     0.029 A 
ATOM      7  C3  <0> d           2.387   1.407  -0.013  0.00  0.00     0.056 A 
ATOM      8  C4  <0> d           2.402   0.025  -0.021  0.00  0.00     0.076 A 
ATOM      9  C5  <0> d           1.210  -0.681  -0.013  0.00  0.00     0.161 A 
ATOM     10 Cl1  <0> d           3.914  -0.827  -0.040  0.00  0.00    -0.081 Cl
ATOM     11  F1  <0> d           1.225  -2.032  -0.021  0.00  0.00    -0.203 F 
BRANCH   6  12
ATOM     12  N3  <0> d           1.160   3.485   0.009  0.00  0.00    -0.399 N 
ATOM     13  H16 <0> d           0.314   3.960   0.019  0.00  0.00     0.156 HD
ATOM     14  H17 <0> d           1.994   3.981   0.004  0.00  0.00     0.156 HD
ENDBRANCH   6  12
ENDBRANCH   1   4
BRANCH   1  15
ATOM     15  N1  <0> d          -1.605  -1.722  -1.426  0.00  0.00    -0.303 N 
ATOM     16  C13 <0> d          -1.050  -3.086  -1.543  0.00  0.00     0.168 C 
ATOM     17  C12 <0> d          -0.179  -3.099  -2.791  0.00  0.00     0.207 C 
ATOM     18  N2  <0> d          -1.046  -2.719  -3.938  0.00  0.00    -0.064 N 
ATOM     19  C11 <0> d           0.290  -4.510  -3.190  0.00  0.00     0.036 C 
ATOM     20  C8  <0> d          -1.350  -1.298  -3.837  0.00  0.00     0.256 C 
ATOM     21  C9  <0> d          -0.303  -3.124  -5.134  0.00  0.00     0.235 C 
ATOM     22  H18 <0> d          -1.904  -3.248  -3.895  0.00  0.00     0.280 HD
ATOM     23  C7  <0> d          -2.234  -1.094  -2.595  0.00  0.00     0.163 C 
ATOM     24  C10 <0> d           0.548  -4.346  -4.713  0.00  0.00     0.030 C 
ENDBRANCH   1  15
TORSDOF 3
