REMARK  6 active torsions:
REMARK  status: ('A' for Active; 'I' for Inactive)
REMARK    1  A    between atoms: C2_2  and  C3_3 
REMARK    2  A    between atoms: C2_2  and  C7_9 
REMARK    3  A    between atoms: C3_3  and  N1_4 
REMARK       I    between atoms: C7_9  and  N3_11 
REMARK    4  A    between atoms: N3_11  and  C8_12 
REMARK    5  A    between atoms: C8_12  and  C9_13 
REMARK    6  A    between atoms: C13_18  and  O2_22 
ROOT
ATOM      1  C9  <0> d          -4.327  -0.231   2.302  0.00  0.00     0.199 A 
ATOM      2  N4  <0> d          -3.598  -0.666   3.500  0.00  0.00    -0.365 N 
ATOM      3  C10 <0> d          -3.231   0.403   4.146  0.00  0.00     0.056 A 
ATOM      4  C11 <0> d          -2.481   0.594   5.397  0.00  0.00     0.034 A 
ATOM      5  C12 <0> d          -2.235   1.839   5.845  0.00  0.00     0.039 A 
ATOM      6  C13 <0> d          -2.692   3.021   5.125  0.00  0.00     0.070 A 
ATOM      7  C14 <0> d          -3.388   2.928   3.966  0.00  0.00     0.068 A 
ATOM      8  C15 <0> d          -3.697   1.609   3.409  0.00  0.00     0.059 A 
ATOM      9  N5  <0> d          -4.338   1.237   2.333  0.00  0.00    -0.365 N 
ATOM     10  H20 <0> d          -3.423  -1.583   3.762  0.00  0.00     0.162 HD
ATOM     11  H21 <0> d          -4.745   1.822   1.675  0.00  0.00     0.162 HD
ENDROOT
BRANCH   1  12
ATOM     12  C8  <0> d          -3.611  -0.724   1.044  0.00  0.00     0.169 C 
BRANCH  12  13
ATOM     13  N3  <0> d          -2.236  -0.217   1.033  0.00  0.00    -0.357 N 
ATOM     14  C7  <0> d          -1.412  -0.526   0.013  0.00  0.00     0.223 C 
ATOM     15  O1  <0> d          -1.808  -1.223  -0.897  0.00  0.00    -0.273 OA
ATOM     16  H11 <0> d          -1.920   0.341   1.761  0.00  0.00     0.162 HD
BRANCH  14  17
ATOM     17  C2  <0> d           0.002  -0.004   0.002  0.00  0.00     0.093 C 
ATOM     18  C1  <0> d          -0.019   1.526   0.010  0.00  0.00     0.021 C 
BRANCH  17  19
ATOM     19  C3  <0> d           0.718  -0.497  -1.257  0.00  0.00     0.164 C 
BRANCH  19  20
ATOM     20  N1  <0> d           2.125  -0.091  -1.209  0.00  0.00    -0.280 N 
ATOM     21  N2  <0> d           2.600   1.216  -1.041  0.00  0.00    -0.185 NA
ATOM     22  C6  <0> d           3.908   1.180  -1.047  0.00  0.00     0.140 A 
ATOM     23  C5  <0> d           4.307  -0.148  -1.229  0.00  0.00     0.040 A 
ATOM     24  C4  <0> d           3.192  -0.909  -1.326  0.00  0.00     0.113 A 
ENDBRANCH  19  20
ENDBRANCH  17  19
ENDBRANCH  14  17
ENDBRANCH  12  13
ENDBRANCH   1  12
BRANCH   6  25
ATOM     25  O2  <0> d          -2.413   4.249   5.630  0.00  0.00    -0.356 OA
ATOM     26  C16 <0> d          -1.678   4.296   6.854  0.00  0.00     0.210 C 
ENDBRANCH   6  25
TORSDOF 6
