REMARK  5 active torsions:
REMARK  status: ('A' for Active; 'I' for Inactive)
REMARK    1  A    between atoms: C4_4  and  O2_26 
REMARK    2  A    between atoms: C5_5  and  C18_23 
REMARK    3  A    between atoms: C7_7  and  N1_8 
REMARK    4  A    between atoms: N1_8  and  C8_9 
REMARK    5  A    between atoms: C11_14  and  C12_15 
ROOT
ATOM      1  C8  <0> d          -2.285   6.011   1.044  0.00  0.00     0.175 A 
ATOM      2  N2  <0> d          -1.496   5.751   0.013  0.00  0.00    -0.184 NA
ATOM      3  C9  <0> d          -0.591   6.603  -0.414  0.00  0.00     0.286 A 
ATOM      4  O1  <0> d           0.128   6.354  -1.369  0.00  0.00    -0.265 OA
ATOM      5  C10 <0> d          -0.488   7.881   0.331  0.00  0.00     0.079 A 
ATOM      6  C11 <0> d           0.339   8.938   0.134  0.00  0.00     0.036 C 
ATOM      7  S1  <0> d          -1.762   7.638   1.562  0.00  0.00    -0.046 SA
ENDROOT
BRANCH   1   8
ATOM      8  N1  <0> d          -3.263   5.219   1.586  0.00  0.00    -0.335 N 
ATOM      9  H6  <0> d          -3.810   5.554   2.314  0.00  0.00     0.168 HD
BRANCH   8  10
ATOM     10  C7  <0> d          -3.475   3.928   1.088  0.00  0.00     0.040 A 
ATOM     11  C2  <0> d          -4.434   3.108   1.668  0.00  0.00    -0.033 A 
ATOM     12  C1  <0> d          -5.247   3.608   2.834  0.00  0.00     0.050 C 
ATOM     13  C3  <0> d          -4.642   1.835   1.176  0.00  0.00     0.046 A 
ATOM     14  C4  <0> d          -3.898   1.377   0.099  0.00  0.00     0.072 A 
ATOM     15  C5  <0> d          -2.935   2.193  -0.477  0.00  0.00    -0.019 A 
ATOM     16  C6  <0> d          -2.726   3.466   0.013  0.00  0.00     0.040 A 
BRANCH  14  17
ATOM     17  O2  <0> d          -4.108   0.125  -0.388  0.00  0.00    -0.360 OA
ATOM     18  H19 <0> d          -3.563  -0.556   0.029  0.00  0.00     0.217 HD
ENDBRANCH  14  17
BRANCH  15  19
ATOM     19  C18 <0> d          -2.123   1.692  -1.643  0.00  0.00     0.013 C 
ATOM     20  C19 <0> d          -0.638   1.706  -1.274  0.00  0.00     0.015 C 
ATOM     21  C20 <0> d          -2.356   2.597  -2.854  0.00  0.00     0.015 C 
ENDBRANCH  15  19
ENDBRANCH   8  10
ENDBRANCH   1   8
BRANCH   6  22
ATOM     22  C12 <0> d           0.126  10.187   0.879  0.00  0.00    -0.035 A 
ATOM     23  C17 <0> d          -1.025  10.354   1.657  0.00  0.00     0.013 A 
ATOM     24  C16 <0> d          -1.218  11.528   2.353  0.00  0.00     0.024 A 
ATOM     25  C15 <0> d          -0.275  12.541   2.284  0.00  0.00     0.034 A 
ATOM     26  C14 <0> d           0.867  12.383   1.516  0.00  0.00     0.024 A 
ATOM     27 Cl1  <0> d          -0.526  14.016   3.164  0.00  0.00    -0.084 Cl
ATOM     28  C13 <0> d           1.077  11.212   0.819  0.00  0.00     0.013 A 
ENDBRANCH   6  22
TORSDOF 5
