REMARK  7 active torsions:
REMARK  status: ('A' for Active; 'I' for Inactive)
REMARK    1  A    between atoms: C5_5  and  N1_7 
REMARK    2  A    between atoms: N1_7  and  C7_8 
REMARK    3  A    between atoms: C7_8  and  C8_9 
REMARK    4  A    between atoms: C7_8  and  C17_21 
REMARK    5  A    between atoms: C10_11  and  O3_19 
REMARK    6  A    between atoms: C11_12  and  O2_17 
REMARK    7  A    between atoms: C12_13  and  O1_15 
ROOT
ATOM      1  C7  <0> d           1.490   2.314   4.759  0.00  0.00     0.152 C 
ENDROOT
BRANCH   1   2
ATOM      2  N1  <0> d           0.054   2.495   4.988  0.00  0.00    -0.363 N 
ATOM      3  H9  <0> d          -0.264   2.805   5.850  0.00  0.00     0.162 HD
BRANCH   2   4
ATOM      4  C5  <0> d          -0.852   2.222   3.970  0.00  0.00     0.102 A 
ATOM      5  C6  <0> d          -0.388   1.778   2.735  0.00  0.00     0.054 A 
ATOM      6  C2  <0> d          -1.301   1.510   1.731  0.00  0.00    -0.057 A 
ATOM      7  C1  <0> d          -0.840   1.028   0.380  0.00  0.00     0.048 C 
ATOM      8  C3  <0> d          -2.651   1.702   1.994  0.00  0.00     0.024 A 
ATOM      9  C4  <0> d          -3.041   2.140   3.244  0.00  0.00     0.090 A 
ATOM     10  N3  <0> d          -2.172   2.413   4.254  0.00  0.00    -0.353 N 
ATOM     11  H28 <0> d          -2.491   2.741   5.173  0.00  0.00     0.166 HD
ENDBRANCH   2   4
ENDBRANCH   1   2
BRANCH   1  12
ATOM     12  C8  <0> d           2.264   3.204   5.697  0.00  0.00    -0.025 A 
ATOM     13  C13 <0> d           3.398   3.856   5.250  0.00  0.00     0.049 A 
ATOM     14  C12 <0> d           4.114   4.675   6.110  0.00  0.00     0.104 A 
ATOM     15  C11 <0> d           3.690   4.840   7.423  0.00  0.00     0.135 A 
ATOM     16  C10 <0> d           2.549   4.182   7.869  0.00  0.00     0.104 A 
ATOM     17  C9  <0> d           1.836   3.369   7.001  0.00  0.00     0.049 A 
BRANCH  14  18
ATOM     18  O1  <0> d           5.229   5.317   5.668  0.00  0.00    -0.353 OA
ATOM     19  C14 <0> d           5.605   5.102   4.307  0.00  0.00     0.210 C 
ENDBRANCH  14  18
BRANCH  15  20
ATOM     20  O2  <0> d           4.389   5.643   8.270  0.00  0.00    -0.351 OA
ATOM     21  C15 <0> d           4.011   7.020   8.320  0.00  0.00     0.210 C 
ENDBRANCH  15  20
BRANCH  16  22
ATOM     22  O3  <0> d           2.130   4.341   9.153  0.00  0.00    -0.353 OA
ATOM     23  C16 <0> d           0.950   3.635   9.542  0.00  0.00     0.210 C 
ENDBRANCH  16  22
ENDBRANCH   1  12
BRANCH   1  24
ATOM     24  C17 <0> d           1.861   0.875   5.010  0.00  0.00     0.004 A 
ATOM     25  C20 <0> d           1.411   0.041   6.127  0.00  0.00     0.001 A 
ATOM     26  C19 <0> d           2.014  -1.217   5.941  0.00  0.00     0.043 A 
ATOM     27  C21 <0> d           0.576   0.258   7.225  0.00  0.00     0.014 A 
ATOM     28  N2  <0> d           2.770  -1.138   4.793  0.00  0.00    -0.359 N 
ATOM     29  C24 <0> d           1.767  -2.233   6.858  0.00  0.00     0.030 A 
ATOM     30  C18 <0> d           2.663   0.113   4.250  0.00  0.00     0.015 A 
ATOM     31  H2  <0> d           3.298  -1.863   4.423  0.00  0.00     0.166 HD
ATOM     32  C25 <0> d           3.347   0.569   2.987  0.00  0.00     0.069 C 
ATOM     33  C23 <0> d           0.940  -1.997   7.935  0.00  0.00     0.002 A 
ATOM     34  C22 <0> d           0.348  -0.755   8.114  0.00  0.00     0.001 A 
ENDBRANCH   1  24
TORSDOF 7
