REMARK  3 active torsions:
REMARK  status: ('A' for Active; 'I' for Inactive)
REMARK    1  A    between atoms: C2_2  and  N1_3 
REMARK    2  A    between atoms: N1_3  and  C3_4 
REMARK    3  A    between atoms: N2_7  and  C9_11 
ROOT
ATOM      1  C3  <0> d           0.818  -1.944  -1.273  0.00  0.00     0.192 C 
ATOM      2  C4  <0> d          -0.614  -2.487  -1.258  0.00  0.00     0.061 C 
ATOM      3  C5  <0> d          -0.577  -4.013  -1.353  0.00  0.00     0.237 C 
ATOM      4  N2  <0> d           0.086  -4.414  -2.599  0.00  0.00    -0.066 N 
ATOM      5  C6  <0> d           1.482  -3.959  -2.589  0.00  0.00     0.241 C 
ATOM      6  C7  <0> d           1.526  -2.430  -2.541  0.00  0.00     0.038 C 
ATOM      7  C8  <0> d           2.981  -1.959  -2.526  0.00  0.00     0.014 C 
ATOM      8  H28 <0> d          -0.395  -4.000  -3.384  0.00  0.00     0.280 HD
ENDROOT
BRANCH   4   9
ATOM      9  C9  <0> d           0.051  -5.877  -2.723  0.00  0.00     0.190 C 
ATOM     10  C13 <0> d           0.751  -6.289  -4.015  0.00  0.00     0.048 C 
ATOM     11  C12 <0> d           0.963  -7.805  -4.034  0.00  0.00     0.142 C 
ATOM     12  S1  <0> d          -0.658  -8.626  -4.025  0.00  0.00     0.144 S 
ATOM     13  C11 <0> d          -1.458  -7.869  -2.579  0.00  0.00     0.142 C 
ATOM     14  O1  <0> d          -1.369  -8.235  -5.191  0.00  0.00    -0.228 OA
ATOM     15  O2  <0> d          -0.465 -10.009  -3.762  0.00  0.00    -0.228 OA
ATOM     16  C10 <0> d          -1.401  -6.346  -2.723  0.00  0.00     0.048 C 
ENDBRANCH   4   9
BRANCH   1  17
ATOM     17  N1  <0> d           0.787  -0.476  -1.259  0.00  0.00    -0.071 N 
ATOM     18  H8  <0> d           0.222  -0.144  -2.026  0.00  0.00     0.277 HD
ATOM     19  H27 <0> d           1.726  -0.119  -1.354  0.00  0.00     0.277 HD
BRANCH  17  20
ATOM     20  C2  <0> d           0.213  -0.010   0.010  0.00  0.00     0.228 C 
ATOM     21  C1  <0> d           0.181   1.520   0.025  0.00  0.00     0.034 C 
ENDBRANCH  17  20
ENDBRANCH   1  17
TORSDOF 3
