REMARK  3 active torsions:
REMARK  status: ('A' for Active; 'I' for Inactive)
REMARK    1  A    between atoms: C9_9  and  O2_29 
REMARK    2  A    between atoms: N1_19  and  N2_20 
REMARK       I    between atoms: N2_20  and  C19_21 
REMARK    3  A    between atoms: C19_21  and  C20_23 
ROOT
ATOM      1  C1  <0> d          -0.015   0.949   2.481  0.00  0.00     0.022 C 
ATOM      2  C2  <0> d          -0.706   1.566   1.263  0.00  0.00     0.003 C 
ATOM      3  C3  <0> d          -0.013   1.086   0.008  0.00  0.00     0.016 C 
ATOM      4  C4  <0> d          -0.737   1.585  -1.241  0.00  0.00     0.011 C 
ATOM      5  C5  <0> d          -2.171   1.040  -1.229  0.00  0.00     0.024 C 
ATOM      6  C6  <0> d          -2.869   1.518  -2.480  0.00  0.00    -0.047 A 
ATOM      7  C7  <0> d          -2.640   0.818  -3.656  0.00  0.00     0.011 A 
ATOM      8  C8  <0> d          -3.242   1.208  -4.834  0.00  0.00     0.037 A 
ATOM      9  C9  <0> d          -4.083   2.312  -4.841  0.00  0.00     0.066 A 
ATOM     10  C10 <0> d          -4.313   3.008  -3.667  0.00  0.00     0.044 A 
ATOM     11  C11 <0> d          -3.709   2.609  -2.481  0.00  0.00    -0.049 A 
ATOM     12  C12 <0> d          -4.023   3.402  -1.239  0.00  0.00     0.039 C 
ATOM     13  C13 <0> d          -3.018   3.095  -0.129  0.00  0.00     0.010 C 
ATOM     14  C14 <0> d          -2.895   1.576  -0.001  0.00  0.00    -0.001 C 
ATOM     15  C15 <0> d          -2.198   1.196   1.298  0.00  0.00     0.004 C 
ATOM     16  C16 <0> d          -2.727   2.164   2.398  0.00  0.00     0.012 C 
ATOM     17  C17 <0> d          -1.936   3.466   2.142  0.00  0.00     0.058 C 
ATOM     18  C18 <0> d          -0.665   3.068   1.413  0.00  0.00     0.041 C 
ATOM     19  N1  <0> d           0.260   3.853   1.005  0.00  0.00    -0.180 NA
ENDROOT
BRANCH  19  20
ATOM     20  N2  <0> d           0.152   5.234   1.219  0.00  0.00    -0.243 N 
ATOM     21  C19 <0> d           1.126   6.060   0.789  0.00  0.00     0.273 C 
ATOM     22  O1  <0> d           2.098   5.608   0.215  0.00  0.00    -0.266 OA
ATOM     23  H22 <0> d          -0.624   5.595   1.676  0.00  0.00     0.192 HD
BRANCH  21  24
ATOM     24  C20 <0> d           1.012   7.517   1.014  0.00  0.00     0.051 A 
ATOM     25  C24 <0> d          -0.101   8.049   1.666  0.00  0.00     0.133 A 
ATOM     26  N3  <0> d          -0.200   9.346   1.873  0.00  0.00    -0.272 NA
ATOM     27  C23 <0> d           0.731  10.188   1.467  0.00  0.00     0.116 A 
ATOM     28  C22 <0> d           1.862   9.741   0.809  0.00  0.00     0.020 A 
ATOM     29  C21 <0> d           2.017   8.386   0.572  0.00  0.00     0.020 A 
ENDBRANCH  21  24
ENDBRANCH  19  20
BRANCH   9  30
ATOM     30  O2  <0> d          -4.678   2.708  -5.996  0.00  0.00    -0.361 OA
ATOM     31  H27 <0> d          -5.540   2.300  -6.155  0.00  0.00     0.217 HD
ENDBRANCH   9  30
TORSDOF 3
