REMARK  6 active torsions:
REMARK  status: ('A' for Active; 'I' for Inactive)
REMARK    1  A    between atoms: C12_13  and  C17_19 
REMARK    2  A    between atoms: C17_19  and  N3_20 
REMARK    3  A    between atoms: C18_21  and  O1_22 
REMARK    4  A    between atoms: C18_21  and  O2_23 
REMARK    5  A    between atoms: O2_23  and  C19_24 
REMARK    6  A    between atoms: C19_24  and  C20_25 
ROOT
ATOM      1  C1  <0> d          -0.018   1.461   0.010  0.00  0.00     0.155 C 
ATOM      2  N1  <0> d           0.002  -0.004   0.002  0.00  0.00    -0.360 N 
ATOM      3  C2  <0> d           0.008  -0.789  -1.141  0.00  0.00     0.098 A 
ATOM      4  C3  <0> d           0.028  -2.073  -0.816  0.00  0.00    -0.028 A 
ATOM      5  C4  <0> d           0.041  -2.106   0.647  0.00  0.00     0.005 A 
ATOM      6  C5  <0> d           0.023  -0.788   1.116  0.00  0.00     0.045 A 
ATOM      7  C6  <0> d           0.027  -0.601   2.497  0.00  0.00     0.030 A 
ATOM      8  C7  <0> d           0.056  -1.745   3.284  0.00  0.00     0.003 A 
ATOM      9  C8  <0> d           0.083  -3.044   2.778  0.00  0.00     0.008 A 
ATOM     10  C9  <0> d           0.073  -3.259   1.436  0.00  0.00    -0.039 A 
ATOM     11  C10 <0> d           0.120  -4.564   0.703  0.00  0.00     0.051 C 
ATOM     12  C11 <0> d           1.576  -4.989   0.491  0.00  0.00     0.019 C 
ATOM     13  C12 <0> d           1.604  -6.307  -0.289  0.00  0.00     0.030 C 
ATOM     14  C13 <0> d           0.854  -6.128  -1.610  0.00  0.00     0.241 C 
ATOM     15  N2  <0> d          -0.538  -5.749  -1.339  0.00  0.00    -0.069 N 
ATOM     16  C14 <0> d          -0.555  -4.445  -0.664  0.00  0.00     0.200 C 
ATOM     17  C15 <0> d           0.037  -3.379  -1.569  0.00  0.00     0.075 C 
ATOM     18  C16 <0> d          -1.274  -5.654  -2.606  0.00  0.00     0.270 C 
ATOM     19  H30 <0> d          -0.968  -6.449  -0.753  0.00  0.00     0.280 HD
ENDROOT
BRANCH  13  20
ATOM     20  C17 <0> d           3.055  -6.701  -0.574  0.00  0.00     0.130 C 
BRANCH  20  21
ATOM     21  N3  <0> d           3.087  -8.018  -1.214  0.00  0.00    -0.350 N 
ATOM     22  C18 <0> d           3.516  -8.137  -2.434  0.00  0.00     0.258 C 
ATOM     23  H31 <0> d           2.788  -8.802  -0.726  0.00  0.00     0.163 HD
BRANCH  22  24
ATOM     24  O1  <0> d           3.932  -7.047  -3.112  0.00  0.00    -0.327 OA
ATOM     25  H22 <0> d           4.233  -7.235  -4.012  0.00  0.00     0.221 HD
ENDBRANCH  22  24
BRANCH  22  26
ATOM     26  O2  <0> d           3.545  -9.352  -3.023  0.00  0.00    -0.312 OA
BRANCH  26  27
ATOM     27  C19 <0> d           3.089 -10.461  -2.247  0.00  0.00     0.218 C 
BRANCH  27  28
ATOM     28  C20 <0> d           3.195 -11.724  -3.063  0.00  0.00    -0.034 A 
ATOM     29  C25 <0> d           4.355 -12.474  -3.030  0.00  0.00     0.009 A 
ATOM     30  C24 <0> d           4.450 -13.633  -3.776  0.00  0.00     0.001 A 
ATOM     31  C23 <0> d           3.388 -14.039  -4.562  0.00  0.00     0.000 A 
ATOM     32  C22 <0> d           2.229 -13.286  -4.599  0.00  0.00     0.001 A 
ATOM     33  C21 <0> d           2.132 -12.128  -3.850  0.00  0.00     0.009 A 
ENDBRANCH  27  28
ENDBRANCH  26  27
ENDBRANCH  22  26
ENDBRANCH  20  21
ENDBRANCH  13  20
TORSDOF 6
