REMARK  2 active torsions:
REMARK  status: ('A' for Active; 'I' for Inactive)
REMARK    1  A    between atoms: C4_4  and  N2_9 
REMARK       I    between atoms: N2_9  and  C8_10 
REMARK       I    between atoms: C8_10  and  N3_12 
REMARK    2  A    between atoms: N3_12  and  C9_13 
ROOT
ATOM      1  N2  <0> d           4.682   0.432   0.517  0.00  0.00    -0.336 N 
ATOM      2  C8  <0> d           5.808   0.920   1.075  0.00  0.00     0.316 C 
ATOM      3  O1  <0> d           5.738   1.650   2.045  0.00  0.00    -0.247 OA
ATOM      4  N3  <0> d           7.010   0.598   0.559  0.00  0.00    -0.338 N 
ATOM      5  H14 <0> d           4.738  -0.150  -0.256  0.00  0.00     0.164 HD
ATOM      6  H15 <0> d           7.066   0.015  -0.214  0.00  0.00     0.164 HD
ENDROOT
BRANCH   1   7
ATOM      7  C4  <0> d           3.375   0.783   1.078  0.00  0.00     0.118 C 
ATOM      8  C3  <0> d           2.281   0.669  -0.003  0.00  0.00     0.211 C 
ATOM      9  C2  <0> d           1.457   1.969  -0.001  0.00  0.00     0.037 C 
ATOM     10  N1  <0> d           1.353  -0.408   0.424  0.00  0.00    -0.065 N 
ATOM     11  C1  <0> d          -0.019   1.533   0.011  0.00  0.00     0.030 C 
ATOM     12  C7  <0> d           0.002  -0.004   0.002  0.00  0.00     0.235 C 
ATOM     13  C6  <0> d           1.455  -0.430   1.921  0.00  0.00     0.237 C 
ATOM     14  H22 <0> d           1.621  -1.296   0.025  0.00  0.00     0.280 HD
ATOM     15  C5  <0> d           2.971  -0.230   2.174  0.00  0.00     0.055 C 
ENDBRANCH   1   7
BRANCH   4  16
ATOM     16  C9  <0> d           8.234   1.127   1.166  0.00  0.00     0.101 C 
ATOM     17  C12 <0> d           9.428   0.181   0.854  0.00  0.00     0.165 C 
ATOM     18  S1  <0> d          10.847   1.317   1.153  0.00  0.00     0.146 S 
ATOM     19  C11 <0> d           9.989   2.933   0.959  0.00  0.00     0.142 C 
ATOM     20  O2  <0> d          11.790   1.165   0.102  0.00  0.00    -0.228 OA
ATOM     21  O3  <0> d          11.274   1.180   2.502  0.00  0.00    -0.228 OA
ATOM     22  C10 <0> d           8.551   2.510   0.573  0.00  0.00     0.041 C 
ENDBRANCH   4  16
TORSDOF 2
