REMARK  4 active torsions:
REMARK  status: ('A' for Active; 'I' for Inactive)
REMARK    1  A    between atoms: C2_2  and  N1_3 
REMARK    2  A    between atoms: N1_3  and  C3_4 
REMARK    3  A    between atoms: C3_4  and  C4_5 
REMARK    4  A    between atoms: C3_4  and  C12_15 
ROOT
ATOM      1  C3  <0> d           0.733  -1.960   1.184  0.00  0.00     0.249 C 
ENDROOT
BRANCH   1   2
ATOM      2  N1  <0> d           0.713  -0.491   1.192  0.00  0.00    -0.065 N 
ATOM      3  H8  <0> d           1.659  -0.141   1.185  0.00  0.00     0.278 HD
ATOM      4  H21 <0> d           0.240  -0.165   2.022  0.00  0.00     0.278 HD
BRANCH   2   5
ATOM      5  C2  <0> d           0.002  -0.004   0.002  0.00  0.00     0.228 C 
ATOM      6  C1  <0> d          -0.019   1.526   0.010  0.00  0.00     0.034 C 
ENDBRANCH   2   5
ENDBRANCH   1   2
BRANCH   1   7
ATOM      7  C4  <0> d           1.352  -2.461   2.463  0.00  0.00    -0.025 A 
ATOM      8  C9  <0> d           0.823  -3.567   3.103  0.00  0.00     0.019 A 
ATOM      9  C8  <0> d           1.394  -4.025   4.269  0.00  0.00    -0.022 A 
ATOM     10  C7  <0> d           2.495  -3.383   4.822  0.00  0.00     0.041 A 
ATOM     11  C10 <0> d           1.070  -5.179   5.189  0.00  0.00     0.144 A 
ATOM     12  C6  <0> d           3.019  -2.265   4.174  0.00  0.00     0.031 A 
ATOM     13  N2  <0> d           2.888  -4.024   5.997  0.00  0.00    -0.326 N 
ATOM     14  C5  <0> d           2.447  -1.812   3.004  0.00  0.00     0.011 A 
ATOM     15  C11 <0> d           2.111  -5.081   6.284  0.00  0.00     0.226 A 
ATOM     16  H14 <0> d           3.637  -3.739   6.544  0.00  0.00     0.169 HD
ATOM     17  O1  <0> d           2.222  -5.819   7.241  0.00  0.00    -0.273 OA
ENDBRANCH   1   7
BRANCH   1  18
ATOM     18  C12 <0> d           1.555  -2.452  -0.008  0.00  0.00     0.180 C 
ATOM     19  O3  <0> d           2.921  -2.059   0.159  0.00  0.00    -0.379 OA
ATOM     20  C15 <0> d           3.781  -2.520  -0.888  0.00  0.00     0.194 C 
ATOM     21  C14 <0> d           3.703  -4.047  -0.968  0.00  0.00     0.193 C 
ATOM     22  O2  <0> d           2.337  -4.439  -1.135  0.00  0.00    -0.386 OA
ATOM     23  C13 <0> d           1.477  -3.979  -0.088  0.00  0.00     0.201 C 
ENDBRANCH   1  18
TORSDOF 4
