REMARK  3 active torsions:
REMARK  status: ('A' for Active; 'I' for Inactive)
REMARK    1  A    between atoms: C2_2  and  N1_3 
REMARK    2  A    between atoms: C13_16  and  C14_17 
REMARK    3  A    between atoms: N4_21  and  C18_24 
ROOT
ATOM      1  N1  <0> d           0.474   0.168   0.668  0.00  0.00    -0.057 N 
ATOM      2  C3  <0> d           0.402   1.083  -0.478  0.00  0.00     0.241 C 
ATOM      3  C4  <0> d          -1.033   1.610  -0.625  0.00  0.00     0.069 C 
ATOM      4  C5  <0> d          -1.965   0.425  -0.586  0.00  0.00    -0.019 A 
ATOM      5  C6  <0> d          -3.354   0.334  -0.974  0.00  0.00    -0.001 A 
ATOM      6  C7  <0> d          -4.261   1.265  -1.489  0.00  0.00     0.014 A 
ATOM      7  C8  <0> d          -5.532   0.817  -1.748  0.00  0.00     0.001 A 
ATOM      8  C9  <0> d          -5.913  -0.494  -1.514  0.00  0.00     0.002 A 
ATOM      9  C10 <0> d          -5.037  -1.437  -1.004  0.00  0.00     0.030 A 
ATOM     10  C11 <0> d          -3.739  -1.011  -0.732  0.00  0.00     0.043 A 
ATOM     11  N2  <0> d          -2.646  -1.664  -0.236  0.00  0.00    -0.356 N 
ATOM     12  H1  <0> d          -2.623  -2.600   0.017  0.00  0.00     0.166 HD
ATOM     13  C12 <0> d          -1.589  -0.800  -0.151  0.00  0.00     0.053 A 
ATOM     14  C13 <0> d          -0.196  -1.102   0.347  0.00  0.00     0.281 C 
ATOM     15  H21 <0> d           0.020   0.594   1.462  0.00  0.00     0.281 HD
ENDROOT
BRANCH  14  16
ATOM     16  C14 <0> d          -0.276  -1.959   1.584  0.00  0.00     0.101 A 
ATOM     17  C17 <0> d          -0.868  -1.462   2.759  0.00  0.00     0.269 A 
ATOM     18  N4  <0> d          -0.934  -2.246   3.853  0.00  0.00    -0.230 N 
ATOM     19  O1  <0> d          -1.323  -0.331   2.785  0.00  0.00    -0.267 OA
ATOM     20  C16 <0> d          -0.428  -3.492   3.831  0.00  0.00     0.336 A 
ATOM     21  N3  <0> d           0.148  -3.987   2.720  0.00  0.00    -0.285 N 
ATOM     22  O2  <0> d          -0.492  -4.182   4.830  0.00  0.00    -0.246 OA
ATOM     23  C15 <0> d           0.231  -3.224   1.582  0.00  0.00     0.197 A 
ATOM     24  H20 <0> d           0.506  -4.888   2.723  0.00  0.00     0.172 HD
ATOM     25  O3  <0> d           0.809  -3.724   0.469  0.00  0.00    -0.171 OA
BRANCH  18  26
ATOM     26  C18 <0> d          -1.529  -1.757   5.024  0.00  0.00     0.047 A 
ATOM     27  C23 <0> d          -0.759  -1.094   5.971  0.00  0.00     0.032 A 
ATOM     28  C22 <0> d          -1.349  -0.608   7.121  0.00  0.00     0.026 A 
ATOM     29  C21 <0> d          -2.703  -0.791   7.336  0.00  0.00     0.034 A 
ATOM     30  C20 <0> d          -3.471  -1.457   6.397  0.00  0.00     0.026 A 
ATOM     31 Cl1  <0> d          -3.441  -0.184   8.786  0.00  0.00    -0.084 Cl
ATOM     32  C19 <0> d          -2.888  -1.940   5.242  0.00  0.00     0.032 A 
ENDBRANCH  18  26
ENDBRANCH  14  16
BRANCH   1  33
ATOM     33  C2  <0> d           1.882  -0.094   0.995  0.00  0.00     0.231 C 
ATOM     34  C1  <0> d           2.550   1.206   1.449  0.00  0.00     0.034 C 
ENDBRANCH   1  33
TORSDOF 3
