REMARK  2 active torsions:
REMARK  status: ('A' for Active; 'I' for Inactive)
REMARK    1  A    between atoms: N2_6  and  C5_7 
REMARK    2  A    between atoms: C10_12  and  C11_13 
ROOT
ATOM      1  C5  <0> d           0.030  -0.353   2.491  0.00  0.00     0.105 C 
ATOM      2  C6  <0> d          -1.205  -0.903   3.207  0.00  0.00     0.026 C 
ATOM      3  C7  <0> d          -1.197  -0.439   4.665  0.00  0.00     0.002 C 
ATOM      4  C8  <0> d           0.066  -0.955   5.358  0.00  0.00     0.001 C 
ATOM      5  C9  <0> d           1.301  -0.405   4.642  0.00  0.00     0.017 C 
ATOM      6  C10 <0> d           1.293  -0.869   3.184  0.00  0.00     0.110 C 
ENDROOT
BRANCH   1   7
ATOM      7  N2  <0> d           0.023  -0.797   1.095  0.00  0.00    -0.340 N 
ATOM      8  C2  <0> d           0.002  -0.004   0.002  0.00  0.00     0.079 A 
ATOM      9  C1  <0> d          -0.018   1.503   0.010  0.00  0.00     0.089 C 
ATOM     10  N1  <0> d           0.008  -0.759  -1.063  0.00  0.00    -0.355 N 
ATOM     11  C3  <0> d           0.028  -2.047  -0.691  0.00  0.00     0.106 A 
ATOM     12  H16 <0> d          -0.000  -0.438  -1.978  0.00  0.00     0.166 HD
ATOM     13  C4  <0> d           0.034  -2.093   0.655  0.00  0.00     0.110 A 
ENDBRANCH   1   7
BRANCH   6  14
ATOM     14  C11 <0> d           2.510  -0.327   2.478  0.00  0.00     0.179 C 
ATOM     15  O1  <0> d           3.539  -0.130   3.102  0.00  0.00    -0.648 OA
ATOM     16  O2  <0> d           2.465  -0.086   1.284  0.00  0.00    -0.648 OA
ENDBRANCH   6  14
TORSDOF 2
