REMARK  7 active torsions:
REMARK  status: ('A' for Active; 'I' for Inactive)
REMARK    1  A    between atoms: N1_8  and  C7_9 
REMARK    2  A    between atoms: C7_9  and  C8_10 
REMARK    3  A    between atoms: C8_10  and  C9_11 
REMARK    4  A    between atoms: C12_17  and  C16_24 
REMARK    5  A    between atoms: C14_19  and  N4_21 
REMARK    6  A    between atoms: C18_26  and  O4_33 
REMARK    7  A    between atoms: C19_27  and  O3_31 
ROOT
ATOM      1  C1  <0> d           2.457   1.026  -0.016  0.00  0.00     0.068 C 
ATOM      2  C2  <0> d           1.146   1.769   0.001  0.00  0.00     0.013 A 
ATOM      3  C3  <0> d          -0.013   1.076   0.008  0.00  0.00     0.063 A 
ATOM      4  C4  <0> d          -1.242   1.767   0.018  0.00  0.00     0.092 A 
ATOM      5  C5  <0> d          -1.233   3.146   0.032  0.00  0.00     0.058 A 
ATOM      6  C6  <0> d          -0.007   3.822   0.024  0.00  0.00     0.258 A 
ATOM      7  O1  <0> d           0.017   5.043   0.031  0.00  0.00    -0.267 OA
ATOM      8  N1  <0> d           1.147   3.128   0.008  0.00  0.00    -0.318 N 
ATOM      9  C12 <0> d          -2.521   3.922   0.050  0.00  0.00     0.108 C 
ATOM     10  C13 <0> d          -3.667   3.033  -0.344  0.00  0.00     0.086 C 
ATOM     11  C14 <0> d          -3.546   1.684  -0.331  0.00  0.00     0.159 C 
ATOM     12  O2  <0> d          -2.402   1.077   0.029  0.00  0.00    -0.292 OA
ATOM     13  C15 <0> d          -4.911   3.623  -0.738  0.00  0.00     0.100 C 
ATOM     14  N5  <0> d          -5.898   4.091  -1.051  0.00  0.00    -0.191 NA
ENDROOT
BRANCH   9  15
ATOM     15  C16 <0> d          -2.761   4.459   1.437  0.00  0.00    -0.040 A 
ATOM     16  C21 <0> d          -2.880   3.586   2.503  0.00  0.00     0.030 A 
ATOM     17  C20 <0> d          -3.101   4.074   3.779  0.00  0.00     0.047 A 
ATOM     18  C19 <0> d          -3.204   5.440   3.990  0.00  0.00     0.118 A 
ATOM     19 Br1  <0> d          -3.262   2.877   5.234  0.00  0.00    -0.048 Br
ATOM     20  C18 <0> d          -3.084   6.318   2.917  0.00  0.00     0.103 A 
ATOM     21  C17 <0> d          -2.857   5.823   1.643  0.00  0.00     0.048 A 
BRANCH  18  22
ATOM     22  O3  <0> d          -3.420   5.921   5.243  0.00  0.00    -0.352 OA
ATOM     23  C22 <0> d          -2.267   6.216   6.034  0.00  0.00     0.210 C 
ENDBRANCH  18  22
BRANCH  20  24
ATOM     24  O4  <0> d          -3.184   7.659   3.119  0.00  0.00    -0.353 OA
ATOM     25  C23 <0> d          -3.052   8.500   1.971  0.00  0.00     0.210 C 
ENDBRANCH  20  24
ENDBRANCH   9  15
BRANCH  11  26
ATOM     26  N4  <0> d          -4.622   0.915  -0.698  0.00  0.00    -0.379 N 
ATOM     27  H13 <0> d          -5.454   1.339  -0.960  0.00  0.00     0.158 HD
ATOM     28  H14 <0> d          -4.551  -0.052  -0.694  0.00  0.00     0.158 HD
ENDBRANCH  11  26
BRANCH   8  29
ATOM     29  C7  <0> d           2.422   3.849  -0.001  0.00  0.00     0.138 C 
BRANCH  29  30
ATOM     30  C8  <0> d           2.851   4.107  -1.447  0.00  0.00     0.081 C 
BRANCH  30  31
ATOM     31  C9  <0> d           4.163   4.849  -1.457  0.00  0.00     0.052 A 
ATOM     32  N3  <0> d           4.418   6.007  -0.830  0.00  0.00    -0.247 NA
ATOM     33  C11 <0> d           5.655   6.355  -1.057  0.00  0.00     0.207 A 
ATOM     34  N2  <0> d           6.231   5.420  -1.843  0.00  0.00    -0.359 N 
ATOM     35  C10 <0> d           5.286   4.462  -2.091  0.00  0.00     0.116 A 
ATOM     36  H1  <0> d           7.173   5.426  -2.180  0.00  0.00     0.166 HD
ENDBRANCH  30  31
ENDBRANCH  29  30
ENDBRANCH   8  29
TORSDOF 7
