REMARK  3 active torsions:
REMARK  status: ('A' for Active; 'I' for Inactive)
REMARK    1  A    between atoms: C4_4  and  N2_20 
REMARK    2  A    between atoms: C5_5  and  S1_9 
REMARK    3  A    between atoms: S1_9  and  N1_12 
ROOT
ATOM      1  C1  <0> d          -3.401  -5.125  -7.384  0.00  0.00     0.049 C 
ATOM      2  C2  <0> d          -2.583  -4.558  -6.253  0.00  0.00    -0.054 A 
ATOM      3  C3  <0> d          -1.500  -3.745  -6.525  0.00  0.00     0.038 A 
ATOM      4  C4  <0> d          -0.746  -3.224  -5.482  0.00  0.00     0.049 A 
ATOM      5  C5  <0> d          -1.085  -3.521  -4.167  0.00  0.00     0.106 A 
ATOM      6  C6  <0> d          -2.172  -4.330  -3.902  0.00  0.00     0.035 A 
ATOM      7  C7  <0> d          -2.917  -4.853  -4.944  0.00  0.00    -0.054 A 
ATOM      8  C8  <0> d          -4.100  -5.740  -4.651  0.00  0.00     0.049 C 
ENDROOT
BRANCH   5   9
ATOM      9  S1  <0> d          -0.131  -2.862  -2.840  0.00  0.00     0.263 S 
ATOM     10  O1  <0> d           0.057  -1.482  -3.122  0.00  0.00    -0.200 OA
ATOM     11  O2  <0> d          -0.738  -3.318  -1.639  0.00  0.00    -0.200 OA
BRANCH   9  12
ATOM     12  N1  <0> d           1.364  -3.568  -2.913  0.00  0.00    -0.298 N 
ATOM     13  C13 <0> d           1.565  -4.947  -2.446  0.00  0.00     0.092 C 
ATOM     14  C12 <0> d           2.707  -4.960  -1.425  0.00  0.00     0.026 C 
ATOM     15  C14 <0> d           0.282  -5.457  -1.787  0.00  0.00     0.033 C 
ATOM     16  C11 <0> d           3.950  -4.321  -2.047  0.00  0.00     0.004 C 
ATOM     17  C10 <0> d           3.647  -2.866  -2.415  0.00  0.00     0.026 C 
ATOM     18  C9  <0> d           2.515  -2.831  -3.452  0.00  0.00     0.092 C 
ATOM     19  C15 <0> d           2.984  -3.490  -4.751  0.00  0.00     0.033 C 
ENDBRANCH   9  12
ENDBRANCH   5   9
BRANCH   4  20
ATOM     20  N2  <0> d           0.350  -2.401  -5.753  0.00  0.00    -0.398 N 
ATOM     21  H23 <0> d           0.946  -1.988  -4.926  0.00  0.00     0.156 HD
ATOM     22  H24 <0> d           0.616  -2.166  -6.794  0.00  0.00     0.156 HD
ENDBRANCH   4  20
TORSDOF 3
