REMARK  5 active torsions:
REMARK  status: ('A' for Active; 'I' for Inactive)
REMARK    1  A    between atoms: N1_8  and  C9_10 
REMARK    2  A    between atoms: C13_14  and  C15_16 
REMARK       I    between atoms: C15_16  and  N2_18 
REMARK    3  A    between atoms: N2_18  and  N3_19 
REMARK    4  A    between atoms: C16_20  and  C17_21 
REMARK    5  A    between atoms: C21_25  and  O2_27 
ROOT
ATOM      1  C9  <0> d          -7.248   5.074  -0.410  0.00  0.00     0.012 A 
ATOM      2  C10 <0> d          -7.228   3.697  -0.214  0.00  0.00     0.024 A 
ATOM      3  C11 <0> d          -6.028   3.040  -0.021  0.00  0.00     0.003 A 
ATOM      4  C12 <0> d          -4.841   3.743  -0.028  0.00  0.00     0.017 A 
ATOM      5  C13 <0> d          -4.850   5.126  -0.218  0.00  0.00     0.035 A 
ATOM      6  C14 <0> d          -6.062   5.791  -0.412  0.00  0.00     0.040 A 
ENDROOT
BRANCH   5   7
ATOM      7  C15 <0> d          -3.581   5.883  -0.219  0.00  0.00     0.271 C 
ATOM      8  O1  <0> d          -3.591   7.087  -0.390  0.00  0.00    -0.266 OA
ATOM      9  N2  <0> d          -2.412   5.239  -0.031  0.00  0.00    -0.243 N 
ATOM     10  H13 <0> d          -2.403   4.150   0.123  0.00  0.00     0.192 HD
BRANCH   9  11
ATOM     11  N3  <0> d          -1.209   5.957  -0.032  0.00  0.00    -0.183 NA
ATOM     12  C16 <0> d          -0.076   5.325   0.022  0.00  0.00     0.150 C 
BRANCH  12  13
ATOM     13  C17 <0> d           0.018   3.938  -0.470  0.00  0.00    -0.014 A 
ATOM     14  C22 <0> d           1.125   3.152  -0.143  0.00  0.00     0.049 A 
ATOM     15  C21 <0> d           1.207   1.851  -0.610  0.00  0.00     0.066 A 
ATOM     16  C20 <0> d           0.191   1.331  -1.400  0.00  0.00     0.036 A 
ATOM     17  C19 <0> d          -0.903   2.110  -1.730  0.00  0.00     0.004 A 
ATOM     18  C18 <0> d          -0.999   3.405  -1.267  0.00  0.00     0.013 A 
BRANCH  15  19
ATOM     19  O2  <0> d           2.282   1.083  -0.294  0.00  0.00    -0.361 OA
ATOM     20  H19 <0> d           3.087   1.495   0.333  0.00  0.00     0.217 HD
ENDBRANCH  15  19
ENDBRANCH  12  13
ENDBRANCH   9  11
ENDBRANCH   5   7
BRANCH   1  21
ATOM     21  N1  <0> d          -8.464   5.734  -0.604  0.00  0.00    -0.275 NA
ATOM     22  C7  <0> d          -8.269   6.997  -1.368  0.00  0.00     0.135 C 
ATOM     23  C5  <0> d          -9.606   7.231  -2.041  0.00  0.00    -0.037 A 
ATOM     24  C4  <0> d         -10.256   6.010  -2.129  0.00  0.00    -0.037 A 
ATOM     25  C6  <0> d         -10.210   8.371  -2.531  0.00  0.00     0.009 A 
ATOM     26  C3  <0> d         -11.507   5.933  -2.705  0.00  0.00     0.009 A 
ATOM     27  C8  <0> d          -9.353   4.960  -1.514  0.00  0.00     0.135 C 
ATOM     28  C2  <0> d         -12.112   7.076  -3.196  0.00  0.00     0.001 A 
ATOM     29  C1  <0> d         -11.464   8.294  -3.109  0.00  0.00     0.001 A 
ENDBRANCH   1  21
TORSDOF 5
