REMARK  3 active torsions:
REMARK  status: ('A' for Active; 'I' for Inactive)
REMARK    1  A    between atoms: C4_4  and  N1_11 
REMARK    2  A    between atoms: C5_5  and  O1_9 
REMARK       I    between atoms: N1_11  and  C9_12 
REMARK    3  A    between atoms: C9_12  and  C10_14 
ROOT
ATOM      1  C10 <0> d          -0.199  -2.845  -4.889  0.00  0.00     0.168 A 
ATOM      2  C11 <0> d          -0.946  -2.034  -5.923  0.00  0.00     0.016 A 
ATOM      3  C12 <0> d          -0.239  -1.716  -7.025  0.00  0.00     0.048 A 
ATOM      4  C13 <0> d           1.152  -2.186  -7.095  0.00  0.00     0.029 A 
ATOM      5  C14 <0> d           1.935  -1.883  -8.222  0.00  0.00     0.009 A 
ATOM      6  C15 <0> d           3.266  -2.319  -8.316  0.00  0.00     0.015 A 
ATOM      7  C16 <0> d           4.004  -2.012  -9.420  0.00  0.00     0.001 A 
ATOM      8  C17 <0> d           3.453  -1.269 -10.459  0.00  0.00     0.002 A 
ATOM      9  C18 <0> d           2.164  -0.829 -10.400  0.00  0.00     0.030 A 
ATOM     10  C19 <0> d           1.371  -1.125  -9.279  0.00  0.00     0.046 A 
ATOM     11  N2  <0> d           0.104  -0.695  -9.221  0.00  0.00    -0.322 N 
ATOM     12  C20 <0> d          -0.707  -0.927  -8.209  0.00  0.00     0.257 A 
ATOM     13  O3  <0> d          -1.850  -0.496  -8.237  0.00  0.00    -0.267 OA
ATOM     14  S1  <0> d           1.446  -3.031  -5.683  0.00  0.00    -0.110 SA
ATOM     15  H16 <0> d          -0.237  -0.180  -9.970  0.00  0.00     0.169 HD
ENDROOT
BRANCH   1  16
ATOM     16  C9  <0> d          -0.089  -2.093  -3.588  0.00  0.00     0.240 C 
ATOM     17  N1  <0> d           0.028  -2.768  -2.427  0.00  0.00    -0.323 N 
ATOM     18  H10 <0> d           0.123  -3.733  -2.434  0.00  0.00     0.169 HD
ATOM     19  O2  <0> d          -0.106  -0.880  -3.585  0.00  0.00    -0.272 OA
BRANCH  17  20
ATOM     20  C4  <0> d           0.014  -2.075  -1.209  0.00  0.00     0.069 A 
ATOM     21  C3  <0> d          -0.610  -0.839  -1.119  0.00  0.00     0.041 A 
ATOM     22  C2  <0> d          -0.624  -0.157   0.083  0.00  0.00    -0.038 A 
ATOM     23  C1  <0> d          -1.301   1.185   0.178  0.00  0.00     0.050 C 
ATOM     24  C7  <0> d          -0.012  -0.702   1.198  0.00  0.00     0.042 A 
ATOM     25  C6  <0> d           0.608  -1.937   1.117  0.00  0.00     0.063 A 
ATOM     26 Cl1  <0> d          -0.026   0.163   2.703  0.00  0.00    -0.084 Cl
ATOM     27  C5  <0> d           0.626  -2.626  -0.085  0.00  0.00     0.096 A 
BRANCH  27  28
ATOM     28  O1  <0> d           1.238  -3.837  -0.167  0.00  0.00    -0.354 OA
ATOM     29  C8  <0> d           1.844  -4.339   1.026  0.00  0.00     0.210 C 
ENDBRANCH  27  28
ENDBRANCH  17  20
ENDBRANCH   1  16
TORSDOF 3
