REMARK  5 active torsions:
REMARK  status: ('A' for Active; 'I' for Inactive)
REMARK    1  A    between atoms: S1_2  and  N1_3 
REMARK       I    between atoms: N1_3  and  C2_4 
REMARK    2  A    between atoms: N1_3  and  S2_20 
REMARK    3  A    between atoms: C2_4  and  C3_6 
REMARK    4  A    between atoms: S2_20  and  O4_23 
REMARK    5  A    between atoms: O4_23  and  C14_24 
ROOT
ATOM      1  C3  <0> d           2.912  -0.345  -0.116  0.00  0.00     0.296 A 
ATOM      2  C4  <0> d           2.501  -1.407   0.923  0.00  0.00     0.118 A 
ATOM      3  C5  <0> d           3.783  -2.152   1.215  0.00  0.00     0.148 A 
ATOM      4  C6  <0> d           4.753  -1.649   0.494  0.00  0.00     0.242 A 
ATOM      5  N2  <0> d           6.105  -2.056   0.520  0.00  0.00    -0.334 N 
ATOM      6  C7  <0> d           7.038  -1.016   0.370  0.00  0.00     0.041 A 
ATOM      7  C8  <0> d           8.394  -1.282   0.494  0.00  0.00     0.030 A 
ATOM      8  C9  <0> d           9.311  -0.262   0.336  0.00  0.00     0.002 A 
ATOM      9  C10 <0> d           8.873   1.020   0.055  0.00  0.00     0.001 A 
ATOM     10  C11 <0> d           7.523   1.285  -0.065  0.00  0.00     0.011 A 
ATOM     11  C12 <0> d           6.594   0.270   0.097  0.00  0.00    -0.005 A 
ATOM     12  C13 <0> d           5.128   0.597  -0.013  0.00  0.00     0.285 C 
ATOM     13  N3  <0> d           4.345  -0.595  -0.340  0.00  0.00    -0.006 N 
ATOM     14  F1  <0> d           3.909  -3.179   2.085  0.00  0.00    -0.207 F 
ATOM     15  H18 <0> d           6.370  -2.983   0.633  0.00  0.00     0.167 HD
ATOM     16  H19 <0> d           4.500  -0.845  -1.305  0.00  0.00     0.290 HD
ENDROOT
BRANCH   1  17
ATOM     17  C2  <0> d           2.138  -0.531  -1.395  0.00  0.00     0.277 C 
ATOM     18  N1  <0> d           0.797  -0.386  -1.399  0.00  0.00    -0.156 N 
ATOM     19  O1  <0> d           2.720  -0.811  -2.422  0.00  0.00    -0.269 OA
BRANCH  18  20
ATOM     20  S1  <0> d           0.002  -0.004   0.002  0.00  0.00    -0.036 SA
ATOM     21  C1  <0> d          -0.022   1.810   0.012  0.00  0.00     0.116 C 
ENDBRANCH  18  20
BRANCH  18  22
ATOM     22  S2  <0> d          -0.053  -0.590  -2.805  0.00  0.00     0.381 S 
ATOM     23  O2  <0> d           0.740  -1.420  -3.643  0.00  0.00    -0.174 OA
ATOM     24  O3  <0> d          -1.381  -0.933  -2.430  0.00  0.00    -0.174 OA
BRANCH  22  25
ATOM     25  O4  <0> d          -0.131   0.769  -3.486  0.00  0.00    -0.216 OA
BRANCH  25  26
ATOM     26  C14 <0> d           1.030   1.159  -4.076  0.00  0.00     0.091 A 
ATOM     27  C19 <0> d           1.282   0.827  -5.399  0.00  0.00     0.038 A 
ATOM     28  C18 <0> d           2.460   1.229  -5.998  0.00  0.00     0.003 A 
ATOM     29  C17 <0> d           3.392   1.951  -5.277  0.00  0.00     0.000 A 
ATOM     30  C16 <0> d           3.146   2.278  -3.956  0.00  0.00     0.003 A 
ATOM     31  C15 <0> d           1.967   1.884  -3.354  0.00  0.00     0.038 A 
ENDBRANCH  25  26
ENDBRANCH  22  25
ENDBRANCH  18  22
ENDBRANCH   1  17
TORSDOF 5
