REMARK  4 active torsions:
REMARK  status: ('A' for Active; 'I' for Inactive)
REMARK    1  A    between atoms: C6_7  and  S1_11 
REMARK    2  A    between atoms: S1_11  and  C9_12 
REMARK    3  A    between atoms: C9_12  and  C10_13 
REMARK       I    between atoms: C10_13  and  N3_15 
REMARK    4  A    between atoms: N3_15  and  C11_16 
ROOT
ATOM      1  S1  <0> d           1.567  -5.223   2.043  0.00  0.00    -0.114 SA
ENDROOT
BRANCH   1   2
ATOM      2  C6  <0> d           0.067  -4.319   1.569  0.00  0.00     0.247 A 
ATOM      3  N1  <0> d           0.050  -4.096   0.118  0.00  0.00    -0.359 N 
ATOM      4  C5  <0> d           0.035  -2.809  -0.079  0.00  0.00     0.057 A 
ATOM      5  H20 <0> d           0.050  -4.782  -0.568  0.00  0.00     0.162 HD
ATOM      6  C4  <0> d           0.015  -1.985  -1.295  0.00  0.00     0.032 A 
ATOM      7  C7  <0> d           0.042  -2.109   1.234  0.00  0.00     0.057 A 
ATOM      8  C3  <0> d           0.002  -0.641  -1.188  0.00  0.00     0.009 A 
ATOM      9  C2  <0> d           0.007   0.020   0.052  0.00  0.00    -0.060 A 
ATOM     10  C1  <0> d          -0.008   1.527   0.069  0.00  0.00     0.048 C 
ATOM     11  C8  <0> d           0.032  -0.640   1.228  0.00  0.00     0.038 A 
ATOM     12  N2  <0> d           0.060  -2.990   2.193  0.00  0.00    -0.359 N 
ATOM     13  H21 <0> d           0.068  -2.802   3.144  0.00  0.00     0.162 HD
ENDBRANCH   1   2
BRANCH   1  14
ATOM     14  C9  <0> d           2.920  -4.158   1.471  0.00  0.00     0.180 C 
BRANCH  14  15
ATOM     15  C10 <0> d           4.241  -4.801   1.806  0.00  0.00     0.231 C 
ATOM     16  O1  <0> d           4.267  -5.871   2.376  0.00  0.00    -0.272 OA
ATOM     17  N3  <0> d           5.393  -4.186   1.474  0.00  0.00    -0.326 N 
ATOM     18  H10 <0> d           5.374  -3.370   0.949  0.00  0.00     0.169 HD
BRANCH  17  19
ATOM     19  C11 <0> d           6.617  -4.723   1.886  0.00  0.00     0.041 A 
ATOM     20  C16 <0> d           7.774  -4.451   1.167  0.00  0.00    -0.029 A 
ATOM     21  C15 <0> d           8.982  -4.978   1.581  0.00  0.00    -0.054 A 
ATOM     22  C17 <0> d           7.712  -3.577  -0.058  0.00  0.00     0.051 C 
ATOM     23  C14 <0> d           9.039  -5.785   2.702  0.00  0.00     0.007 A 
ATOM     24  C18 <0> d          10.239  -4.677   0.806  0.00  0.00     0.049 C 
ATOM     25  C13 <0> d           7.887  -6.063   3.416  0.00  0.00     0.003 A 
ATOM     26  C12 <0> d           6.678  -5.534   3.012  0.00  0.00     0.030 A 
ENDBRANCH  17  19
ENDBRANCH  14  15
ENDBRANCH   1  14
TORSDOF 4
