REMARK  8 active torsions:
REMARK  status: ('A' for Active; 'I' for Inactive)
REMARK    1  A    between atoms: C7_9  and  S2_17 
REMARK    2  A    between atoms: C8_10  and  S1_13 
REMARK    3  A    between atoms: S1_13  and  C10_14 
REMARK    4  A    between atoms: C10_14  and  C11_15 
REMARK    5  A    between atoms: C11_15  and  O3_16 
REMARK    6  A    between atoms: S2_17  and  C12_18 
REMARK    7  A    between atoms: C12_18  and  C13_19 
REMARK    8  A    between atoms: C13_19  and  O4_20 
ROOT
ATOM      1  C1  <0> d           0.445   4.334   0.362  0.00  0.00     0.020 A 
ATOM      2  C2  <0> d           1.579   3.543   0.218  0.00  0.00     0.019 A 
ATOM      3  C3  <0> d           1.406   2.167   0.110  0.00  0.00     0.048 A 
ATOM      4  C4  <0> d           0.108   1.631   0.148  0.00  0.00     0.122 A 
ATOM      5  N1  <0> d          -0.937   2.426   0.292  0.00  0.00    -0.256 NA
ATOM      6  C5  <0> d          -0.802   3.735   0.392  0.00  0.00     0.117 A 
ATOM      7  C6  <0> d          -0.062   0.159   0.031  0.00  0.00     0.219 C 
ATOM      8  O1  <0> d          -1.128  -0.359   0.303  0.00  0.00    -0.284 OA
ATOM      9  C7  <0> d           1.072  -0.664  -0.417  0.00  0.00     0.074 C 
ATOM     10  C8  <0> d           2.332  -0.141  -0.454  0.00  0.00     0.072 C 
ATOM     11  C9  <0> d           2.564   1.257  -0.045  0.00  0.00     0.202 C 
ATOM     12  O2  <0> d           3.692   1.657   0.163  0.00  0.00    -0.286 OA
ENDROOT
BRANCH   9  13
ATOM     13  S2  <0> d           0.802  -2.335  -0.909  0.00  0.00    -0.122 SA
BRANCH  13  14
ATOM     14  C12 <0> d          -0.223  -2.194  -2.399  0.00  0.00     0.105 C 
BRANCH  14  15
ATOM     15  C13 <0> d          -0.636  -3.591  -2.868  0.00  0.00     0.174 C 
BRANCH  15  16
ATOM     16  O4  <0> d          -1.347  -3.487  -4.103  0.00  0.00    -0.400 OA
ATOM     17  H13 <0> d          -1.706  -4.327  -4.422  0.00  0.00     0.209 HD
ENDBRANCH  15  16
ENDBRANCH  14  15
ENDBRANCH  13  14
ENDBRANCH   9  13
BRANCH  10  18
ATOM     18  S1  <0> d           3.682  -1.136  -0.992  0.00  0.00    -0.122 SA
BRANCH  18  19
ATOM     19  C10 <0> d           4.135  -0.258  -2.509  0.00  0.00     0.105 C 
BRANCH  19  20
ATOM     20  C11 <0> d           5.237  -1.031  -3.236  0.00  0.00     0.174 C 
BRANCH  20  21
ATOM     21  O3  <0> d           5.514  -0.401  -4.488  0.00  0.00    -0.400 OA
ATOM     22  H8  <0> d           6.149  -0.880  -5.038  0.00  0.00     0.209 HD
ENDBRANCH  20  21
ENDBRANCH  19  20
ENDBRANCH  18  19
ENDBRANCH  10  18
TORSDOF 8
