REMARK  7 active torsions:
REMARK  status: ('A' for Active; 'I' for Inactive)
REMARK    1  A    between atoms: C7_9  and  C8_11 
REMARK    2  A    between atoms: C8_11  and  N3_12 
REMARK    3  A    between atoms: N3_12  and  C10_14 
REMARK    4  A    between atoms: C10_14  and  C11_15 
REMARK    5  A    between atoms: C11_15  and  C12_16 
REMARK    6  A    between atoms: C11_15  and  O2_19 
REMARK    7  A    between atoms: C12_16  and  O1_17 
ROOT
ATOM      1  C1  <0> d           0.338   2.061   1.105  0.00  0.00     0.050 C 
ATOM      2  C2  <0> d           0.432   0.569   0.916  0.00  0.00    -0.033 A 
ATOM      3  C3  <0> d           0.593   0.050  -0.309  0.00  0.00    -0.012 A 
ATOM      4  S1  <0> d           0.647  -1.708  -0.016  0.00  0.00    -0.074 SA
ATOM      5  C4  <0> d           0.451  -1.701   1.746  0.00  0.00     0.114 A 
ATOM      6  C5  <0> d           0.355  -0.323   2.060  0.00  0.00     0.047 A 
ATOM      7  C6  <0> d           0.194  -0.024   3.433  0.00  0.00     0.141 A 
ATOM      8  N1  <0> d           0.149  -1.009   4.307  0.00  0.00    -0.219 NA
ATOM      9  C7  <0> d           0.250  -2.276   3.948  0.00  0.00     0.154 A 
ATOM     10  N2  <0> d           0.391  -2.623   2.683  0.00  0.00    -0.224 NA
ATOM     11 Cl1  <0> d           0.057   1.624   3.961  0.00  0.00    -0.061 Cl
ATOM     12  C14 <0> d           0.703   0.779  -1.624  0.00  0.00     0.057 C 
ENDROOT
BRANCH   9  13
ATOM     13  C8  <0> d           0.191  -3.349   5.005  0.00  0.00     0.314 C 
BRANCH  13  14
ATOM     14  N3  <0> d          -1.204  -3.766   5.202  0.00  0.00    -0.066 N 
ATOM     15  C9  <0> d          -1.978  -2.642   5.745  0.00  0.00     0.270 C 
ATOM     16  H21 <0> d          -1.598  -4.050   4.318  0.00  0.00     0.280 HD
BRANCH  14  17
ATOM     17  C10 <0> d          -1.250  -4.893   6.143  0.00  0.00     0.268 C 
BRANCH  17  18
ATOM     18  C11 <0> d          -0.565  -6.109   5.516  0.00  0.00     0.167 C 
BRANCH  18  19
ATOM     19  C12 <0> d          -0.611  -7.282   6.497  0.00  0.00     0.200 C 
BRANCH  19  20
ATOM     20  O1  <0> d           0.129  -8.381   5.960  0.00  0.00    -0.393 OA
ATOM     21  C13 <0> d           0.149  -9.535   6.803  0.00  0.00     0.201 C 
ENDBRANCH  19  20
ENDBRANCH  18  19
BRANCH  18  22
ATOM     22  O2  <0> d          -1.243  -6.469   4.311  0.00  0.00    -0.392 OA
ATOM     23  H17 <0> d          -2.174  -6.699   4.437  0.00  0.00     0.210 HD
ENDBRANCH  18  22
ENDBRANCH  17  18
ENDBRANCH  14  17
ENDBRANCH  13  14
ENDBRANCH   9  13
TORSDOF 7
