REMARK  6 active torsions:
REMARK  status: ('A' for Active; 'I' for Inactive)
REMARK    1  A    between atoms: C2_2  and  C3_3 
REMARK    2  A    between atoms: C7_7  and  C14_20 
REMARK    3  A    between atoms: C8_8  and  N1_9 
REMARK    4  A    between atoms: N1_9  and  S1_10 
REMARK    5  A    between atoms: S1_10  and  C9_13 
REMARK    6  A    between atoms: C13_18  and  N3_19 
ROOT
ATOM      1  S1  <0> d           3.364   1.645  -2.024  0.00  0.00     0.267 S 
ATOM      2  O1  <0> d           4.407   2.140  -1.195  0.00  0.00    -0.200 OA
ATOM      3  O2  <0> d           3.599   0.710  -3.067  0.00  0.00    -0.200 OA
ENDROOT
BRANCH   1   4
ATOM      4  N1  <0> d           2.245   0.956  -1.015  0.00  0.00    -0.279 N 
ATOM      5  H20 <0> d           2.378   0.980  -0.054  0.00  0.00     0.179 HD
BRANCH   4   6
ATOM      6  C8  <0> d           1.110   0.340  -1.548  0.00  0.00     0.055 A 
ATOM      7  C3  <0> d          -0.151   0.860  -1.286  0.00  0.00    -0.031 A 
ATOM      8  C4  <0> d          -1.271   0.252  -1.819  0.00  0.00     0.009 A 
ATOM      9  C5  <0> d          -1.137  -0.877  -2.606  0.00  0.00     0.001 A 
ATOM     10  C6  <0> d           0.116  -1.401  -2.864  0.00  0.00     0.009 A 
ATOM     11  C7  <0> d           1.240  -0.797  -2.335  0.00  0.00    -0.031 A 
BRANCH   7  12
ATOM     12  C2  <0> d          -0.297   2.090  -0.428  0.00  0.00     0.036 C 
ATOM     13  C1  <0> d          -0.738   3.269  -1.298  0.00  0.00     0.010 C 
ENDBRANCH   7  12
BRANCH  11  14
ATOM     14  C14 <0> d           2.606  -1.368  -2.616  0.00  0.00     0.036 C 
ATOM     15  C15 <0> d           2.579  -2.883  -2.402  0.00  0.00     0.010 C 
ENDBRANCH  11  14
ENDBRANCH   4   6
ENDBRANCH   1   4
BRANCH   1  16
ATOM     16  C9  <0> d           2.601   3.048  -2.767  0.00  0.00     0.123 A 
ATOM     17  C13 <0> d           1.541   2.887  -3.654  0.00  0.00     0.122 A 
ATOM     18  N2  <0> d           0.962   3.941  -4.209  0.00  0.00    -0.351 N 
ATOM     19  C12 <0> d           1.370   5.169  -3.955  0.00  0.00     0.090 A 
ATOM     20  H19 <0> d           0.222   3.805  -4.821  0.00  0.00     0.166 HD
ATOM     21  C11 <0> d           2.420   5.401  -3.090  0.00  0.00     0.019 A 
ATOM     22  C10 <0> d           3.051   4.324  -2.481  0.00  0.00     0.030 A 
BRANCH  17  23
ATOM     23  N3  <0> d           1.082   1.610  -3.954  0.00  0.00    -0.384 N 
ATOM     24  H12 <0> d           1.522   0.834  -3.573  0.00  0.00     0.157 HD
ATOM     25  H13 <0> d           0.323   1.494  -4.546  0.00  0.00     0.157 HD
ENDBRANCH  17  23
ENDBRANCH   1  16
TORSDOF 6
