REMARK  4 active torsions:
REMARK  status: ('A' for Active; 'I' for Inactive)
REMARK    1  A    between atoms: C2_2  and  N1_3 
REMARK    2  A    between atoms: N1_3  and  C3_4 
REMARK    3  A    between atoms: C5_6  and  C8_11 
REMARK       I    between atoms: C8_11  and  N3_13 
REMARK    4  A    between atoms: N3_13  and  C10_15 
ROOT
ATOM      1  C8  <0> d           0.339  -5.147  -0.222  0.00  0.00     0.254 C 
ATOM      2  O1  <0> d           1.492  -4.775  -0.312  0.00  0.00    -0.267 OA
ATOM      3  N3  <0> d           0.067  -6.433   0.080  0.00  0.00    -0.346 N 
ATOM      4  C9  <0> d          -1.319  -6.907   0.085  0.00  0.00     0.153 C 
ENDROOT
BRANCH   1   5
ATOM      5  C5  <0> d          -0.769  -4.189  -0.444  0.00  0.00     0.038 A 
ATOM      6  C4  <0> d          -0.675  -2.870   0.003  0.00  0.00     0.067 A 
ATOM      7  C3  <0> d          -1.739  -2.004  -0.227  0.00  0.00     0.126 A 
ATOM      8  N2  <0> d          -2.827  -2.421  -0.854  0.00  0.00    -0.220 NA
ATOM      9  C7  <0> d          -2.948  -3.659  -1.294  0.00  0.00     0.129 A 
ATOM     10  C6  <0> d          -1.937  -4.582  -1.107  0.00  0.00     0.061 A 
ATOM     11 Cl1  <0> d          -4.401  -4.136  -2.116  0.00  0.00    -0.062 Cl
BRANCH   7  12
ATOM     12  N1  <0> d          -1.660  -0.687   0.212  0.00  0.00    -0.375 N 
ATOM     13  H7  <0> d          -2.400  -0.079   0.058  0.00  0.00     0.161 HD
BRANCH  12  14
ATOM     14  C2  <0> d          -0.459  -0.217   0.907  0.00  0.00     0.116 C 
ATOM     15  C1  <0> d          -0.629   1.257   1.280  0.00  0.00     0.026 C 
ENDBRANCH  12  14
ENDBRANCH   7  12
ENDBRANCH   1   5
BRANCH   3  16
ATOM     16  C10 <0> d           1.158  -7.356   0.402  0.00  0.00     0.113 C 
ATOM     17  C14 <0> d           0.961  -7.907   1.816  0.00  0.00     0.259 C 
ATOM     18  N4  <0> d           2.051  -8.834   2.140  0.00  0.00    -0.073 N 
ATOM     19  C13 <0> d           2.014  -9.986   1.230  0.00  0.00     0.234 C 
ATOM     20  C15 <0> d           1.899  -9.301   3.525  0.00  0.00     0.269 C 
ATOM     21  H24 <0> d           2.935  -8.358   2.043  0.00  0.00     0.279 HD
ATOM     22  C12 <0> d           2.253  -9.514  -0.205  0.00  0.00     0.030 C 
ATOM     23  C11 <0> d           1.159  -8.516  -0.598  0.00  0.00     0.029 C 
ENDBRANCH   3  16
TORSDOF 4
