REMARK  4 active torsions:
REMARK  status: ('A' for Active; 'I' for Inactive)
REMARK    1  A    between atoms: C4_6  and  C5_7 
REMARK    2  A    between atoms: C5_7  and  C6_8 
REMARK    3  A    between atoms: C6_8  and  N3_9 
REMARK       I    between atoms: N3_9  and  C7_10 
REMARK    4  A    between atoms: C7_10  and  C8_12 
ROOT
ATOM      1  N3  <0> d           1.477   0.145   4.428  0.00  0.00    -0.356 N 
ATOM      2  C7  <0> d           2.645   0.268   5.090  0.00  0.00     0.253 C 
ATOM      3  O1  <0> d           3.692   0.012   4.529  0.00  0.00    -0.268 OA
ATOM      4  H10 <0> d           0.642   0.350   4.875  0.00  0.00     0.162 HD
ENDROOT
BRANCH   1   5
ATOM      5  C6  <0> d           1.471  -0.299   3.032  0.00  0.00     0.130 C 
BRANCH   5   6
ATOM      6  C5  <0> d           0.030  -0.354   2.521  0.00  0.00     0.096 C 
BRANCH   6   7
ATOM      7  C4  <0> d           0.023  -0.811   1.085  0.00  0.00     0.084 A 
ATOM      8  N1  <0> d           0.002  -0.004   0.002  0.00  0.00    -0.350 N 
ATOM      9  C1  <0> d          -0.018   1.461   0.010  0.00  0.00     0.156 C 
ATOM     10  C2  <0> d           0.009  -0.810  -1.104  0.00  0.00     0.108 A 
ATOM     11  C3  <0> d           0.029  -2.081  -0.660  0.00  0.00     0.106 A 
ATOM     12  N2  <0> d           0.034  -2.052   0.681  0.00  0.00    -0.354 N 
ATOM     13  H14 <0> d           0.048  -2.831   1.260  0.00  0.00     0.166 HD
ENDBRANCH   6   7
ENDBRANCH   5   6
ENDBRANCH   1   5
BRANCH   2  14
ATOM     14  C8  <0> d           2.651   0.716   6.499  0.00  0.00     0.052 A 
ATOM     15  C13 <0> d           3.859   0.846   7.188  0.00  0.00     0.026 A 
ATOM     16  C12 <0> d           3.859   1.270   8.502  0.00  0.00     0.023 A 
ATOM     17 Br1  <0> d           5.492   0.448   6.321  0.00  0.00    -0.050 Br
ATOM     18  C11 <0> d           2.666   1.555   9.140  0.00  0.00     0.043 A 
ATOM     19  C10 <0> d           1.463   1.424   8.464  0.00  0.00     0.117 A 
ATOM     20  C9  <0> d           1.450   1.006   7.147  0.00  0.00     0.060 A 
ATOM     21  F1  <0> d           0.301   1.706   9.094  0.00  0.00    -0.206 F 
ENDBRANCH   2  14
TORSDOF 4
