REMARK  5 active torsions:
REMARK  status: ('A' for Active; 'I' for Inactive)
REMARK    1  A    between atoms: N2_6  and  O1_7 
REMARK    2  A    between atoms: O1_7  and  C5_8 
REMARK    3  A    between atoms: C5_8  and  C6_9 
REMARK       I    between atoms: C6_9  and  N3_11 
REMARK    4  A    between atoms: N3_11  and  C7_12 
REMARK    5  A    between atoms: C7_12  and  C8_13 
ROOT
ATOM      1  C1  <0> d          -2.336  -0.036  -1.625  0.00  0.00     0.163 C 
ATOM      2  N1  <0> d          -2.236   1.388  -1.295  0.00  0.00    -0.289 N 
ATOM      3  C2  <0> d          -1.196   1.838  -0.524  0.00  0.00     0.129 A 
ATOM      4  C3  <0> d          -1.124   3.197  -0.224  0.00  0.00     0.105 A 
ATOM      5  C4  <0> d          -0.002   3.674   0.605  0.00  0.00     0.075 C 
ATOM      6  N2  <0> d           0.011   4.883   1.120  0.00  0.00    -0.265 N 
ATOM      7  C12 <0> d           1.107   2.725   0.828  0.00  0.00     0.049 C 
ATOM      8  C13 <0> d           0.927   1.438   0.492  0.00  0.00     0.092 C 
ATOM      9  N4  <0> d          -0.252   0.988  -0.040  0.00  0.00    -0.351 N 
ATOM     10  H2  <0> d          -0.424  -0.098  -0.067  0.00  0.00     0.166 HD
ATOM     11  C14 <0> d          -2.116   4.073  -0.722  0.00  0.00     0.267 A 
ATOM     12  O4  <0> d          -2.072   5.265  -0.474  0.00  0.00    -0.267 OA
ATOM     13  N5  <0> d          -3.112   3.564  -1.479  0.00  0.00    -0.270 N 
ATOM     14  C15 <0> d          -3.163   2.249  -1.754  0.00  0.00     0.332 A 
ATOM     15  O5  <0> d          -4.073   1.825  -2.440  0.00  0.00    -0.246 OA
ATOM     16  C16 <0> d          -4.150   4.454  -2.004  0.00  0.00     0.164 C 
ATOM     17  H22 <0> d           0.966   5.353   1.398  0.00  0.00     0.194 HD
ENDROOT
BRANCH   6  18
ATOM     18  O1  <0> d          -1.206   5.582   1.316  0.00  0.00    -0.271 OA
BRANCH  18  19
ATOM     19  C5  <0> d          -1.043   6.883   1.882  0.00  0.00     0.303 C 
BRANCH  19  20
ATOM     20  C6  <0> d          -2.394   7.532   2.046  0.00  0.00     0.243 C 
ATOM     21  O2  <0> d          -3.396   6.938   1.710  0.00  0.00    -0.271 OA
ATOM     22  N3  <0> d          -2.487   8.772   2.565  0.00  0.00    -0.357 N 
ATOM     23  H8  <0> d          -1.578   9.311   2.869  0.00  0.00     0.162 HD
BRANCH  22  24
ATOM     24  C7  <0> d          -3.800   9.403   2.724  0.00  0.00     0.154 C 
BRANCH  24  25
ATOM     25  C8  <0> d          -3.626  10.796   3.331  0.00  0.00     0.139 C 
ATOM     26  O3  <0> d          -3.006  11.686   2.377  0.00  0.00    -0.384 OA
ATOM     27  C11 <0> d          -3.336  13.018   2.828  0.00  0.00     0.168 C 
ATOM     28  C10 <0> d          -4.809  12.926   3.285  0.00  0.00     0.029 C 
ATOM     29  C9  <0> d          -5.004  11.431   3.624  0.00  0.00     0.035 C 
ENDBRANCH  24  25
ENDBRANCH  22  24
ENDBRANCH  19  20
ENDBRANCH  18  19
ENDBRANCH   6  18
TORSDOF 5
