REMARK  4 active torsions:
REMARK  status: ('A' for Active; 'I' for Inactive)
REMARK       I    between atoms: C2_2  and  N1_4 
REMARK    1  A    between atoms: C9_11  and  C11_13 
REMARK       I    between atoms: C11_13  and  N2_15 
REMARK    2  A    between atoms: N2_15  and  C12_16 
REMARK    3  A    between atoms: C15_19  and  C18_22 
REMARK    4  A    between atoms: C18_22  and  C19_24 
ROOT
ATOM      1  C11 <0> d          -6.525   1.030   0.072  0.00  0.00     0.256 C 
ATOM      2  O2  <0> d          -7.391   0.176   0.053  0.00  0.00    -0.267 OA
ATOM      3  N2  <0> d          -6.866   2.334   0.094  0.00  0.00    -0.323 N 
ATOM      4  H11 <0> d          -6.179   3.014   0.173  0.00  0.00     0.169 HD
ENDROOT
BRANCH   3   5
ATOM      5  C12 <0> d          -8.205   2.706   0.001  0.00  0.00     0.035 A 
ATOM      6  C17 <0> d          -9.188   1.916   0.592  0.00  0.00     0.030 A 
ATOM      7  C16 <0> d         -10.511   2.283   0.507  0.00  0.00     0.018 A 
ATOM      8  C15 <0> d         -10.870   3.444  -0.184  0.00  0.00     0.018 A 
ATOM      9  C14 <0> d          -9.881   4.232  -0.782  0.00  0.00     0.018 A 
ATOM     10  C13 <0> d          -8.559   3.863  -0.688  0.00  0.00     0.030 A 
BRANCH   8  11
ATOM     11  C18 <0> d         -12.288   3.838  -0.282  0.00  0.00     0.228 C 
ATOM     12  O3  <0> d         -12.609   4.793  -0.965  0.00  0.00    -0.283 OA
BRANCH  11  13
ATOM     13  C19 <0> d         -13.316   3.075   0.446  0.00  0.00     0.180 A 
ATOM     14  N4  <0> d         -14.644   3.390   0.521  0.00  0.00    -0.342 N 
ATOM     15  C21 <0> d         -15.238   2.438   1.279  0.00  0.00     0.111 A 
ATOM     16  C22 <0> d         -15.303   4.540  -0.104  0.00  0.00     0.157 C 
ATOM     17  C20 <0> d         -14.269   1.567   1.659  0.00  0.00     0.136 A 
ATOM     18  N3  <0> d         -13.113   1.975   1.142  0.00  0.00    -0.238 NA
ENDBRANCH  11  13
ENDBRANCH   8  11
ENDBRANCH   3   5
BRANCH   1  19
ATOM     19  C9  <0> d          -5.103   0.639   0.072  0.00  0.00     0.033 A 
ATOM     20  C8  <0> d          -4.104   1.617   0.094  0.00  0.00     0.019 A 
ATOM     21  C7  <0> d          -2.780   1.249   0.094  0.00  0.00     0.031 A 
ATOM     22  C6  <0> d          -2.419  -0.102   0.072  0.00  0.00     0.043 A 
ATOM     23  N1  <0> d          -1.147  -0.673   0.068  0.00  0.00    -0.318 N 
ATOM     24  C5  <0> d          -3.414  -1.071   0.047  0.00  0.00    -0.029 A 
ATOM     25  C2  <0> d           0.009   0.019   0.086  0.00  0.00     0.220 C 
ATOM     26  C3  <0> d          -1.250  -2.134   0.049  0.00  0.00     0.137 A 
ATOM     27  C1  <0> d          -0.015   1.526   0.111  0.00  0.00     0.117 C 
ATOM     28  O1  <0> d           1.069  -0.571   0.081  0.00  0.00    -0.273 OA
ATOM     29  C4  <0> d          -2.758  -2.433   0.034  0.00  0.00     0.061 A 
ATOM     30  C10 <0> d          -4.744  -0.711   0.042  0.00  0.00     0.026 A 
ENDBRANCH   1  19
TORSDOF 4
