REMARK  6 active torsions:
REMARK  status: ('A' for Active; 'I' for Inactive)
REMARK    1  A    between atoms: N1_2  and  C2_3 
REMARK       I    between atoms: N1_2  and  C8_13 
REMARK    2  A    between atoms: C5_6  and  S1_9 
REMARK    3  A    between atoms: S1_9  and  N2_12 
REMARK    4  A    between atoms: C8_13  and  C9_15 
REMARK    5  A    between atoms: C9_15  and  C10_16 
REMARK    6  A    between atoms: C10_16  and  O4_17 
ROOT
ATOM      1  C2  <0> d           0.031  -0.686   1.224  0.00  0.00     0.036 A 
ATOM      2  C3  <0> d           1.127  -0.557   2.067  0.00  0.00     0.031 A 
ATOM      3  C4  <0> d           1.153  -1.230   3.272  0.00  0.00     0.027 A 
ATOM      4  C5  <0> d           0.089  -2.033   3.640  0.00  0.00     0.079 A 
ATOM      5  C6  <0> d          -1.004  -2.164   2.802  0.00  0.00     0.027 A 
ATOM      6  C7  <0> d          -1.038  -1.489   1.598  0.00  0.00     0.031 A 
ENDROOT
BRANCH   1   7
ATOM      7  N1  <0> d           0.002  -0.004   0.002  0.00  0.00    -0.322 N 
ATOM      8  C1  <0> d          -0.074   1.459  -0.019  0.00  0.00     0.159 C 
ATOM      9  C8  <0> d           0.043  -0.693  -1.155  0.00  0.00     0.226 C 
ATOM     10  O3  <0> d           0.009  -1.905  -1.141  0.00  0.00    -0.273 OA
BRANCH   9  11
ATOM     11  C9  <0> d           0.132   0.043  -2.468  0.00  0.00     0.129 C 
BRANCH  11  12
ATOM     12  C10 <0> d           0.164  -0.967  -3.617  0.00  0.00     0.176 C 
BRANCH  12  13
ATOM     13  O4  <0> d           0.248  -0.269  -4.861  0.00  0.00    -0.395 OA
ATOM     14  C11 <0> d           0.285  -1.124  -6.006  0.00  0.00     0.201 C 
ENDBRANCH  12  13
ENDBRANCH  11  12
ENDBRANCH   9  11
ENDBRANCH   1   7
BRANCH   4  15
ATOM     15  S1  <0> d           0.126  -2.892   5.178  0.00  0.00     0.256 S 
ATOM     16  O1  <0> d          -0.747  -4.005   5.043  0.00  0.00    -0.201 OA
ATOM     17  O2  <0> d           1.495  -3.035   5.530  0.00  0.00    -0.201 OA
BRANCH  15  18
ATOM     18  N2  <0> d          -0.553  -1.894   6.312  0.00  0.00    -0.324 N 
ATOM     19  H8  <0> d          -0.876  -1.016   6.054  0.00  0.00     0.169 HD
ATOM     20  H9  <0> d          -0.627  -2.187   7.234  0.00  0.00     0.169 HD
ENDBRANCH  15  18
ENDBRANCH   4  15
TORSDOF 6
