REMARK  7 active torsions:
REMARK  status: ('A' for Active; 'I' for Inactive)
REMARK    1  A    between atoms: C8_10  and  C9_12 
REMARK    2  A    between atoms: C9_12  and  C10_13 
REMARK       I    between atoms: C10_13  and  N2_15 
REMARK    3  A    between atoms: N2_15  and  C11_16 
REMARK    4  A    between atoms: C11_16  and  C12_17 
REMARK    5  A    between atoms: C12_17  and  S2_18 
REMARK    6  A    between atoms: S2_18  and  C13_19 
REMARK    7  A    between atoms: C13_19  and  C14_20 
ROOT
ATOM      1  C9  <0> d           8.966  -0.493  -3.829  0.00  0.00     0.128 C 
ENDROOT
BRANCH   1   2
ATOM      2  C8  <0> d           9.569  -0.672  -5.224  0.00  0.00     0.153 C 
ATOM      3  C7  <0> d          10.966  -1.224  -5.105  0.00  0.00     0.236 C 
ATOM      4  N1  <0> d          12.027  -0.468  -4.845  0.00  0.00    -0.325 N 
ATOM      5  O1  <0> d          11.129  -2.417  -5.253  0.00  0.00    -0.272 OA
ATOM      6  C5  <0> d          12.058   0.920  -4.754  0.00  0.00     0.051 A 
ATOM      7  H6  <0> d          12.949  -1.050  -4.696  0.00  0.00     0.169 HD
ATOM      8  C4  <0> d          11.029   1.712  -5.263  0.00  0.00     0.028 A 
ATOM      9  C6  <0> d          13.154   1.540  -4.164  0.00  0.00     0.031 A 
ATOM     10  C3  <0> d          11.081   3.092  -5.150  0.00  0.00     0.021 A 
ATOM     11  S1  <0> d           9.658   0.939  -6.064  0.00  0.00    -0.113 SA
ATOM     12  C2  <0> d          12.168   3.694  -4.545  0.00  0.00     0.002 A 
ATOM     13  C1  <0> d          13.203   2.916  -4.058  0.00  0.00     0.002 A 
ENDBRANCH   1   2
BRANCH   1  14
ATOM     14  C10 <0> d           7.529  -0.057  -3.956  0.00  0.00     0.219 C 
ATOM     15  O2  <0> d           7.036   0.095  -5.054  0.00  0.00    -0.274 OA
ATOM     16  N2  <0> d           6.791   0.163  -2.850  0.00  0.00    -0.360 N 
ATOM     17  H9  <0> d           7.238   0.025  -1.855  0.00  0.00     0.162 HD
BRANCH  16  18
ATOM     18  C11 <0> d           5.394   0.587  -2.973  0.00  0.00     0.132 C 
BRANCH  18  19
ATOM     19  C12 <0> d           4.790   0.765  -1.579  0.00  0.00     0.094 C 
BRANCH  19  20
ATOM     20  S2  <0> d           3.061   1.290  -1.732  0.00  0.00    -0.161 SA
BRANCH  20  21
ATOM     21  C13 <0> d           2.499   1.455  -0.015  0.00  0.00     0.139 C 
BRANCH  21  22
ATOM     22  C14 <0> d           1.057   1.892   0.002  0.00  0.00     0.061 A 
ATOM     23  O3  <0> d           0.621   3.162   0.013  0.00  0.00    -0.326 OA
ATOM     24  C17 <0> d          -0.722   3.175   0.026  0.00  0.00     0.142 A 
ATOM     25  C16 <0> d          -1.159   1.903   0.017  0.00  0.00     0.027 A 
ATOM     26  C15 <0> d          -0.013   1.076   0.008  0.00  0.00     0.035 A 
ENDBRANCH  21  22
ENDBRANCH  20  21
ENDBRANCH  19  20
ENDBRANCH  18  19
ENDBRANCH  16  18
ENDBRANCH   1  14
TORSDOF 7
