REMARK  3 active torsions:
REMARK  status: ('A' for Active; 'I' for Inactive)
REMARK    1  A    between atoms: C7_10  and  C8_12 
REMARK    2  A    between atoms: C8_12  and  N3_13 
REMARK    3  A    between atoms: N3_13  and  C10_15 
ROOT
ATOM      1  C1  <0> d           0.155   1.779   8.879  0.00  0.00     0.069 C 
ATOM      2  C2  <0> d          -0.635   1.403   7.652  0.00  0.00     0.025 A 
ATOM      3  C3  <0> d          -1.591   2.222   7.212  0.00  0.00     0.078 A 
ATOM      4  S1  <0> d          -2.198   1.341   5.782  0.00  0.00    -0.063 SA
ATOM      5  C4  <0> d          -1.110  -0.063   5.895  0.00  0.00     0.158 A 
ATOM      6  N1  <0> d          -0.355   0.226   7.001  0.00  0.00    -0.262 N 
ATOM      7  C5  <0> d           0.597  -0.692   7.345  0.00  0.00     0.255 A 
ATOM      8  O1  <0> d           1.303  -0.502   8.323  0.00  0.00    -0.268 OA
ATOM      9  C6  <0> d           0.760  -1.846   6.579  0.00  0.00     0.101 A 
ATOM     10  C7  <0> d          -0.041  -2.055   5.477  0.00  0.00     0.044 A 
ATOM     11  N2  <0> d          -0.965  -1.147   5.174  0.00  0.00    -0.338 N 
ATOM     12  H22 <0> d          -1.533  -1.284   4.400  0.00  0.00     0.168 HD
ENDROOT
BRANCH  10  13
ATOM     13  C8  <0> d           0.120  -3.295   4.636  0.00  0.00     0.329 C 
BRANCH  13  14
ATOM     14  N3  <0> d          -1.099  -4.110   4.726  0.00  0.00     0.094 N 
ATOM     15  C9  <0> d          -1.139  -5.117   3.658  0.00  0.00     0.310 C 
BRANCH  14  16
ATOM     16  C10 <0> d          -1.214  -4.739   6.049  0.00  0.00     0.226 C 
ATOM     17  C14 <0> d          -2.553  -5.476   6.150  0.00  0.00     0.063 C 
ATOM     18  C13 <0> d          -2.632  -6.195   7.498  0.00  0.00     0.234 C 
ATOM     19  N4  <0> d          -1.531  -7.160   7.608  0.00  0.00    -0.075 N 
ATOM     20  C12 <0> d          -0.245  -6.452   7.584  0.00  0.00     0.234 C 
ATOM     21  H16 <0> d          -1.573  -7.806   6.835  0.00  0.00     0.277 HD
ATOM     22  H21 <0> d          -1.617  -7.670   8.475  0.00  0.00     0.277 HD
ATOM     23  C11 <0> d          -0.074  -5.743   6.239  0.00  0.00     0.063 C 
ENDBRANCH  14  16
ENDBRANCH  13  14
ENDBRANCH  10  13
TORSDOF 3
