REMARK  2 active torsions:
REMARK  status: ('A' for Active; 'I' for Inactive)
REMARK    1  A    between atoms: N2_18  and  C16_21 
REMARK    2  A    between atoms: C16_21  and  C17_22 
ROOT
ATOM      1  C1  <0> d          -0.017   1.379   0.010  0.00  0.00     0.026 A 
ATOM      2  C2  <0> d           1.165   2.092   0.002  0.00  0.00     0.032 A 
ATOM      3  C3  <0> d           2.386   1.423  -0.012  0.00  0.00     0.044 A 
ATOM      4  C4  <0> d           2.393   0.032  -0.021  0.00  0.00     0.019 A 
ATOM      5  C5  <0> d           1.213  -0.676  -0.012  0.00  0.00     0.036 A 
ATOM      6  C6  <0> d           0.002  -0.004   0.002  0.00  0.00     0.034 A 
ATOM      7 Cl1  <0> d          -1.488  -0.895   0.011  0.00  0.00    -0.084 Cl
ATOM      8  C7  <0> d           3.841  -0.373  -0.044  0.00  0.00     0.281 A 
ATOM      9  C8  <0> d           4.166  -1.208  -1.289  0.00  0.00     0.147 A 
ATOM     10  C9  <0> d           4.135  -2.680  -0.792  0.00  0.00     0.128 A 
ATOM     11  C10 <0> d           3.814  -2.592   0.711  0.00  0.00     0.239 C 
ATOM     12  N1  <0> d           4.188  -1.209   1.117  0.00  0.00     0.118 N 
ATOM     13  C11 <0> d           5.661  -1.265   1.274  0.00  0.00     0.275 C 
ATOM     14  C12 <0> d           5.951  -2.651   1.883  0.00  0.00     0.032 C 
ATOM     15  C13 <0> d           4.743  -3.544   1.486  0.00  0.00     0.038 C 
ATOM     16  C14 <0> d           2.961  -3.274  -1.536  0.00  0.00     0.233 A 
ATOM     17  O1  <0> d           2.577  -4.420  -1.437  0.00  0.00    -0.272 OA
ATOM     18  N2  <0> d           2.411  -2.339  -2.320  0.00  0.00    -0.285 N 
ATOM     19  C15 <0> d           3.016  -1.130  -2.268  0.00  0.00     0.235 A 
ATOM     20  O2  <0> d           2.695  -0.143  -2.895  0.00  0.00    -0.272 OA
ATOM     21  C21 <0> d           4.607   0.922  -0.039  0.00  0.00     0.267 A 
ATOM     22  O4  <0> d           5.814   1.049  -0.050  0.00  0.00    -0.270 OA
ATOM     23  N3  <0> d           3.695   1.912  -0.021  0.00  0.00    -0.324 N 
ATOM     24  H22 <0> d           3.920   2.856  -0.014  0.00  0.00     0.169 HD
ENDROOT
BRANCH  18  25
ATOM     25  C16 <0> d           1.250  -2.603  -3.172  0.00  0.00     0.166 C 
BRANCH  25  26
ATOM     26  C17 <0> d          -0.033  -2.308  -2.393  0.00  0.00     0.140 C 
ATOM     27  O3  <0> d          -0.123  -0.906  -2.116  0.00  0.00    -0.384 OA
ATOM     28  C20 <0> d          -1.288  -0.355  -2.753  0.00  0.00     0.168 C 
ATOM     29  C19 <0> d          -2.260  -1.550  -2.922  0.00  0.00     0.029 C 
ATOM     30  C18 <0> d          -1.263  -2.698  -3.241  0.00  0.00     0.035 C 
ENDBRANCH  25  26
ENDBRANCH  18  25
TORSDOF 2
