REMARK  6 active torsions:
REMARK  status: ('A' for Active; 'I' for Inactive)
REMARK       I    between atoms: C2_2  and  N1_4 
REMARK    1  A    between atoms: N1_4  and  C3_5 
REMARK    2  A    between atoms: C3_5  and  C10_12 
REMARK    3  A    between atoms: C11_14  and  C12_17 
REMARK    4  A    between atoms: C12_17  and  C13_18 
REMARK    5  A    between atoms: C13_18  and  C14_19 
REMARK       I    between atoms: C14_19  and  N4_21 
REMARK    6  A    between atoms: N4_21  and  C15_22 
ROOT
ATOM      1  C10 <0> d          -0.279  -2.373   1.000  0.00  0.00     0.184 A 
ATOM      2  N2  <0> d           0.937  -1.980   1.393  0.00  0.00    -0.206 NA
ATOM      3  C11 <0> d           1.333  -2.696   2.409  0.00  0.00     0.173 A 
ATOM      4  O2  <0> d           0.370  -3.580   2.699  0.00  0.00    -0.196 OA
ATOM      5  N3  <0> d          -0.677  -3.346   1.768  0.00  0.00    -0.108 NA
ENDROOT
BRANCH   3   6
ATOM      6  C12 <0> d           2.647  -2.553   3.132  0.00  0.00     0.098 C 
BRANCH   6   7
ATOM      7  C13 <0> d           2.492  -1.554   4.280  0.00  0.00     0.111 C 
BRANCH   7   8
ATOM      8  C14 <0> d           3.807  -1.411   5.003  0.00  0.00     0.222 C 
ATOM      9  O3  <0> d           4.773  -2.046   4.636  0.00  0.00    -0.273 OA
ATOM     10  N4  <0> d           3.909  -0.578   6.058  0.00  0.00    -0.323 N 
ATOM     11  H21 <0> d           3.159  -0.017   6.307  0.00  0.00     0.169 HD
BRANCH  10  12
ATOM     12  C15 <0> d           5.102  -0.523   6.795  0.00  0.00     0.101 A 
ATOM     13  C19 <0> d           5.615  -1.689   7.421  0.00  0.00     0.201 A 
ATOM     14  C18 <0> d           6.822  -1.592   8.149  0.00  0.00     0.074 A 
ATOM     15  O4  <0> d           5.027  -2.757   7.327  0.00  0.00    -0.286 OA
ATOM     16  C17 <0> d           7.446  -0.396   8.239  0.00  0.00     0.091 A 
ATOM     17  N5  <0> d           6.931   0.703   7.637  0.00  0.00    -0.373 N 
ATOM     18  C16 <0> d           5.777   0.646   6.924  0.00  0.00     0.121 A 
ATOM     19  H25 <0> d           7.398   1.550   7.716  0.00  0.00     0.164 HD
ENDBRANCH  10  12
ENDBRANCH   7   8
ENDBRANCH   6   7
ENDBRANCH   3   6
BRANCH   1  20
ATOM     20  C3  <0> d          -1.064  -1.783  -0.143  0.00  0.00     0.097 C 
ATOM     21  C9  <0> d          -2.465  -2.427  -0.197  0.00  0.00     0.039 C 
ATOM     22  C8  <0> d          -3.419  -1.618  -0.941  0.00  0.00     0.003 C 
ATOM     23  C7  <0> d          -3.010  -1.434  -2.416  0.00  0.00     0.000 C 
ATOM     24  C6  <0> d          -1.964  -0.355  -2.492  0.00  0.00     0.000 C 
ATOM     25  C5  <0> d          -0.531  -0.919  -2.463  0.00  0.00     0.003 C 
ATOM     26  C4  <0> d          -0.359  -2.061  -1.443  0.00  0.00     0.039 C 
BRANCH  20  27
ATOM     27  N1  <0> d          -1.195  -0.336   0.046  0.00  0.00    -0.345 N 
ATOM     28  C2  <0> d          -0.093   0.436   0.123  0.00  0.00     0.214 C 
ATOM     29  C1  <0> d          -0.228   1.924   0.317  0.00  0.00     0.117 C 
ATOM     30  O1  <0> d           1.007  -0.067   0.036  0.00  0.00    -0.274 OA
ATOM     31  H4  <0> d          -2.075   0.067   0.116  0.00  0.00     0.163 HD
ENDBRANCH  20  27
ENDBRANCH   1  20
TORSDOF 6
