REMARK  4 active torsions:
REMARK  status: ('A' for Active; 'I' for Inactive)
REMARK    1  A    between atoms: C12_13  and  O4_25 
REMARK    2  A    between atoms: C18_19  and  C19_20 
REMARK    3  A    between atoms: C19_20  and  C20_22 
REMARK    4  A    between atoms: C20_22  and  O3_23 
ROOT
ATOM      1  C1  <0> d          -3.053   2.313  -1.719  0.00  0.00     0.016 C 
ATOM      2  C2  <0> d          -2.141   1.204  -2.273  0.00  0.00    -0.033 C 
ATOM      3  C3  <0> d          -2.649   0.056  -1.455  0.00  0.00     0.017 C 
ATOM      4  C4  <0> d          -2.989  -1.218  -2.196  0.00  0.00     0.079 C 
ATOM      5  C5  <0> d          -3.665  -0.898  -3.495  0.00  0.00     0.127 C 
ATOM      6  O1  <0> d          -4.693  -1.453  -3.795  0.00  0.00    -0.298 OA
ATOM      7  C6  <0> d          -3.066   0.111  -4.416  0.00  0.00     0.083 C 
ATOM      8  C7  <0> d          -2.484   1.317  -3.708  0.00  0.00     0.001 C 
ATOM      9  C8  <0> d          -1.545   2.017  -4.667  0.00  0.00     0.006 C 
ATOM     10  C9  <0> d          -0.417   2.781  -3.987  0.00  0.00     0.006 C 
ATOM     11  C10 <0> d           0.187   1.808  -2.959  0.00  0.00    -0.003 C 
ATOM     12  C11 <0> d          -0.805   1.763  -1.802  0.00  0.00     0.027 C 
ATOM     13  C12 <0> d          -0.258   1.094  -0.562  0.00  0.00     0.124 C 
ATOM     14  C13 <0> d           1.191   1.470  -0.213  0.00  0.00     0.042 C 
ATOM     15  C14 <0> d           1.690   2.599  -1.075  0.00  0.00    -0.027 C 
ATOM     16  C15 <0> d           1.565   2.180  -2.552  0.00  0.00    -0.001 C 
ATOM     17  C16 <0> d           2.301   3.309  -3.272  0.00  0.00     0.006 C 
ATOM     18  C17 <0> d           3.559   3.498  -2.375  0.00  0.00     0.013 C 
ATOM     19  C18 <0> d           3.192   2.930  -0.979  0.00  0.00     0.066 C 
ATOM     20  C21 <0> d           0.948   3.903  -0.765  0.00  0.00     0.016 C 
ENDROOT
BRANCH  19  21
ATOM     21  C19 <0> d           4.023   1.720  -0.671  0.00  0.00     0.154 C 
ATOM     22  O2  <0> d           3.662   0.629  -1.044  0.00  0.00    -0.295 OA
BRANCH  21  23
ATOM     23  C20 <0> d           5.307   1.865   0.103  0.00  0.00     0.242 C 
BRANCH  23  24
ATOM     24  O3  <0> d           5.912   0.580   0.268  0.00  0.00    -0.394 OA
ATOM     25  H28 <0> d           6.745   0.598   0.758  0.00  0.00     0.209 HD
ENDBRANCH  23  24
ENDBRANCH  21  23
ENDBRANCH  19  21
BRANCH  13  26
ATOM     26  O4  <0> d          -1.085   1.411   0.570  0.00  0.00    -0.395 OA
ATOM     27  H32 <0> d          -0.798   0.996   1.395  0.00  0.00     0.210 HD
ENDBRANCH  13  26
TORSDOF 4
