REMARK  7 active torsions:
REMARK  status: ('A' for Active; 'I' for Inactive)
REMARK    1  A    between atoms: C6_6  and  S1_8 
REMARK    2  A    between atoms: S1_8  and  N1_11 
REMARK    3  A    between atoms: N1_11  and  C8_12 
REMARK    4  A    between atoms: C8_12  and  C9_13 
REMARK    5  A    between atoms: C9_13  and  N2_14 
REMARK       I    between atoms: N2_14  and  C10_15 
REMARK       I    between atoms: C10_15  and  N3_17 
REMARK    6  A    between atoms: N3_17  and  C11_18 
REMARK    7  A    between atoms: C11_18  and  C12_19 
ROOT
ATOM      1  N2  <0> d          -4.047   1.500   7.650  0.00  0.00    -0.342 N 
ATOM      2  C10 <0> d          -4.563   1.018   8.798  0.00  0.00     0.316 C 
ATOM      3  O3  <0> d          -5.529   0.281   8.768  0.00  0.00    -0.247 OA
ATOM      4  N3  <0> d          -4.007   1.353   9.979  0.00  0.00    -0.341 N 
ATOM      5  H13 <0> d          -3.173   2.167   7.676  0.00  0.00     0.164 HD
ATOM      6  H14 <0> d          -3.133   2.020  10.006  0.00  0.00     0.164 HD
ENDROOT
BRANCH   1   7
ATOM      7  C9  <0> d          -4.651   1.135   6.366  0.00  0.00     0.144 C 
BRANCH   7   8
ATOM      8  C8  <0> d          -3.881   1.811   5.230  0.00  0.00     0.152 C 
BRANCH   8   9
ATOM      9  N1  <0> d          -4.485   1.446   3.946  0.00  0.00    -0.314 N 
ATOM     10  H8  <0> d          -5.068   0.517   3.856  0.00  0.00     0.172 HD
BRANCH   9  11
ATOM     11  S1  <0> d          -4.091   2.289   2.576  0.00  0.00     0.259 S 
ATOM     12  O1  <0> d          -4.186   3.668   2.906  0.00  0.00    -0.201 OA
ATOM     13  O2  <0> d          -4.833   1.707   1.513  0.00  0.00    -0.201 OA
BRANCH  11  14
ATOM     14  C6  <0> d          -2.391   1.968   2.238  0.00  0.00     0.086 A 
ATOM     15  C5  <0> d          -1.974   0.682   1.951  0.00  0.00    -0.039 A 
ATOM     16  C4  <0> d          -0.641   0.431   1.687  0.00  0.00     0.009 A 
ATOM     17  C20 <0> d          -2.973  -0.446   1.927  0.00  0.00     0.050 C 
ATOM     18  C3  <0> d           0.275   1.465   1.709  0.00  0.00     0.007 A 
ATOM     19  C2  <0> d          -0.142   2.752   1.995  0.00  0.00    -0.060 A 
ATOM     20  C1  <0> d           0.857   3.880   2.020  0.00  0.00     0.048 C 
ATOM     21  C7  <0> d          -1.474   3.002   2.264  0.00  0.00     0.032 A 
ENDBRANCH  11  14
ENDBRANCH   9  11
ENDBRANCH   8   9
ENDBRANCH   7   8
ENDBRANCH   1   7
BRANCH   4  22
ATOM     22  C11 <0> d          -4.568   0.830  11.227  0.00  0.00     0.159 C 
BRANCH  22  23
ATOM     23  C12 <0> d          -3.757   1.360  12.412  0.00  0.00     0.171 C 
ATOM     24  O5  <0> d          -3.916   2.780  12.509  0.00  0.00    -0.339 OA
ATOM     25  C19 <0> d          -3.509   3.363  13.669  0.00  0.00     0.102 A 
ATOM     26  C14 <0> d          -3.305   2.603  14.814  0.00  0.00     0.102 A 
ATOM     27  C18 <0> d          -3.295   4.733  13.704  0.00  0.00     0.039 A 
ATOM     28  O4  <0> d          -3.501   1.256  14.800  0.00  0.00    -0.346 OA
ATOM     29  C15 <0> d          -2.894   3.219  15.987  0.00  0.00     0.039 A 
ATOM     30  C13 <0> d          -4.270   0.728  13.713  0.00  0.00     0.209 C 
ATOM     31  C16 <0> d          -2.685   4.584  16.015  0.00  0.00     0.003 A 
ATOM     32  C17 <0> d          -2.884   5.340  14.875  0.00  0.00     0.003 A 
ENDBRANCH  22  23
ENDBRANCH   4  22
TORSDOF 7
