REMARK  5 active torsions:
REMARK  status: ('A' for Active; 'I' for Inactive)
REMARK    1  A    between atoms: C6_6  and  S1_9 
REMARK    2  A    between atoms: S1_9  and  N1_12 
REMARK    3  A    between atoms: N1_12  and  C8_13 
REMARK    4  A    between atoms: C12_17  and  S2_19 
REMARK    5  A    between atoms: S2_19  and  N2_22 
ROOT
ATOM      1  N1  <0> d           1.162  -2.827  -1.806  0.00  0.00    -0.281 N 
ATOM      2  H5  <0> d           0.399  -3.278  -2.199  0.00  0.00     0.179 HD
ENDROOT
BRANCH   1   3
ATOM      3  S1  <0> d           1.154  -2.435  -0.197  0.00  0.00     0.265 S 
ATOM      4  O1  <0> d           2.390  -2.888   0.338  0.00  0.00    -0.200 OA
ATOM      5  O2  <0> d          -0.101  -2.859   0.318  0.00  0.00    -0.200 OA
BRANCH   3   6
ATOM      6  C6  <0> d           1.174  -0.676  -0.090  0.00  0.00     0.109 A 
ATOM      7  C5  <0> d           0.068   0.053  -0.484  0.00  0.00    -0.015 A 
ATOM      8  C4  <0> d           0.084   1.434  -0.400  0.00  0.00     0.042 A 
ATOM      9  C14 <0> d          -1.155  -0.656  -1.008  0.00  0.00     0.052 C 
ATOM     10  C3  <0> d           1.206   2.085   0.079  0.00  0.00     0.033 A 
ATOM     11 Cl2  <0> d          -1.303   2.350  -0.903  0.00  0.00    -0.084 Cl
ATOM     12  C2  <0> d           2.312   1.356   0.475  0.00  0.00    -0.037 A 
ATOM     13  C1  <0> d           3.534   2.065   0.999  0.00  0.00     0.050 C 
ATOM     14  C7  <0> d           2.296  -0.025   0.390  0.00  0.00     0.064 A 
ATOM     15 Cl1  <0> d           3.685  -0.941   0.887  0.00  0.00    -0.082 Cl
ENDBRANCH   3   6
ENDBRANCH   1   3
BRANCH   1  16
ATOM     16  C8  <0> d           2.268  -2.509  -2.597  0.00  0.00     0.044 A 
ATOM     17  C13 <0> d           2.087  -1.947  -3.854  0.00  0.00     0.055 A 
ATOM     18  C12 <0> d           3.183  -1.630  -4.632  0.00  0.00     0.081 A 
ATOM     19  C11 <0> d           4.460  -1.880  -4.164  0.00  0.00     0.025 A 
ATOM     20  C10 <0> d           4.644  -2.443  -2.914  0.00  0.00     0.004 A 
ATOM     21  C9  <0> d           3.553  -2.759  -2.130  0.00  0.00     0.030 A 
BRANCH  18  22
ATOM     22  S2  <0> d           2.954  -0.912  -6.224  0.00  0.00     0.256 S 
ATOM     23  O3  <0> d           1.684  -0.277  -6.205  0.00  0.00    -0.201 OA
ATOM     24  O4  <0> d           4.152  -0.211  -6.530  0.00  0.00    -0.201 OA
BRANCH  22  25
ATOM     25  N2  <0> d           2.844  -2.157  -7.311  0.00  0.00    -0.324 N 
ATOM     26  H10 <0> d           2.909  -3.075  -7.005  0.00  0.00     0.169 HD
ATOM     27  H11 <0> d           2.715  -1.967  -8.254  0.00  0.00     0.169 HD
ENDBRANCH  22  25
ENDBRANCH  18  22
ENDBRANCH   1  16
TORSDOF 5
