REMARK  5 active torsions:
REMARK  status: ('A' for Active; 'I' for Inactive)
REMARK    1  A    between atoms: O1_2  and  C2_3 
REMARK    2  A    between atoms: C7_8  and  O2_9 
REMARK    3  A    between atoms: C10_14  and  N3_15 
REMARK    4  A    between atoms: N3_15  and  C11_16 
REMARK    5  A    between atoms: C11_16  and  C12_17 
ROOT
ATOM      1  C2  <0> d           0.626  -0.619   1.043  0.00  0.00     0.102 A 
ATOM      2  C3  <0> d           1.198   0.138   2.044  0.00  0.00     0.057 A 
ATOM      3  C4  <0> d           1.837  -0.500   3.109  0.00  0.00     0.039 A 
ATOM      4  C5  <0> d           1.896  -1.907   3.156  0.00  0.00     0.051 A 
ATOM      5  C6  <0> d           1.317  -2.655   2.144  0.00  0.00     0.070 A 
ATOM      6  C7  <0> d           0.680  -2.014   1.094  0.00  0.00     0.103 A 
ATOM      7  N1  <0> d           2.537  -2.504   4.228  0.00  0.00    -0.331 N 
ATOM      8  C9  <0> d           3.087  -1.747   5.194  0.00  0.00     0.200 A 
ATOM      9  N2  <0> d           3.050  -0.416   5.180  0.00  0.00    -0.202 NA
ATOM     10  C10 <0> d           2.462   0.256   4.202  0.00  0.00     0.139 A 
ATOM     11  S1  <0> d           3.869  -2.530   6.501  0.00  0.00    -0.039 SA
ATOM     12  H19 <0> d           2.590  -3.471   4.282  0.00  0.00     0.168 HD
ENDROOT
BRANCH  10  13
ATOM     13  N3  <0> d           2.437   1.627   4.209  0.00  0.00    -0.371 N 
ATOM     14  H10 <0> d           2.003   2.108   3.487  0.00  0.00     0.161 HD
BRANCH  13  15
ATOM     15  C11 <0> d           3.066   2.365   5.308  0.00  0.00     0.153 C 
BRANCH  15  16
ATOM     16  C12 <0> d           2.897   3.868   5.075  0.00  0.00     0.139 C 
ATOM     17  O3  <0> d           3.571   4.264   3.870  0.00  0.00    -0.384 OA
ATOM     18  C15 <0> d           4.158   5.561   4.043  0.00  0.00     0.168 C 
ATOM     19  C14 <0> d           3.866   6.016   5.489  0.00  0.00     0.029 C 
ATOM     20  C13 <0> d           3.586   4.668   6.208  0.00  0.00     0.035 C 
ENDBRANCH  15  16
ENDBRANCH  13  15
ENDBRANCH  10  13
BRANCH   1  21
ATOM     21  O1  <0> d           0.002  -0.004   0.002  0.00  0.00    -0.353 OA
ATOM     22  C1  <0> d          -0.017   1.425   0.010  0.00  0.00     0.210 C 
ENDBRANCH   1  21
BRANCH   6  23
ATOM     23  O2  <0> d           0.109  -2.748   0.105  0.00  0.00    -0.353 OA
ATOM     24  C8  <0> d           0.199  -4.170   0.217  0.00  0.00     0.210 C 
ENDBRANCH   6  23
TORSDOF 5
