REMARK  7 active torsions:
REMARK  status: ('A' for Active; 'I' for Inactive)
REMARK    1  A    between atoms: C2_2  and  O1_3 
REMARK    2  A    between atoms: O1_3  and  C3_4 
REMARK    3  A    between atoms: C5_6  and  C16_19 
REMARK    4  A    between atoms: C7_8  and  O3_16 
REMARK    5  A    between atoms: O3_16  and  C14_17 
REMARK    6  A    between atoms: C19_22  and  O5_26 
REMARK    7  A    between atoms: C20_23  and  O4_25 
ROOT
ATOM      1  C3  <0> d          -1.403  -1.847   0.142  0.00  0.00     0.083 A 
ATOM      2  C4  <0> d          -2.673  -2.412   0.149  0.00  0.00     0.050 A 
ATOM      3  C5  <0> d          -3.034  -3.759   0.173  0.00  0.00    -0.021 A 
ATOM      4  C6  <0> d          -2.257  -4.918   0.198  0.00  0.00     0.050 A 
ATOM      5  C7  <0> d          -0.873  -5.041   0.205  0.00  0.00     0.083 A 
ATOM      6  C8  <0> d           0.066  -3.994   0.188  0.00  0.00     0.042 A 
ATOM      7  C9  <0> d           1.448  -4.068   0.195  0.00  0.00     0.063 A 
ATOM      8  O2  <0> d           1.902  -2.939   0.175  0.00  0.00    -0.318 OA
ATOM      9  C10 <0> d           1.108  -2.017   0.154  0.00  0.00     0.063 A 
ATOM     10  C11 <0> d          -0.176  -2.535   0.153  0.00  0.00     0.042 A 
ATOM     11  C12 <0> d           1.463  -0.553   0.127  0.00  0.00     0.077 C 
ATOM     12  C13 <0> d           2.258  -5.338   0.222  0.00  0.00     0.077 C 
ENDROOT
BRANCH   3  13
ATOM     13  C16 <0> d          -4.494  -4.002   0.174  0.00  0.00    -0.023 A 
ATOM     14  C21 <0> d          -5.097  -4.641  -0.911  0.00  0.00     0.051 A 
ATOM     15  C20 <0> d          -6.460  -4.870  -0.903  0.00  0.00     0.099 A 
ATOM     16  C19 <0> d          -7.230  -4.454   0.181  0.00  0.00     0.098 A 
ATOM     17  C18 <0> d          -6.631  -3.813   1.256  0.00  0.00     0.040 A 
ATOM     18  C17 <0> d          -5.271  -3.587   1.257  0.00  0.00     0.015 A 
BRANCH  15  19
ATOM     19  O4  <0> d          -7.050  -5.498  -1.955  0.00  0.00    -0.358 OA
ATOM     20  H22 <0> d          -7.351  -4.900  -2.652  0.00  0.00     0.217 HD
ENDBRANCH  15  19
BRANCH  16  21
ATOM     21  O5  <0> d          -8.571  -4.675   0.185  0.00  0.00    -0.358 OA
ATOM     22  H23 <0> d          -9.089  -3.959  -0.206  0.00  0.00     0.217 HD
ENDBRANCH  16  21
ENDBRANCH   3  13
BRANCH   1  23
ATOM     23  O1  <0> d          -1.341  -0.496   0.116  0.00  0.00    -0.350 OA
BRANCH  23  24
ATOM     24  C2  <0> d          -1.832   0.198   1.264  0.00  0.00     0.171 C 
ATOM     25  C1  <0> d          -1.599   1.700   1.090  0.00  0.00     0.034 C 
ENDBRANCH  23  24
ENDBRANCH   1  23
BRANCH   5  26
ATOM     26  O3  <0> d          -0.376  -6.299   0.231  0.00  0.00    -0.350 OA
BRANCH  26  27
ATOM     27  C14 <0> d          -1.323  -7.370   0.248  0.00  0.00     0.171 C 
ATOM     28  C15 <0> d          -0.580  -8.707   0.277  0.00  0.00     0.034 C 
ENDBRANCH  26  27
ENDBRANCH   5  26
TORSDOF 7
