REMARK  5 active torsions:
REMARK  status: ('A' for Active; 'I' for Inactive)
REMARK    1  A    between atoms: C2_2  and  C3_3 
REMARK    2  A    between atoms: C2_2  and  S2_19 
REMARK    3  A    between atoms: C6_9  and  C9_14 
REMARK    4  A    between atoms: S2_19  and  C13_20 
REMARK    5  A    between atoms: C14_23  and  C16_26 
ROOT
ATOM      1  C3  <0> d          -1.465  -0.401   0.187  0.00  0.00     0.122 A 
ATOM      2  N1  <0> d          -2.041  -0.546   1.408  0.00  0.00    -0.310 N 
ATOM      3  H2  <0> d          -1.519  -0.362   2.205  0.00  0.00     0.170 HD
ATOM      4  C4  <0> d          -3.322  -0.940   1.535  0.00  0.00     0.260 A 
ATOM      5  O1  <0> d          -3.824  -1.064   2.639  0.00  0.00    -0.267 OA
ATOM      6  C5  <0> d          -4.085  -1.209   0.355  0.00  0.00     0.081 A 
ATOM      7  C6  <0> d          -5.473  -1.642   0.232  0.00  0.00     0.023 A 
ATOM      8  C7  <0> d          -5.987  -1.836  -1.009  0.00  0.00     0.067 A 
ATOM      9  S1  <0> d          -4.623  -1.443  -2.087  0.00  0.00    -0.080 SA
ATOM     10  C8  <0> d          -3.406  -1.032  -0.862  0.00  0.00     0.116 A 
ATOM     11  N2  <0> d          -2.138  -0.634  -0.908  0.00  0.00    -0.226 NA
ENDROOT
BRANCH   1  12
ATOM     12  C2  <0> d          -0.028   0.043   0.093  0.00  0.00     0.121 C 
ATOM     13  C1  <0> d           0.026   1.560  -0.095  0.00  0.00     0.030 C 
BRANCH  12  14
ATOM     14  S2  <0> d           0.844  -0.409   1.618  0.00  0.00    -0.078 SA
BRANCH  14  15
ATOM     15  C13 <0> d           2.519   0.035   1.298  0.00  0.00     0.192 A 
ATOM     16  N5  <0> d           3.574  -0.112   2.154  0.00  0.00    -0.312 N 
ATOM     17  C14 <0> d           4.671   0.366   1.475  0.00  0.00     0.165 A 
ATOM     18  C15 <0> d           3.543  -0.666   3.510  0.00  0.00     0.160 C 
ATOM     19  N4  <0> d           4.252   0.769   0.299  0.00  0.00    -0.128 NA
ATOM     20  N3  <0> d           2.986   0.575   0.195  0.00  0.00    -0.122 NA
BRANCH  17  21
ATOM     21  C16 <0> d           6.061   0.419   1.978  0.00  0.00     0.029 A 
ATOM     22  C20 <0> d           7.005   1.246   1.368  0.00  0.00     0.131 A 
ATOM     23  N6  <0> d           8.241   1.296   1.819  0.00  0.00    -0.272 NA
ATOM     24  C19 <0> d           8.639   0.570   2.847  0.00  0.00     0.116 A 
ATOM     25  C18 <0> d           7.764  -0.278   3.502  0.00  0.00     0.020 A 
ATOM     26  C17 <0> d           6.452  -0.364   3.071  0.00  0.00     0.018 A 
ENDBRANCH  17  21
ENDBRANCH  14  15
ENDBRANCH  12  14
ENDBRANCH   1  12
BRANCH   7  27
ATOM     27  C9  <0> d          -6.301  -1.866   1.434  0.00  0.00     0.086 A 
ATOM     28  O2  <0> d          -5.955  -2.605   2.506  0.00  0.00    -0.322 OA
ATOM     29  C12 <0> d          -6.953  -2.580   3.406  0.00  0.00     0.142 A 
ATOM     30  C11 <0> d          -7.958  -1.830   2.916  0.00  0.00     0.027 A 
ATOM     31  C10 <0> d          -7.548  -1.367   1.649  0.00  0.00     0.040 A 
ENDBRANCH   7  27
TORSDOF 5
