REMARK  3 active torsions:
REMARK  status: ('A' for Active; 'I' for Inactive)
REMARK    1  A    between atoms: C4_4  and  N3_11 
REMARK    2  A    between atoms: C5_6  and  C6_8 
REMARK       I    between atoms: N3_11  and  C9_12 
REMARK    3  A    between atoms: C9_12  and  C10_14 
ROOT
ATOM      1  N3  <0> d           0.029  -2.834  -2.326  0.00  0.00    -0.307 N 
ATOM      2  C9  <0> d           0.149  -4.175  -2.275  0.00  0.00     0.257 C 
ATOM      3  O1  <0> d           0.163  -4.743  -1.202  0.00  0.00    -0.267 OA
ATOM      4  H12 <0> d          -0.056  -2.386  -3.182  0.00  0.00     0.170 HD
ENDROOT
BRANCH   1   5
ATOM      5  C4  <0> d           0.027  -2.091  -1.151  0.00  0.00     0.134 A 
ATOM      6  C3  <0> d           0.009  -0.697  -1.194  0.00  0.00     0.077 A 
ATOM      7  C2  <0> d           0.007  -0.004   0.002  0.00  0.00     0.036 A 
ATOM      8  C1  <0> d          -0.012   1.503   0.010  0.00  0.00     0.070 C 
ATOM      9  N2  <0> d           0.028  -0.680   1.141  0.00  0.00    -0.238 NA
ATOM     10  C5  <0> d           0.038  -1.998   1.147  0.00  0.00     0.132 A 
ATOM     11  N1  <0> d           0.041  -2.699   0.031  0.00  0.00    -0.215 NA
BRANCH  10  12
ATOM     12  C6  <0> d           0.055  -2.724   2.468  0.00  0.00     0.049 C 
ATOM     13  C7  <0> d          -1.182  -3.618   2.574  0.00  0.00     0.018 C 
ATOM     14  C8  <0> d           1.316  -3.586   2.560  0.00  0.00     0.018 C 
ENDBRANCH  10  12
ENDBRANCH   1   5
BRANCH   2  15
ATOM     15  C10 <0> d           0.265  -4.958  -3.530  0.00  0.00     0.038 A 
ATOM     16  C14 <0> d           0.389  -6.335  -3.491  0.00  0.00     0.091 A 
ATOM     17  C13 <0> d           0.491  -7.047  -4.704  0.00  0.00     0.247 A 
ATOM     18  N4  <0> d           0.479  -6.386  -5.877  0.00  0.00    -0.329 N 
ATOM     19  O2  <0> d           0.596  -8.262  -4.690  0.00  0.00    -0.268 OA
ATOM     20  C12 <0> d           0.364  -5.035  -5.920  0.00  0.00     0.095 A 
ATOM     21  C15 <0> d           0.593  -7.140  -7.128  0.00  0.00     0.159 C 
ATOM     22  C11 <0> d           0.257  -4.308  -4.784  0.00  0.00     0.034 A 
ENDBRANCH   2  15
TORSDOF 3
