REMARK  4 active torsions:
REMARK  status: ('A' for Active; 'I' for Inactive)
REMARK    1  A    between atoms: C5_5  and  C9_12 
REMARK       I    between atoms: C9_12  and  N4_14 
REMARK    2  A    between atoms: C11_16  and  C18_24 
REMARK       I    between atoms: C18_24  and  N6_26 
REMARK    3  A    between atoms: N6_26  and  C19_27 
REMARK    4  A    between atoms: C19_27  and  C20_28 
ROOT
ATOM      1  C9  <0> d          -0.074  -1.608  -4.693  0.00  0.00     0.257 C 
ATOM      2  O1  <0> d          -0.116  -0.470  -5.119  0.00  0.00    -0.267 OA
ATOM      3  N4  <0> d           0.089  -2.641  -5.543  0.00  0.00    -0.346 N 
ATOM      4  C10 <0> d           0.059  -4.089  -5.230  0.00  0.00     0.141 C 
ATOM      5  C11 <0> d          -0.687  -4.731  -6.421  0.00  0.00     0.106 C 
ATOM      6  C12 <0> d          -0.497  -3.740  -7.582  0.00  0.00    -0.007 C 
ATOM      7  C13 <0> d           0.333  -2.585  -7.005  0.00  0.00     0.136 C 
ATOM      8  C14 <0> d           0.252  -4.409  -8.730  0.00  0.00     0.039 C 
ATOM      9  C15 <0> d           0.377  -3.422  -9.895  0.00  0.00     0.233 C 
ATOM     10  N5  <0> d          -0.961  -3.008 -10.334  0.00  0.00    -0.075 N 
ATOM     11  C16 <0> d          -1.640  -2.284  -9.252  0.00  0.00     0.233 C 
ATOM     12  C17 <0> d          -1.851  -3.222  -8.060  0.00  0.00     0.039 C 
ATOM     13  H18 <0> d          -0.878  -2.406 -11.139  0.00  0.00     0.277 HD
ATOM     14  H32 <0> d          -1.501  -3.824 -10.580  0.00  0.00     0.277 HD
ENDROOT
BRANCH   1  15
ATOM     15  C5  <0> d          -0.202  -1.859  -3.244  0.00  0.00     0.072 A 
ATOM     16  C4  <0> d          -1.040  -1.062  -2.459  0.00  0.00     0.067 A 
ATOM     17  C3  <0> d          -1.122  -1.346  -1.093  0.00  0.00     0.060 A 
ATOM     18 Cl1  <0> d          -1.952   0.238  -3.160  0.00  0.00    -0.082 Cl
ATOM     19  C2  <0> d          -1.861  -0.764   0.023  0.00  0.00     0.067 A 
ATOM     20  C7  <0> d          -0.367  -2.411  -0.559  0.00  0.00     0.159 A 
ATOM     21  C1  <0> d          -2.808   0.406  -0.050  0.00  0.00     0.073 C 
ATOM     22  N3  <0> d          -1.548  -1.435   1.095  0.00  0.00    -0.175 NA
ATOM     23  N2  <0> d          -0.643  -2.452   0.778  0.00  0.00    -0.256 N 
ATOM     24  C8  <0> d          -0.075  -3.408   1.732  0.00  0.00     0.182 C 
ATOM     25  N1  <0> d           0.416  -3.138  -1.351  0.00  0.00    -0.240 NA
ATOM     26  C6  <0> d           0.516  -2.898  -2.637  0.00  0.00     0.138 A 
ENDBRANCH   1  15
BRANCH   5  27
ATOM     27  C18 <0> d          -0.078  -6.066  -6.763  0.00  0.00     0.224 C 
ATOM     28  O2  <0> d           1.104  -6.260  -6.576  0.00  0.00    -0.273 OA
ATOM     29  N6  <0> d          -0.848  -7.046  -7.277  0.00  0.00    -0.358 N 
ATOM     30  H23 <0> d          -1.794  -6.891  -7.427  0.00  0.00     0.162 HD
BRANCH  29  31
ATOM     31  C19 <0> d          -0.257  -8.344  -7.610  0.00  0.00     0.154 C 
BRANCH  31  32
ATOM     32  C20 <0> d          -1.339  -9.269  -8.172  0.00  0.00     0.139 C 
ATOM     33  O3  <0> d          -1.798  -8.768  -9.433  0.00  0.00    -0.384 OA
ATOM     34  C23 <0> d          -1.516  -9.724 -10.470  0.00  0.00     0.168 C 
ATOM     35  C22 <0> d          -1.428 -11.091  -9.747  0.00  0.00     0.029 C 
ATOM     36  C21 <0> d          -0.752 -10.676  -8.412  0.00  0.00     0.035 C 
ENDBRANCH  31  32
ENDBRANCH  29  31
ENDBRANCH   5  27
TORSDOF 4
