REMARK  2 active torsions:
REMARK  status: ('A' for Active; 'I' for Inactive)
REMARK    1  A    between atoms: C6_6  and  C10_17 
REMARK    2  A    between atoms: C8_10  and  C9_12 
ROOT
ATOM      1  C1  <0> d          -0.019   1.526   0.010  0.00  0.00     0.015 C 
ATOM      2  C2  <0> d           0.002  -0.004   0.002  0.00  0.00    -0.036 C 
ATOM      3  C3  <0> d          -1.431  -0.539   0.041  0.00  0.00     0.067 C 
ATOM      4  C4  <0> d          -1.409  -2.049   0.077  0.00  0.00     0.040 C 
ATOM      5  C5  <0> d          -0.393  -2.714   0.667  0.00  0.00     0.041 C 
ATOM      6  C6  <0> d          -0.342  -4.226   0.717  0.00  0.00     0.200 C 
ATOM      7  N1  <0> d          -1.641  -4.780   0.360  0.00  0.00    -0.083 N 
ATOM      8  C7  <0> d          -2.628  -4.054  -0.222  0.00  0.00     0.726 A 
ATOM      9  N2  <0> d          -3.649  -4.844  -0.415  0.00  0.00    -0.036 NA
ATOM     10  C8  <0> d          -3.356  -6.070   0.031  0.00  0.00     0.271 A 
ATOM     11  N3  <0> d          -2.138  -6.074   0.513  0.00  0.00    -0.131 NA
ATOM     12  N4  <0> d          -2.464  -2.709  -0.507  0.00  0.00    -0.191 N 
ATOM     13  C16 <0> d           0.675  -2.019   1.263  0.00  0.00     0.160 C 
ATOM     14  O1  <0> d           1.564  -2.646   1.806  0.00  0.00    -0.293 OA
ATOM     15  C17 <0> d           0.742  -0.517   1.242  0.00  0.00     0.092 C 
ATOM     16  C18 <0> d           0.706  -0.503  -1.262  0.00  0.00     0.015 C 
ATOM     17  H7  <0> d          -3.075  -2.246  -1.101  0.00  0.00     0.184 HD
ENDROOT
BRANCH   6  18
ATOM     18  C10 <0> d           0.696  -4.724  -0.255  0.00  0.00    -0.028 A 
ATOM     19  C15 <0> d           1.769  -5.468   0.201  0.00  0.00     0.011 A 
ATOM     20  C14 <0> d           2.718  -5.930  -0.691  0.00  0.00     0.024 A 
ATOM     21  C13 <0> d           2.601  -5.638  -2.039  0.00  0.00     0.034 A 
ATOM     22  C12 <0> d           1.531  -4.889  -2.493  0.00  0.00     0.024 A 
ATOM     23 Cl1  <0> d           3.797  -6.212  -3.158  0.00  0.00    -0.084 Cl
ATOM     24  C11 <0> d           0.579  -4.432  -1.601  0.00  0.00     0.011 A 
ENDBRANCH   6  18
BRANCH  10  25
ATOM     25  C9  <0> d          -4.281  -7.259  -0.015  0.00  0.00     0.455 C 
ATOM     26  F1  <0> d          -5.343  -6.991  -0.886  0.00  0.00    -0.163 F 
ATOM     27  F2  <0> d          -3.577  -8.380  -0.469  0.00  0.00    -0.163 F 
ATOM     28  F3  <0> d          -4.782  -7.510   1.266  0.00  0.00    -0.163 F 
ENDBRANCH  10  25
TORSDOF 2
