REMARK  4 active torsions:
REMARK  status: ('A' for Active; 'I' for Inactive)
REMARK    1  A    between atoms: C2_2  and  C3_3 
REMARK    2  A    between atoms: C2_2  and  N2_9 
REMARK       I    between atoms: C3_3  and  N1_5 
REMARK    3  A    between atoms: N1_5  and  C4_6 
REMARK    4  A    between atoms: C10_13  and  C12_15 
ROOT
ATOM      1  C4  <0> d          -3.652  -0.921  -0.678  0.00  0.00     0.216 C 
ATOM      2  C5  <0> d          -4.514  -0.403  -1.753  0.00  0.00    -0.098 C 
ATOM      3  C6  <0> d          -5.202   0.009  -2.611  0.00  0.00     0.014 C 
ENDROOT
BRANCH   1   4
ATOM      4  N1  <0> d          -2.325  -0.308  -0.780  0.00  0.00    -0.349 N 
ATOM      5  C3  <0> d          -1.363  -0.634   0.106  0.00  0.00     0.249 C 
ATOM      6  O1  <0> d          -1.596  -1.434   0.987  0.00  0.00    -0.271 OA
ATOM      7  H6  <0> d          -2.139   0.332  -1.484  0.00  0.00     0.163 HD
BRANCH   5   8
ATOM      8  C2  <0> d           0.002  -0.004   0.002  0.00  0.00     0.275 C 
ATOM      9  C1  <0> d           0.013   1.319   0.771  0.00  0.00     0.050 C 
BRANCH   8  10
ATOM     10  N2  <0> d           1.005  -0.912   0.574  0.00  0.00    -0.058 N 
ATOM     11  C11 <0> d           1.018  -2.167  -0.187  0.00  0.00     0.251 C 
ATOM     12  C10 <0> d           2.004  -3.146   0.454  0.00  0.00     0.112 C 
ATOM     13  C9  <0> d           3.405  -2.529   0.448  0.00  0.00     0.019 C 
ATOM     14  C8  <0> d           3.364  -1.185   1.181  0.00  0.00     0.029 C 
ATOM     15  C7  <0> d           2.328  -0.278   0.513  0.00  0.00     0.236 C 
ATOM     16  H18 <0> d           0.772  -1.106   1.536  0.00  0.00     0.281 HD
BRANCH  12  17
ATOM     17  C12 <0> d           2.017  -4.433  -0.330  0.00  0.00     0.178 C 
ATOM     18  O2  <0> d           2.744  -5.350   0.015  0.00  0.00    -0.648 OA
ATOM     19  O3  <0> d           1.302  -4.558  -1.310  0.00  0.00    -0.648 OA
ENDBRANCH  12  17
ENDBRANCH   8  10
ENDBRANCH   5   8
ENDBRANCH   1   4
TORSDOF 4
