REMARK  3 active torsions:
REMARK  status: ('A' for Active; 'I' for Inactive)
REMARK    1  A    between atoms: N2_9  and  N3_12 
REMARK       I    between atoms: N3_12  and  C8_13 
REMARK    2  A    between atoms: C8_13  and  C9_15 
REMARK    3  A    between atoms: C9_15  and  N4_17 
ROOT
ATOM      1  N3  <0> d           3.105  -3.892  -0.050  0.00  0.00    -0.257 N 
ATOM      2  C8  <0> d           2.930  -4.605  -1.180  0.00  0.00     0.261 C 
ATOM      3  O2  <0> d           2.535  -4.058  -2.188  0.00  0.00    -0.269 OA
ATOM      4  H6  <0> d           3.463  -4.388   0.864  0.00  0.00     0.190 HD
ENDROOT
BRANCH   1   5
ATOM      5  N2  <0> d           2.830  -2.518  -0.039  0.00  0.00    -0.203 N 
ATOM      6  C6  <0> d           3.860  -1.633  -0.044  0.00  0.00     0.126 A 
ATOM      7  N1  <0> d           3.645  -0.345  -0.035  0.00  0.00    -0.226 NA
ATOM      8  C15 <0> d           5.277  -2.147  -0.061  0.00  0.00     0.093 C 
ATOM      9  C5  <0> d           2.408   0.142  -0.020  0.00  0.00     0.115 A 
ATOM     10  C4  <0> d           1.278  -0.695  -0.014  0.00  0.00     0.071 A 
ATOM     11  S1  <0> d           1.712   1.775  -0.005  0.00  0.00    -0.074 SA
ATOM     12  C3  <0> d           0.002  -0.004   0.002  0.00  0.00     0.034 A 
ATOM     13  C7  <0> d           1.550  -2.102  -0.025  0.00  0.00     0.281 A 
ATOM     14  C2  <0> d          -0.016   1.338   0.009  0.00  0.00    -0.018 A 
ATOM     15  C1  <0> d          -1.211   2.256   0.020  0.00  0.00     0.056 C 
ATOM     16  O1  <0> d           0.636  -2.909  -0.021  0.00  0.00    -0.265 OA
ENDBRANCH   1   5
BRANCH   2  17
ATOM     17  C9  <0> d           3.226  -6.083  -1.192  0.00  0.00     0.199 C 
ATOM     18  C10 <0> d           4.696  -6.311  -0.834  0.00  0.00     0.044 C 
BRANCH  17  19
ATOM     19  N4  <0> d           2.958  -6.624  -2.527  0.00  0.00    -0.260 N 
ATOM     20  N5  <0> d           3.575  -6.221  -3.718  0.00  0.00    -0.182 NA
ATOM     21  C13 <0> d           3.079  -6.933  -4.697  0.00  0.00     0.160 A 
ATOM     22  C12 <0> d           2.124  -7.805  -4.163  0.00  0.00     0.054 A 
ATOM     23  C11 <0> d           2.069  -7.594  -2.827  0.00  0.00     0.046 A 
ATOM     24 Br1  <0> d           1.091  -9.055  -5.136  0.00  0.00    -0.047 Br
ATOM     25  C14 <0> d           1.175  -8.314  -1.850  0.00  0.00     0.071 C 
ENDBRANCH  17  19
ENDBRANCH   2  17
TORSDOF 3
