REMARK  10 active torsions:
REMARK  status: ('A' for Active; 'I' for Inactive)
REMARK       I    between atoms: C2_2  and  N1_4 
REMARK    1  A    between atoms: N1_4  and  C4_6 
REMARK    2  A    between atoms: C4_6  and  C5_7 
REMARK    3  A    between atoms: C10_12  and  N2_13 
REMARK       I    between atoms: N2_13  and  C11_14 
REMARK    4  A    between atoms: C11_14  and  C12_16 
REMARK       I    between atoms: C12_16  and  N3_18 
REMARK    5  A    between atoms: N3_18  and  C13_19 
REMARK    6  A    between atoms: C13_19  and  C14_20 
REMARK    7  A    between atoms: C14_20  and  C15_21 
REMARK    8  A    between atoms: C14_20  and  O5_29 
REMARK    9  A    between atoms: C15_21  and  O4_22 
REMARK   10  A    between atoms: O4_22  and  C16_23 
ROOT
ATOM      1  N2  <0> d          -2.626  -3.275  -3.165  0.00  0.00    -0.318 N 
ATOM      2  C11 <0> d          -3.399  -3.303  -4.268  0.00  0.00     0.313 C 
ATOM      3  O2  <0> d          -4.607  -3.239  -4.164  0.00  0.00    -0.262 OA
ATOM      4  H14 <0> d          -1.660  -3.247  -3.251  0.00  0.00     0.169 HD
ENDROOT
BRANCH   2   5
ATOM      5  C12 <0> d          -2.771  -3.412  -5.619  0.00  0.00     0.309 C 
ATOM      6  O3  <0> d          -1.563  -3.476  -5.723  0.00  0.00    -0.262 OA
ATOM      7  N3  <0> d          -3.544  -3.439  -6.722  0.00  0.00    -0.350 N 
ATOM      8  H15 <0> d          -4.509  -3.388  -6.639  0.00  0.00     0.163 HD
BRANCH   7   9
ATOM      9  C13 <0> d          -2.928  -3.546  -8.047  0.00  0.00     0.157 C 
BRANCH   9  10
ATOM     10  C14 <0> d          -4.020  -3.557  -9.118  0.00  0.00     0.160 C 
BRANCH  10  11
ATOM     11  C15 <0> d          -3.386  -3.794 -10.490  0.00  0.00     0.209 C 
BRANCH  11  12
ATOM     12  O4  <0> d          -4.414  -3.920 -11.475  0.00  0.00    -0.349 OA
BRANCH  12  13
ATOM     13  C16 <0> d          -4.017  -4.135 -12.757  0.00  0.00     0.068 A 
ATOM     14  C21 <0> d          -4.963  -4.267 -13.763  0.00  0.00     0.037 A 
ATOM     15  C20 <0> d          -4.557  -4.480 -15.067  0.00  0.00     0.003 A 
ATOM     16  C19 <0> d          -3.210  -4.574 -15.366  0.00  0.00     0.000 A 
ATOM     17  C18 <0> d          -2.266  -4.448 -14.364  0.00  0.00     0.003 A 
ATOM     18  C17 <0> d          -2.667  -4.229 -13.060  0.00  0.00     0.037 A 
ENDBRANCH  12  13
ENDBRANCH  11  12
ENDBRANCH  10  11
BRANCH  10  19
ATOM     19  O5  <0> d          -4.699  -2.300  -9.118  0.00  0.00    -0.392 OA
ATOM     20  H25 <0> d          -4.127  -1.543  -9.302  0.00  0.00     0.210 HD
ENDBRANCH  10  19
ENDBRANCH   9  10
ENDBRANCH   7   9
ENDBRANCH   2   5
BRANCH   1  21
ATOM     21  C10 <0> d          -3.215  -3.287  -1.898  0.00  0.00     0.043 A 
ATOM     22  C5  <0> d          -2.504  -2.829  -0.796  0.00  0.00    -0.013 A 
ATOM     23  C6  <0> d          -3.092  -2.837   0.454  0.00  0.00     0.011 A 
ATOM     24  C7  <0> d          -4.383  -3.305   0.610  0.00  0.00     0.001 A 
ATOM     25  C8  <0> d          -5.091  -3.768  -0.484  0.00  0.00     0.002 A 
ATOM     26  C9  <0> d          -4.510  -3.763  -1.737  0.00  0.00     0.030 A 
BRANCH  22  27
ATOM     27  C4  <0> d          -1.097  -2.318  -0.965  0.00  0.00     0.166 C 
BRANCH  27  28
ATOM     28  N1  <0> d          -1.133  -0.944  -1.474  0.00  0.00    -0.352 N 
ATOM     29  C2  <0> d          -1.304   0.086  -0.622  0.00  0.00     0.215 C 
ATOM     30  C1  <0> d          -1.446   1.488  -1.154  0.00  0.00     0.117 C 
ATOM     31  O1  <0> d          -1.344  -0.116   0.574  0.00  0.00    -0.274 OA
ATOM     32  C3  <0> d          -0.984  -0.691  -2.909  0.00  0.00     0.152 C 
ENDBRANCH  27  28
ENDBRANCH  22  27
ENDBRANCH   1  21
TORSDOF 10
