REMARK  9 active torsions:
REMARK  status: ('A' for Active; 'I' for Inactive)
REMARK    1  A    between atoms: O1_2  and  C2_3 
REMARK    2  A    between atoms: C5_6  and  N1_11 
REMARK    3  A    between atoms: C6_7  and  O2_9 
REMARK       I    between atoms: N1_11  and  C9_12 
REMARK    4  A    between atoms: C9_12  and  C10_14 
REMARK       I    between atoms: C10_14  and  N2_16 
REMARK    5  A    between atoms: N2_16  and  N3_17 
REMARK    6  A    between atoms: C11_18  and  C12_19 
REMARK    7  A    between atoms: C15_22  and  O5_25 
REMARK    8  A    between atoms: O5_25  and  C18_26 
REMARK    9  A    between atoms: C18_26  and  C19_27 
REMARK       I    between atoms: C19_27  and  N4_29 
ROOT
ATOM      1  C10 <0> d           3.483  -2.367  -6.543  0.00  0.00     0.329 C 
ATOM      2  O4  <0> d           3.526  -3.580  -6.607  0.00  0.00    -0.261 OA
ATOM      3  N2  <0> d           3.943  -1.622  -7.567  0.00  0.00    -0.239 N 
ATOM      4  H11 <0> d           3.909  -0.654  -7.516  0.00  0.00     0.192 HD
ENDROOT
BRANCH   3   5
ATOM      5  N3  <0> d           4.471  -2.245  -8.706  0.00  0.00    -0.183 NA
ATOM      6  C11 <0> d           4.914  -1.527  -9.693  0.00  0.00     0.150 C 
BRANCH   6   7
ATOM      7  C12 <0> d           5.469  -2.182 -10.890  0.00  0.00    -0.017 A 
ATOM      8  C17 <0> d           5.946  -1.411 -11.954  0.00  0.00     0.015 A 
ATOM      9  C16 <0> d           6.470  -2.029 -13.069  0.00  0.00     0.037 A 
ATOM     10  C15 <0> d           6.513  -3.416 -13.142  0.00  0.00     0.069 A 
ATOM     11  C14 <0> d           6.034  -4.186 -12.090  0.00  0.00     0.037 A 
ATOM     12  C13 <0> d           5.514  -3.577 -10.968  0.00  0.00     0.015 A 
BRANCH  10  13
ATOM     13  O5  <0> d           7.024  -4.020 -14.245  0.00  0.00    -0.342 OA
BRANCH  13  14
ATOM     14  C18 <0> d           7.499  -3.168 -15.290  0.00  0.00     0.278 C 
BRANCH  14  15
ATOM     15  C19 <0> d           8.026  -4.010 -16.424  0.00  0.00     0.239 C 
ATOM     16  O6  <0> d           7.998  -5.220 -16.345  0.00  0.00    -0.271 OA
ATOM     17  N4  <0> d           8.529  -3.418 -17.525  0.00  0.00    -0.368 N 
ATOM     18  H19 <0> d           8.551  -2.450 -17.589  0.00  0.00     0.159 HD
ATOM     19  H20 <0> d           8.868  -3.960 -18.255  0.00  0.00     0.159 HD
ENDBRANCH  14  15
ENDBRANCH  13  14
ENDBRANCH  10  13
ENDBRANCH   6   7
ENDBRANCH   3   5
BRANCH   1  20
ATOM     20  C9  <0> d           2.922  -1.704  -5.332  0.00  0.00     0.315 C 
ATOM     21  N1  <0> d           2.462  -2.450  -4.308  0.00  0.00    -0.316 N 
ATOM     22  H10 <0> d           2.569  -3.414  -4.323  0.00  0.00     0.169 HD
ATOM     23  O3  <0> d           2.879  -0.492  -5.268  0.00  0.00    -0.262 OA
BRANCH  21  24
ATOM     24  C5  <0> d           1.829  -1.833  -3.221  0.00  0.00     0.069 A 
ATOM     25  C4  <0> d           1.216  -0.598  -3.384  0.00  0.00     0.035 A 
ATOM     26  C3  <0> d           0.591   0.010  -2.312  0.00  0.00     0.039 A 
ATOM     27  C2  <0> d           0.576  -0.611  -1.071  0.00  0.00     0.070 A 
ATOM     28  C7  <0> d           1.193  -1.842  -0.902  0.00  0.00     0.075 A 
ATOM     29  C6  <0> d           1.815  -2.457  -1.975  0.00  0.00     0.097 A 
BRANCH  27  30
ATOM     30  O1  <0> d          -0.039  -0.009  -0.019  0.00  0.00    -0.356 OA
ATOM     31  C1  <0> d          -0.654   1.257  -0.264  0.00  0.00     0.210 C 
ENDBRANCH  27  30
BRANCH  29  32
ATOM     32  O2  <0> d           2.415  -3.666  -1.813  0.00  0.00    -0.354 OA
ATOM     33  C8  <0> d           2.361  -4.247  -0.508  0.00  0.00     0.210 C 
ENDBRANCH  29  32
ENDBRANCH  21  24
ENDBRANCH   1  20
TORSDOF 9
