REMARK  5 active torsions:
REMARK  status: ('A' for Active; 'I' for Inactive)
REMARK    1  A    between atoms: C7_7  and  N1_8 
REMARK       I    between atoms: N1_8  and  C8_9 
REMARK    2  A    between atoms: C8_9  and  C9_11 
REMARK    3  A    between atoms: C9_11  and  N5_30 
REMARK       I    between atoms: N2_14  and  C14_17 
REMARK    4  A    between atoms: C14_17  and  C15_19 
REMARK    5  A    between atoms: C15_19  and  C16_20 
ROOT
ATOM      1  C10 <0> d          -2.628  -2.534   1.704  0.00  0.00     0.255 C 
ATOM      2  C11 <0> d          -4.058  -3.024   1.953  0.00  0.00     0.153 C 
ATOM      3  N2  <0> d          -4.140  -4.441   1.570  0.00  0.00    -0.349 N 
ATOM      4  C12 <0> d          -3.650  -4.832   0.240  0.00  0.00     0.153 C 
ATOM      5  C13 <0> d          -2.235  -4.271   0.058  0.00  0.00     0.255 C 
ATOM      6  C14 <0> d          -4.651  -5.358   2.416  0.00  0.00     0.225 C 
ATOM      7  O2  <0> d          -4.711  -6.523   2.083  0.00  0.00    -0.273 OA
ATOM      8  N5  <0> d          -2.269  -2.812   0.296  0.00  0.00    -0.060 N 
ATOM      9  H26 <0> d          -2.977  -2.391  -0.317  0.00  0.00     0.280 HD
ENDROOT
BRANCH   8  10
ATOM     10  C9  <0> d          -0.952  -2.219  -0.015  0.00  0.00     0.337 C 
BRANCH  10  11
ATOM     11  C8  <0> d          -1.074  -0.718   0.025  0.00  0.00     0.248 C 
ATOM     12  N1  <0> d          -0.002   0.053  -0.246  0.00  0.00    -0.325 N 
ATOM     13  H7  <0> d           0.829  -0.356  -0.536  0.00  0.00     0.169 HD
ATOM     14  O1  <0> d          -2.137  -0.203   0.300  0.00  0.00    -0.271 OA
BRANCH  12  15
ATOM     15  C7  <0> d          -0.087   1.443  -0.110  0.00  0.00     0.046 A 
ATOM     16  C2  <0> d          -1.058   2.152  -0.804  0.00  0.00    -0.035 A 
ATOM     17  C1  <0> d          -2.021   1.426  -1.707  0.00  0.00     0.050 C 
ATOM     18  C3  <0> d          -1.143   3.523  -0.662  0.00  0.00     0.009 A 
ATOM     19  C4  <0> d          -0.255   4.191   0.161  0.00  0.00     0.001 A 
ATOM     20  C5  <0> d           0.717   3.489   0.850  0.00  0.00     0.009 A 
ATOM     21  C6  <0> d           0.803   2.116   0.717  0.00  0.00    -0.035 A 
ATOM     22  C21 <0> d           1.862   1.351   1.468  0.00  0.00     0.050 C 
ENDBRANCH  12  15
ENDBRANCH  10  11
ENDBRANCH   8  10
BRANCH   6  23
ATOM     23  C15 <0> d          -5.148  -4.936   3.774  0.00  0.00     0.163 C 
BRANCH  23  24
ATOM     24  C16 <0> d          -5.665  -6.141   4.517  0.00  0.00     0.062 A 
ATOM     25  N4  <0> d          -6.604  -6.992   4.075  0.00  0.00    -0.227 NA
ATOM     26  C20 <0> d          -6.799  -7.910   4.977  0.00  0.00     0.177 A 
ATOM     27  N3  <0> d          -5.985  -7.692   6.057  0.00  0.00    -0.309 N 
ATOM     28  S1  <0> d          -7.688  -9.377   5.445  0.00  0.00    -0.062 SA
ATOM     29  C17 <0> d          -5.261  -6.549   5.731  0.00  0.00     0.126 A 
ATOM     30  C18 <0> d          -6.079  -8.588   7.099  0.00  0.00     0.106 A 
ATOM     31  C19 <0> d          -6.927  -9.614   7.043  0.00  0.00     0.071 A 
ENDBRANCH  23  24
ENDBRANCH   6  23
TORSDOF 5
