REMARK  8 active torsions:
REMARK  status: ('A' for Active; 'I' for Inactive)
REMARK    1  A    between atoms: C2_2  and  S1_3 
REMARK    2  A    between atoms: S1_3  and  C3_4 
REMARK    3  A    between atoms: C4_5  and  C8_10 
REMARK       I    between atoms: C8_10  and  N2_12 
REMARK    4  A    between atoms: C10_14  and  C17_22 
REMARK       I    between atoms: C17_22  and  N4_24 
REMARK    5  A    between atoms: N4_24  and  C18_25 
REMARK    6  A    between atoms: C18_25  and  C19_26 
REMARK    7  A    between atoms: C19_26  and  C20_27 
REMARK    8  A    between atoms: C19_26  and  N6_33 
ROOT
ATOM      1  C8  <0> d           1.990  -2.356  -3.685  0.00  0.00     0.256 C 
ATOM      2  O1  <0> d           2.105  -1.169  -3.920  0.00  0.00    -0.267 OA
ATOM      3  N2  <0> d           2.641  -3.259  -4.444  0.00  0.00    -0.346 N 
ATOM      4  C9  <0> d           2.570  -4.737  -4.359  0.00  0.00     0.141 C 
ATOM      5  C10 <0> d           2.582  -5.214  -5.829  0.00  0.00     0.106 C 
ATOM      6  C11 <0> d           3.254  -4.070  -6.607  0.00  0.00    -0.007 C 
ATOM      7  C12 <0> d           3.585  -2.999  -5.557  0.00  0.00     0.136 C 
ATOM      8  C13 <0> d           4.531  -4.566  -7.278  0.00  0.00     0.039 C 
ATOM      9  C14 <0> d           5.150  -3.426  -8.093  0.00  0.00     0.233 C 
ATOM     10  N3  <0> d           4.189  -2.967  -9.103  0.00  0.00    -0.075 N 
ATOM     11  C15 <0> d           3.002  -2.405  -8.446  0.00  0.00     0.233 C 
ATOM     12  C16 <0> d           2.293  -3.502  -7.647  0.00  0.00     0.039 C 
ATOM     13  H19 <0> d           4.621  -2.258  -9.678  0.00  0.00     0.277 HD
ATOM     14  H39 <0> d           3.915  -3.745  -9.683  0.00  0.00     0.277 HD
ENDROOT
BRANCH   5  15
ATOM     15  C17 <0> d           1.174  -5.430  -6.322  0.00  0.00     0.224 C 
ATOM     16  O2  <0> d           0.274  -4.730  -5.911  0.00  0.00    -0.273 OA
ATOM     17  N4  <0> d           0.916  -6.402  -7.219  0.00  0.00    -0.358 N 
ATOM     18  H24 <0> d           1.645  -6.916  -7.600  0.00  0.00     0.162 HD
BRANCH  17  19
ATOM     19  C18 <0> d          -0.465  -6.683  -7.619  0.00  0.00     0.160 C 
BRANCH  19  20
ATOM     20  C19 <0> d          -0.490  -7.896  -8.550  0.00  0.00     0.240 C 
BRANCH  20  21
ATOM     21  C20 <0> d           0.213  -7.556  -9.838  0.00  0.00    -0.008 A 
ATOM     22  C24 <0> d          -0.438  -6.837 -10.822  0.00  0.00     0.125 A 
ATOM     23  N5  <0> d           0.173  -6.529 -11.950  0.00  0.00    -0.273 NA
ATOM     24  C23 <0> d           1.415  -6.903 -12.189  0.00  0.00     0.116 A 
ATOM     25  C22 <0> d           2.127  -7.630 -11.255  0.00  0.00     0.020 A 
ATOM     26  C21 <0> d           1.520  -7.966 -10.054  0.00  0.00     0.012 A 
ENDBRANCH  20  21
BRANCH  20  27
ATOM     27  N6  <0> d          -1.883  -8.266  -8.835  0.00  0.00    -0.061 N 
ATOM     28  C28 <0> d          -2.600  -8.560  -7.575  0.00  0.00     0.236 C 
ATOM     29  C27 <0> d          -3.585  -9.707  -7.874  0.00  0.00     0.029 C 
ATOM     30  C26 <0> d          -3.356 -10.059  -9.362  0.00  0.00     0.029 C 
ATOM     31  C25 <0> d          -1.928  -9.520  -9.629  0.00  0.00     0.236 C 
ATOM     32  H40 <0> d          -2.346  -7.521  -9.333  0.00  0.00     0.280 HD
ENDBRANCH  20  27
ENDBRANCH  19  20
ENDBRANCH  17  19
ENDBRANCH   5  15
BRANCH   1  33
ATOM     33  C4  <0> d           1.139  -2.808  -2.570  0.00  0.00     0.067 A 
ATOM     34  C3  <0> d           0.131  -1.973  -2.054  0.00  0.00     0.108 A 
ATOM     35  N1  <0> d          -0.627  -2.383  -1.048  0.00  0.00    -0.253 NA
ATOM     36  C7  <0> d          -0.476  -3.575  -0.506  0.00  0.00     0.118 A 
ATOM     37  C6  <0> d           0.493  -4.452  -0.959  0.00  0.00     0.020 A 
ATOM     38  C5  <0> d           1.318  -4.075  -2.004  0.00  0.00     0.021 A 
BRANCH  34  39
ATOM     39  S1  <0> d          -0.118  -0.371  -2.744  0.00  0.00    -0.110 SA
BRANCH  39  40
ATOM     40  C2  <0> d          -1.486   0.318  -1.771  0.00  0.00     0.076 C 
ATOM     41  C1  <0> d          -1.810   1.726  -2.273  0.00  0.00     0.016 C 
ENDBRANCH  39  40
ENDBRANCH  34  39
ENDBRANCH   1  33
TORSDOF 8
