REMARK  9 active torsions:
REMARK  status: ('A' for Active; 'I' for Inactive)
REMARK    1  A    between atoms: C2_2  and  C3_3 
REMARK    2  A    between atoms: C2_2  and  O3_14 
REMARK       I    between atoms: C3_3  and  N1_5 
REMARK    3  A    between atoms: N1_5  and  C4_6 
REMARK    4  A    between atoms: C5_7  and  C8_11 
REMARK       I    between atoms: C8_11  and  N2_13 
REMARK    5  A    between atoms: O3_14  and  C9_15 
REMARK    6  A    between atoms: C9_15  and  C10_17 
REMARK    7  A    between atoms: C10_17  and  C11_18 
REMARK    8  A    between atoms: C10_17  and  N3_21 
REMARK       I    between atoms: N3_21  and  C14_22 
REMARK    9  A    between atoms: C14_22  and  C15_24 
ROOT
ATOM      1  C1  <0> d          -0.019   1.526   0.010  0.00  0.00     0.050 C 
ATOM      2  C2  <0> d           0.002  -0.004   0.002  0.00  0.00     0.220 C 
ENDROOT
BRANCH   2   3
ATOM      3  C3  <0> d          -1.412  -0.526   0.013  0.00  0.00     0.251 C 
ATOM      4  O1  <0> d          -1.836  -1.147  -0.939  0.00  0.00    -0.270 OA
ATOM      5  N1  <0> d          -2.204  -0.302   1.079  0.00  0.00    -0.318 N 
ATOM      6  H6  <0> d          -1.865   0.195   1.840  0.00  0.00     0.169 HD
BRANCH   5   7
ATOM      7  C4  <0> d          -3.505  -0.782   1.089  0.00  0.00     0.092 A 
ATOM      8  S1  <0> d          -4.291  -1.657  -0.108  0.00  0.00    -0.083 SA
ATOM      9  C7  <0> d          -5.881  -1.879   0.659  0.00  0.00     0.053 A 
ATOM     10  C6  <0> d          -5.747  -1.247   1.840  0.00  0.00     0.027 A 
ATOM     11  C5  <0> d          -4.458  -0.644   2.088  0.00  0.00     0.066 A 
BRANCH  11  12
ATOM     12  C8  <0> d          -4.171   0.077   3.333  0.00  0.00     0.252 C 
ATOM     13  O2  <0> d          -3.073   0.573   3.510  0.00  0.00    -0.268 OA
ATOM     14  N2  <0> d          -5.122   0.190   4.281  0.00  0.00    -0.366 N 
ATOM     15  H9  <0> d          -5.997  -0.205   4.140  0.00  0.00     0.159 HD
ATOM     16  H10 <0> d          -4.932   0.667   5.104  0.00  0.00     0.159 HD
ENDBRANCH  11  12
ENDBRANCH   5   7
ENDBRANCH   2   3
BRANCH   2  17
ATOM     17  O3  <0> d           0.671  -0.465  -1.174  0.00  0.00    -0.305 OA
BRANCH  17  18
ATOM     18  C9  <0> d           1.998  -0.651  -1.087  0.00  0.00     0.283 C 
ATOM     19  O4  <0> d           2.572  -0.429  -0.047  0.00  0.00    -0.263 OA
BRANCH  18  20
ATOM     20  C10 <0> d           2.771  -1.135  -2.286  0.00  0.00     0.188 C 
BRANCH  20  21
ATOM     21  C11 <0> d           2.234  -2.500  -2.721  0.00  0.00     0.010 C 
ATOM     22  C12 <0> d           3.019  -2.992  -3.939  0.00  0.00     0.012 C 
ATOM     23  C13 <0> d           2.393  -3.500  -1.574  0.00  0.00     0.012 C 
ENDBRANCH  20  21
BRANCH  20  24
ATOM     24  N3  <0> d           4.188  -1.256  -1.937  0.00  0.00    -0.341 N 
ATOM     25  C14 <0> d           5.128  -1.175  -2.899  0.00  0.00     0.276 C 
ATOM     26  O5  <0> d           4.800  -1.001  -4.058  0.00  0.00    -0.265 OA
ATOM     27  H18 <0> d           4.450  -1.395  -1.014  0.00  0.00     0.163 HD
BRANCH  25  28
ATOM     28  C15 <0> d           6.548  -1.296  -2.550  0.00  0.00     0.142 A 
ATOM     29  O6  <0> d           7.045  -1.490  -1.311  0.00  0.00    -0.317 OA
ATOM     30  C18 <0> d           8.382  -1.554  -1.373  0.00  0.00     0.143 A 
ATOM     31  C17 <0> d           8.765  -1.393  -2.659  0.00  0.00     0.027 A 
ATOM     32  C16 <0> d           7.597  -1.228  -3.421  0.00  0.00     0.045 A 
ENDBRANCH  25  28
ENDBRANCH  20  24
ENDBRANCH  18  20
ENDBRANCH  17  18
ENDBRANCH   2  17
TORSDOF 9
