REMARK  4 active torsions:
REMARK  status: ('A' for Active; 'I' for Inactive)
REMARK    1  A    between atoms: C4_5  and  C25_32 
REMARK    2  A    between atoms: C14_17  and  O7_29 
REMARK    3  A    between atoms: C19_23  and  O6_26 
REMARK    4  A    between atoms: C25_32  and  O9_34 
ROOT
ATOM      1  C1  <0> d           3.050  -0.844   1.822  0.00  0.00     0.048 C 
ATOM      2  C2  <0> d           2.065  -1.864   1.226  0.00  0.00     0.198 C 
ATOM      3  C3  <0> d           0.772  -1.152   0.892  0.00  0.00     0.177 C 
ATOM      4  O1  <0> d           0.796   0.043   0.652  0.00  0.00    -0.294 OA
ATOM      5  C4  <0> d          -0.535  -1.909   0.899  0.00  0.00     0.146 C 
ATOM      6  C5  <0> d          -1.447  -1.551  -0.264  0.00  0.00     0.054 C 
ATOM      7  C6  <0> d          -2.394  -2.679  -0.626  0.00  0.00     0.022 C 
ATOM      8  C7  <0> d          -2.771  -3.518   0.599  0.00  0.00     0.041 C 
ATOM      9  C8  <0> d          -1.514  -4.172   1.150  0.00  0.00    -0.069 C 
ATOM     10  C9  <0> d          -1.567  -5.373   1.688  0.00  0.00     0.015 C 
ATOM     11  C10 <0> d          -0.229  -3.401   1.013  0.00  0.00     0.092 C 
ATOM     12  C11 <0> d           0.668  -3.544   2.224  0.00  0.00     0.274 C 
ATOM     13  O2  <0> d           0.355  -4.183   3.198  0.00  0.00    -0.264 OA
ATOM     14  O3  <0> d           1.857  -2.906   2.174  0.00  0.00    -0.308 OA
ATOM     15  C12 <0> d           0.527  -3.948  -0.203  0.00  0.00     0.033 C 
ATOM     16  C13 <0> d          -3.659  -2.278  -1.366  0.00  0.00     0.015 C 
ATOM     17  C14 <0> d          -4.614  -3.479  -1.377  0.00  0.00     0.138 C 
ATOM     18  C15 <0> d          -5.833  -3.181  -2.242  0.00  0.00     0.112 C 
ATOM     19  C16 <0> d          -6.514  -1.929  -1.776  0.00  0.00     0.141 C 
ATOM     20  O4  <0> d          -7.693  -1.759  -2.076  0.00  0.00    -0.297 OA
ATOM     21  C17 <0> d          -5.833  -0.865  -0.955  0.00  0.00     0.040 C 
ATOM     22  C18 <0> d          -4.349  -1.081  -0.787  0.00  0.00    -0.017 C 
ATOM     23  C19 <0> d          -3.643  -0.165  -0.113  0.00  0.00     0.117 C 
ATOM     24  C20 <0> d          -2.191  -0.280   0.060  0.00  0.00     0.193 C 
ATOM     25  O5  <0> d          -1.575   0.717   0.442  0.00  0.00    -0.289 OA
ATOM     26  C21 <0> d          -6.516  -0.819   0.424  0.00  0.00     0.028 C 
ATOM     27  C22 <0> d          -6.081   0.485  -1.659  0.00  0.00     0.028 C 
ATOM     28  C23 <0> d          -3.304  -1.970  -2.821  0.00  0.00     0.023 C 
ATOM     29  C24 <0> d          -0.546  -1.246  -1.483  0.00  0.00     0.026 C 
ENDROOT
BRANCH   5  30
ATOM     30  C25 <0> d          -1.230  -1.495   2.186  0.00  0.00     0.277 C 
ATOM     31  O8  <0> d          -1.673  -2.337   2.931  0.00  0.00    -0.264 OA
BRANCH  30  32
ATOM     32  O9  <0> d          -1.352  -0.195   2.495  0.00  0.00    -0.325 OA
ATOM     33  C26 <0> d          -2.017   0.122   3.720  0.00  0.00     0.213 C 
ENDBRANCH  30  32
ENDBRANCH   5  30
BRANCH  23  34
ATOM     34  O6  <0> d          -4.250   0.921   0.452  0.00  0.00    -0.357 OA
ATOM     35  H16 <0> d          -3.642   1.515   0.914  0.00  0.00     0.218 HD
ENDBRANCH  23  34
BRANCH  17  36
ATOM     36  O7  <0> d          -3.934  -4.621  -1.909  0.00  0.00    -0.394 OA
ATOM     37  H23 <0> d          -4.478  -5.420  -1.946  0.00  0.00     0.210 HD
ENDBRANCH  17  36
TORSDOF 4
