REMARK  6 active torsions:
REMARK  status: ('A' for Active; 'I' for Inactive)
REMARK    1  A    between atoms: C5_5  and  N1_8 
REMARK    2  A    between atoms: C14_16  and  S1_17 
REMARK    3  A    between atoms: S1_17  and  C15_18 
REMARK    4  A    between atoms: C15_18  and  C16_19 
REMARK       I    between atoms: C16_19  and  N3_21 
REMARK    5  A    between atoms: N3_21  and  C17_22 
REMARK    6  A    between atoms: C18_23  and  C21_27 
REMARK       I    between atoms: C21_27  and  N4_29 
ROOT
ATOM      1  N1  <0> d          -5.379   1.469   0.035  0.00  0.00    -0.288 N 
ATOM      2  C8  <0> d          -6.142   2.627   0.046  0.00  0.00     0.070 A 
ATOM      3  C9  <0> d          -7.505   2.879   0.054  0.00  0.00     0.032 A 
ATOM      4  C10 <0> d          -7.963   4.181   0.065  0.00  0.00     0.002 A 
ATOM      5  C11 <0> d          -7.067   5.240   0.067  0.00  0.00     0.002 A 
ATOM      6  C12 <0> d          -5.710   5.008   0.059  0.00  0.00     0.034 A 
ATOM      7  C13 <0> d          -5.231   3.696   0.048  0.00  0.00     0.086 A 
ATOM      8  N2  <0> d          -3.982   3.159   0.044  0.00  0.00    -0.222 NA
ATOM      9  C14 <0> d          -4.064   1.851   0.031  0.00  0.00     0.175 A 
ENDROOT
BRANCH   9  10
ATOM     10  S1  <0> d          -2.689   0.750   0.019  0.00  0.00    -0.082 SA
BRANCH  10  11
ATOM     11  C15 <0> d          -1.330   1.944   0.019  0.00  0.00     0.185 C 
BRANCH  11  12
ATOM     12  C16 <0> d          -0.014   1.209   0.009  0.00  0.00     0.232 C 
ATOM     13  O1  <0> d           0.002  -0.004   0.002  0.00  0.00    -0.272 OA
ATOM     14  N3  <0> d           1.143   1.898   0.001  0.00  0.00    -0.320 N 
ATOM     15  H14 <0> d           1.129   2.998   0.007  0.00  0.00     0.169 HD
BRANCH  14  16
ATOM     16  C17 <0> d           2.354   1.221  -0.014  0.00  0.00     0.092 A 
ATOM     17  S2  <0> d           2.630  -0.488  -0.026  0.00  0.00    -0.083 SA
ATOM     18  C20 <0> d           4.410  -0.501  -0.044  0.00  0.00     0.053 A 
ATOM     19  C19 <0> d           4.730   0.805  -0.039  0.00  0.00     0.027 A 
ATOM     20  C18 <0> d           3.639   1.750  -0.029  0.00  0.00     0.066 A 
BRANCH  20  21
ATOM     21  C21 <0> d           3.875   3.198  -0.031  0.00  0.00     0.252 C 
ATOM     22  O2  <0> d           2.932   3.968  -0.019  0.00  0.00    -0.268 OA
ATOM     23  N4  <0> d           5.135   3.675  -0.045  0.00  0.00    -0.366 N 
ATOM     24  H17 <0> d           5.312   4.761  -0.047  0.00  0.00     0.159 HD
ATOM     25  H18 <0> d           5.987   2.979  -0.057  0.00  0.00     0.159 HD
ENDBRANCH  20  21
ENDBRANCH  14  16
ENDBRANCH  11  12
ENDBRANCH  10  11
ENDBRANCH   9  10
BRANCH   1  26
ATOM     26  C5  <0> d          -5.863   0.154   0.030  0.00  0.00     0.042 A 
ATOM     27  C4  <0> d          -5.621  -0.681   1.113  0.00  0.00     0.030 A 
ATOM     28  C3  <0> d          -6.099  -1.976   1.105  0.00  0.00     0.009 A 
ATOM     29  C2  <0> d          -6.818  -2.443   0.020  0.00  0.00    -0.062 A 
ATOM     30  C1  <0> d          -7.338  -3.857   0.014  0.00  0.00     0.048 C 
ATOM     31  C7  <0> d          -7.060  -1.614  -1.060  0.00  0.00     0.009 A 
ATOM     32  C6  <0> d          -6.590  -0.316  -1.055  0.00  0.00     0.030 A 
ENDBRANCH   1  26
TORSDOF 6
