REMARK  7 active torsions:
REMARK  status: ('A' for Active; 'I' for Inactive)
REMARK    1  A    between atoms: N1_2  and  C3_4 
REMARK    2  A    between atoms: C3_4  and  C4_5 
REMARK    3  A    between atoms: C4_5  and  N2_6 
REMARK    4  A    between atoms: C6_8  and  N4_11 
REMARK       I    between atoms: N4_11  and  C8_12 
REMARK    5  A    between atoms: C8_12  and  C9_14 
REMARK    6  A    between atoms: C9_14  and  C10_15 
REMARK    7  A    between atoms: C10_15  and  C11_16 
REMARK       I    between atoms: C11_16  and  N5_18 
ROOT
ATOM      1  C9  <0> d           3.388  -0.810   8.923  0.00  0.00     0.112 C 
ENDROOT
BRANCH   1   2
ATOM      2  C8  <0> d           2.793  -1.212   7.597  0.00  0.00     0.222 C 
ATOM      3  N4  <0> d           2.201  -0.287   6.816  0.00  0.00    -0.325 N 
ATOM      4  H13 <0> d           2.158   0.637   7.107  0.00  0.00     0.169 HD
ATOM      5  O1  <0> d           2.848  -2.368   7.234  0.00  0.00    -0.273 OA
BRANCH   3   6
ATOM      6  C6  <0> d           1.646  -0.662   5.578  0.00  0.00     0.071 A 
ATOM      7  C5  <0> d           1.024   0.163   4.698  0.00  0.00     0.143 A 
ATOM      8  N2  <0> d           0.637  -0.589   3.635  0.00  0.00    -0.277 N 
ATOM      9  N3  <0> d           1.030  -1.911   3.877  0.00  0.00    -0.183 NA
ATOM     10  C7  <0> d           1.638  -1.955   5.035  0.00  0.00     0.169 A 
BRANCH   8  11
ATOM     11  C4  <0> d          -0.071  -0.103   2.448  0.00  0.00     0.178 C 
BRANCH  11  12
ATOM     12  C3  <0> d           0.713  -0.491   1.192  0.00  0.00     0.255 C 
BRANCH  12  13
ATOM     13  N1  <0> d           0.002  -0.004   0.002  0.00  0.00    -0.077 N 
ATOM     14  C1  <0> d          -0.018   1.465   0.010  0.00  0.00     0.269 C 
ATOM     15  C2  <0> d           0.690  -0.478  -1.207  0.00  0.00     0.269 C 
ATOM     16  H25 <0> d          -0.945  -0.353   0.009  0.00  0.00     0.279 HD
ENDBRANCH  12  13
ENDBRANCH  11  12
ENDBRANCH   8  11
ENDBRANCH   3   6
ENDBRANCH   1   2
BRANCH   1  17
ATOM     17  C10 <0> d           3.992  -2.039   9.604  0.00  0.00     0.112 C 
BRANCH  17  18
ATOM     18  C11 <0> d           4.586  -1.637  10.930  0.00  0.00     0.225 C 
ATOM     19  O2  <0> d           4.532  -0.481  11.293  0.00  0.00    -0.273 OA
ATOM     20  N5  <0> d           5.178  -2.562  11.711  0.00  0.00    -0.307 N 
ATOM     21  C15 <0> d           5.739  -2.213  12.950  0.00  0.00     0.064 A 
ATOM     22  C12 <0> d           5.262  -3.969  11.291  0.00  0.00     0.235 C 
ATOM     23  C14 <0> d           5.765  -3.173  13.966  0.00  0.00     0.061 A 
ATOM     24  C16 <0> d           6.253  -0.948  13.169  0.00  0.00     0.032 A 
ATOM     25  N6  <0> d           5.239  -4.447  13.727  0.00  0.00    -0.324 N 
ATOM     26  C19 <0> d           6.316  -2.853  15.196  0.00  0.00     0.032 A 
ATOM     27  C13 <0> d           4.963  -4.854  12.474  0.00  0.00     0.240 C 
ATOM     28  H20 <0> d           5.072  -5.044  14.473  0.00  0.00     0.169 HD
ATOM     29  O3  <0> d           4.467  -5.946  12.294  0.00  0.00    -0.271 OA
ATOM     30  C18 <0> d           6.839  -1.582  15.406  0.00  0.00     0.002 A 
ATOM     31  C17 <0> d           6.803  -0.635  14.400  0.00  0.00     0.002 A 
ENDBRANCH  17  18
ENDBRANCH   1  17
TORSDOF 7
