REMARK  2 active torsions:
REMARK  status: ('A' for Active; 'I' for Inactive)
REMARK    1  A    between atoms: C5_6  and  C6_7 
REMARK    2  A    between atoms: C8_9  and  O2_21 
ROOT
ATOM      1  C6  <0> d           0.030  -0.179   2.581  0.00  0.00     0.102 C 
ATOM      2  C7  <0> d          -1.162  -0.703   3.324  0.00  0.00     0.033 A 
ATOM      3  C8  <0> d          -2.324  -1.204   2.969  0.00  0.00     0.190 A 
ATOM      4  N1  <0> d          -2.998  -1.653   4.063  0.00  0.00    -0.127 NA
ATOM      5  N2  <0> d          -2.414  -1.460   5.138  0.00  0.00    -0.160 NA
ATOM      6  C9  <0> d          -1.170  -0.741   4.856  0.00  0.00     0.264 A 
ATOM      7  N3  <0> d           0.024  -1.517   5.196  0.00  0.00    -0.365 N 
ATOM      8  C10 <0> d           1.194  -1.290   4.514  0.00  0.00     0.018 C 
ATOM      9  C11 <0> d           1.267  -0.679   3.312  0.00  0.00     0.023 C 
ATOM     10  C12 <0> d           2.498  -0.471   2.668  0.00  0.00     0.158 C 
ATOM     11  O1  <0> d           2.516   0.072   1.580  0.00  0.00    -0.293 OA
ATOM     12  C13 <0> d           3.795  -0.905   3.293  0.00  0.00     0.084 C 
ATOM     13  C14 <0> d           3.635  -0.880   4.817  0.00  0.00     0.014 C 
ATOM     14  C15 <0> d           2.455  -1.786   5.192  0.00  0.00     0.058 C 
ATOM     15  H8  <0> d          -0.011  -2.185   5.898  0.00  0.00     0.162 HD
ENDROOT
BRANCH   1  16
ATOM     16  C5  <0> d           0.023  -0.698   1.166  0.00  0.00     0.001 A 
ATOM     17  C2  <0> d           0.002  -0.004   0.002  0.00  0.00    -0.047 A 
ATOM     18  C1  <0> d          -0.018   1.503   0.010  0.00  0.00     0.049 C 
ATOM     19  C3  <0> d           0.006  -0.699  -1.193  0.00  0.00     0.015 A 
ATOM     20  C4  <0> d           0.024  -2.054  -1.165  0.00  0.00     0.051 A 
ATOM     21  S1  <0> d           0.037  -2.387   0.589  0.00  0.00    -0.105 SA
ENDBRANCH   1  16
BRANCH   3  22
ATOM     22  O2  <0> d          -2.787  -1.265   1.692  0.00  0.00    -0.343 OA
ATOM     23  H15 <0> d          -3.663  -1.666   1.610  0.00  0.00     0.219 HD
ENDBRANCH   3  22
TORSDOF 2
