REMARK  4 active torsions:
REMARK  status: ('A' for Active; 'I' for Inactive)
REMARK    1  A    between atoms: C6_6  and  C8_8 
REMARK    2  A    between atoms: C8_8  and  N1_9 
REMARK    3  A    between atoms: N1_9  and  C9_10 
REMARK    4  A    between atoms: C15_18  and  C18_21 
ROOT
ATOM      1  C9  <0> d           1.705  -3.750   4.064  0.00  0.00     0.112 C 
ATOM      2  N2  <0> d           0.719  -4.086   4.807  0.00  0.00    -0.376 N 
ATOM      3  C10 <0> d           0.863  -4.799   6.072  0.00  0.00     0.151 C 
ATOM      4  C11 <0> d           2.251  -5.436   6.162  0.00  0.00     0.290 C 
ATOM      5  N3  <0> d           3.256  -4.415   5.818  0.00  0.00     0.102 N 
ATOM      6  C12 <0> d           3.138  -4.062   4.394  0.00  0.00     0.214 C 
ATOM      7  C13 <0> d           4.009  -2.836   4.107  0.00  0.00     0.050 C 
ATOM      8  C14 <0> d           3.896  -2.466   2.627  0.00  0.00     0.012 C 
ATOM      9  C15 <0> d           4.371  -3.640   1.769  0.00  0.00     0.019 C 
ATOM     10  C16 <0> d           3.502  -4.866   2.056  0.00  0.00     0.012 C 
ATOM     11  C17 <0> d           3.616  -5.236   3.537  0.00  0.00     0.050 C 
ATOM     12  H15 <0> d           3.160  -3.601   6.405  0.00  0.00     0.317 HD
ATOM     13  H30 <0> d          -0.175  -3.853   4.513  0.00  0.00     0.160 HD
ENDROOT
BRANCH   1  14
ATOM     14  N1  <0> d           1.440  -3.073   2.903  0.00  0.00    -0.373 N 
ATOM     15  H10 <0> d           1.973  -3.243   2.110  0.00  0.00     0.161 HD
BRANCH  14  16
ATOM     16  C8  <0> d           0.353  -2.092   2.858  0.00  0.00     0.159 C 
BRANCH  16  17
ATOM     17  C6  <0> d           0.271  -1.495   1.477  0.00  0.00    -0.040 A 
ATOM     18  C5  <0> d          -0.529  -2.083   0.516  0.00  0.00     0.009 A 
ATOM     19  C4  <0> d          -0.605  -1.535  -0.751  0.00  0.00     0.001 A 
ATOM     20  C3  <0> d           0.121  -0.399  -1.056  0.00  0.00     0.007 A 
ATOM     21  C2  <0> d           0.921   0.190  -0.095  0.00  0.00    -0.061 A 
ATOM     22  C1  <0> d           1.713   1.429  -0.428  0.00  0.00     0.048 C 
ATOM     23  C7  <0> d           1.000  -0.361   1.170  0.00  0.00     0.015 A 
ENDBRANCH  16  17
ENDBRANCH  14  16
ENDBRANCH   1  14
BRANCH   9  24
ATOM     24  C18 <0> d           4.258  -3.275   0.311  0.00  0.00    -0.054 A 
ATOM     25  C23 <0> d           5.385  -3.270  -0.490  0.00  0.00     0.007 A 
ATOM     26  C22 <0> d           5.281  -2.939  -1.828  0.00  0.00     0.001 A 
ATOM     27  C21 <0> d           4.051  -2.605  -2.363  0.00  0.00     0.000 A 
ATOM     28  C20 <0> d           2.925  -2.606  -1.562  0.00  0.00     0.001 A 
ATOM     29  C19 <0> d           3.028  -2.941  -0.225  0.00  0.00     0.007 A 
ENDBRANCH   9  24
TORSDOF 4
