REMARK  7 active torsions:
REMARK  status: ('A' for Active; 'I' for Inactive)
REMARK    1  A    between atoms: C10_11  and  N2_12 
REMARK    2  A    between atoms: N2_12  and  C11_13 
REMARK    3  A    between atoms: C12_14  and  N5_30 
REMARK    4  A    between atoms: C13_15  and  O1_19 
REMARK    5  A    between atoms: O1_19  and  C15_20 
REMARK    6  A    between atoms: C18_23  and  C21_26 
REMARK    7  A    between atoms: C21_26  and  O3_28 
ROOT
ATOM      1  C11 <0> d           0.655  -6.264  -1.066  0.00  0.00     0.160 A 
ATOM      2  C12 <0> d           0.523  -7.017  -2.237  0.00  0.00     0.126 A 
ATOM      3  C13 <0> d           0.665  -8.401  -2.149  0.00  0.00     0.201 A 
ATOM      4  N3  <0> d           0.918  -8.949  -0.965  0.00  0.00    -0.215 NA
ATOM      5  C14 <0> d           1.036  -8.205   0.116  0.00  0.00     0.238 A 
ATOM      6  N4  <0> d           0.915  -6.893   0.077  0.00  0.00    -0.222 NA
ENDROOT
BRANCH   1   7
ATOM      7  N2  <0> d           0.523  -4.881  -1.097  0.00  0.00    -0.338 N 
ATOM      8  H9  <0> d           0.429  -4.422  -1.946  0.00  0.00     0.167 HD
BRANCH   7   9
ATOM      9  C10 <0> d           0.526  -4.154   0.091  0.00  0.00     0.046 A 
ATOM     10  C5  <0> d           0.983  -2.820   0.108  0.00  0.00     0.017 A 
ATOM     11  C4  <0> d           1.443  -2.188  -1.060  0.00  0.00     0.018 A 
ATOM     12  C6  <0> d           0.979  -2.095   1.326  0.00  0.00     0.044 A 
ATOM     13  C3  <0> d           1.870  -0.893  -0.968  0.00  0.00     0.025 A 
ATOM     14  C2  <0> d           1.841  -0.238   0.260  0.00  0.00     0.005 A 
ATOM     15  C1  <0> d           2.317   1.190   0.341  0.00  0.00     0.068 C 
ATOM     16  N1  <0> d           1.415  -0.831   1.349  0.00  0.00    -0.359 N 
ATOM     17  H20 <0> d           1.413  -0.343   2.187  0.00  0.00     0.166 HD
ATOM     18  C7  <0> d           0.519  -2.723   2.496  0.00  0.00     0.030 A 
ATOM     19  C8  <0> d           0.084  -4.013   2.453  0.00  0.00     0.005 A 
ATOM     20  C9  <0> d           0.083  -4.733   1.263  0.00  0.00     0.030 A 
ENDBRANCH   7   9
ENDBRANCH   1   7
BRANCH   2  21
ATOM     21  N5  <0> d           0.255  -6.396  -3.466  0.00  0.00    -0.393 N 
ATOM     22  H18 <0> d           0.159  -5.432  -3.512  0.00  0.00     0.156 HD
ATOM     23  H19 <0> d           0.166  -6.931  -4.270  0.00  0.00     0.156 HD
ENDBRANCH   2  21
BRANCH   3  24
ATOM     24  O1  <0> d           0.545  -9.176  -3.256  0.00  0.00    -0.290 OA
BRANCH  24  25
ATOM     25  C15 <0> d           0.558 -10.524  -3.094  0.00  0.00     0.078 A 
ATOM     26  C20 <0> d           1.698 -11.250  -3.417  0.00  0.00     0.038 A 
ATOM     27  C19 <0> d           1.717 -12.616  -3.248  0.00  0.00     0.020 A 
ATOM     28  C18 <0> d           0.583 -13.274  -2.763  0.00  0.00     0.039 A 
ATOM     29  C17 <0> d          -0.564 -12.541  -2.445  0.00  0.00     0.020 A 
ATOM     30  C16 <0> d          -0.572 -11.174  -2.612  0.00  0.00     0.038 A 
BRANCH  28  31
ATOM     31  C21 <0> d           0.597 -14.738  -2.586  0.00  0.00     0.292 C 
ATOM     32  O2  <0> d          -0.390 -15.309  -2.164  0.00  0.00    -0.259 OA
BRANCH  31  33
ATOM     33  O3  <0> d           1.703 -15.444  -2.893  0.00  0.00    -0.323 OA
ATOM     34  C22 <0> d           1.646 -16.858  -2.697  0.00  0.00     0.213 C 
ENDBRANCH  31  33
ENDBRANCH  28  31
ENDBRANCH  24  25
ENDBRANCH   3  24
TORSDOF 7
