REMARK  3 active torsions:
REMARK  status: ('A' for Active; 'I' for Inactive)
REMARK    1  A    between atoms: C5_6  and  C6_7 
REMARK       I    between atoms: C6_7  and  N2_9 
REMARK    2  A    between atoms: N2_9  and  C7_10 
REMARK    3  A    between atoms: C11_15  and  N4_16 
ROOT
ATOM      1  C6  <0> d          -0.031  -0.242   2.611  0.00  0.00     0.273 C 
ATOM      2  O1  <0> d           0.544  -0.943   3.425  0.00  0.00    -0.266 OA
ATOM      3  N2  <0> d          -0.329   1.037   2.914  0.00  0.00    -0.318 N 
ATOM      4  H6  <0> d          -0.837   1.577   2.289  0.00  0.00     0.169 HD
ENDROOT
BRANCH   3   5
ATOM      5  C7  <0> d           0.095   1.585   4.131  0.00  0.00     0.081 A 
ATOM      6  C11 <0> d           0.312   2.960   4.252  0.00  0.00     0.151 A 
ATOM      7  N3  <0> d           0.707   3.479   5.403  0.00  0.00    -0.241 NA
ATOM      8  C10 <0> d           0.920   2.726   6.466  0.00  0.00     0.119 A 
ATOM      9  C9  <0> d           0.732   1.359   6.419  0.00  0.00     0.022 A 
ATOM     10  C8  <0> d           0.312   0.770   5.234  0.00  0.00     0.035 A 
BRANCH   6  11
ATOM     11  N4  <0> d           0.105   3.791   3.155  0.00  0.00    -0.373 N 
ATOM     12  C12 <0> d          -1.242   4.281   2.851  0.00  0.00     0.150 C 
ATOM     13  C13 <0> d           1.234   4.176   2.304  0.00  0.00     0.150 C 
ENDBRANCH   6  11
ENDBRANCH   3   5
BRANCH   1  14
ATOM     14  C5  <0> d          -0.398  -0.791   1.302  0.00  0.00     0.104 A 
ATOM     15  N1  <0> d          -1.175  -0.172   0.350  0.00  0.00    -0.355 N 
ATOM     16  C1  <0> d          -1.780   1.157   0.473  0.00  0.00     0.156 C 
ATOM     17  C2  <0> d          -1.283  -0.993  -0.724  0.00  0.00     0.110 A 
ATOM     18  C3  <0> d          -0.592  -2.132  -0.475  0.00  0.00     0.028 A 
ATOM     19  C4  <0> d          -0.030  -2.022   0.801  0.00  0.00     0.056 A 
ATOM     20 Br1  <0> d          -0.420  -3.608  -1.644  0.00  0.00    -0.050 Br
ENDBRANCH   1  14
TORSDOF 3
