REMARK  3 active torsions:
REMARK  status: ('A' for Active; 'I' for Inactive)
REMARK    1  A    between atoms: C4_5  and  C5_7 
REMARK    2  A    between atoms: C5_7  and  C6_8 
REMARK    3  A    between atoms: C5_7  and  N2_18 
ROOT
ATOM      1  C5  <0> d           0.054  -2.955   2.284  0.00  0.00     0.275 C 
ENDROOT
BRANCH   1   2
ATOM      2  C4  <0> d           0.035  -2.009   1.111  0.00  0.00     0.110 A 
ATOM      3  S1  <0> d           0.033  -2.379  -0.531  0.00  0.00    -0.082 SA
ATOM      4  C3  <0> d           0.006  -0.708  -1.159  0.00  0.00     0.078 A 
ATOM      5  C2  <0> d           0.002  -0.004   0.002  0.00  0.00     0.038 A 
ATOM      6  C1  <0> d          -0.018   1.503   0.010  0.00  0.00     0.071 C 
ATOM      7  N1  <0> d           0.022  -0.699   1.122  0.00  0.00    -0.248 NA
ENDBRANCH   1   2
BRANCH   1   8
ATOM      8  C6  <0> d          -1.309  -3.576   2.450  0.00  0.00    -0.019 A 
ATOM      9  C11 <0> d          -2.178  -3.086   3.406  0.00  0.00     0.049 A 
ATOM     10  C10 <0> d          -3.436  -3.652   3.558  0.00  0.00     0.102 A 
ATOM     11  C9  <0> d          -3.815  -4.719   2.751  0.00  0.00     0.102 A 
ATOM     12  O1  <0> d          -4.280  -3.160   4.504  0.00  0.00    -0.346 OA
ATOM     13  C8  <0> d          -2.935  -5.210   1.798  0.00  0.00     0.040 A 
ATOM     14  O2  <0> d          -5.044  -5.289   2.883  0.00  0.00    -0.346 OA
ATOM     15  C7  <0> d          -1.685  -4.638   1.649  0.00  0.00     0.012 A 
ATOM     16  C13 <0> d          -5.752  -5.017   4.097  0.00  0.00     0.202 C 
ATOM     17  C12 <0> d          -5.663  -3.511   4.379  0.00  0.00     0.202 C 
ENDBRANCH   1   8
BRANCH   1  18
ATOM     18  N2  <0> d           1.047  -4.010   2.046  0.00  0.00    -0.065 N 
ATOM     19  H13 <0> d           1.960  -3.595   1.934  0.00  0.00     0.275 HD
ATOM     20  H14 <0> d           1.060  -4.644   2.831  0.00  0.00     0.275 HD
ATOM     21  H15 <0> d           0.805  -4.518   1.208  0.00  0.00     0.275 HD
ENDBRANCH   1  18
TORSDOF 3
