REMARK  5 active torsions:
REMARK  status: ('A' for Active; 'I' for Inactive)
REMARK    1  A    between atoms: C4_4  and  C7_7 
REMARK    2  A    between atoms: C8_10  and  N3_12 
REMARK       I    between atoms: N3_12  and  C9_13 
REMARK    3  A    between atoms: C9_13  and  C10_15 
REMARK       I    between atoms: C10_15  and  N4_17 
REMARK    4  A    between atoms: N4_17  and  N5_18 
REMARK    5  A    between atoms: C11_19  and  C12_20 
ROOT
ATOM      1  N3  <0> d           4.472  -3.921  -2.478  0.00  0.00    -0.296 N 
ATOM      2  C9  <0> d           4.413  -5.223  -2.136  0.00  0.00     0.317 C 
ATOM      3  O1  <0> d           4.108  -5.541  -1.004  0.00  0.00    -0.262 OA
ATOM      4  H8  <0> d           4.716  -3.667  -3.382  0.00  0.00     0.171 HD
ENDROOT
BRANCH   2   5
ATOM      5  C10 <0> d           4.721  -6.273  -3.147  0.00  0.00     0.329 C 
ATOM      6  O2  <0> d           5.026  -5.956  -4.279  0.00  0.00    -0.261 OA
ATOM      7  N4  <0> d           4.662  -7.576  -2.806  0.00  0.00    -0.239 N 
ATOM      8  H9  <0> d           4.418  -7.830  -1.902  0.00  0.00     0.192 HD
BRANCH   7   9
ATOM      9  N5  <0> d           4.951  -8.563  -3.757  0.00  0.00    -0.184 NA
ATOM     10  C11 <0> d           4.894  -9.829  -3.425  0.00  0.00     0.148 C 
BRANCH  10  11
ATOM     11  C12 <0> d           5.183 -10.817  -4.376  0.00  0.00    -0.009 A 
ATOM     12  C19 <0> d           5.577 -10.607  -5.822  0.00  0.00     0.161 A 
ATOM     13  N6  <0> d           5.772 -11.946  -6.387  0.00  0.00    -0.385 N 
ATOM     14  C18 <0> d           5.534 -12.848  -5.459  0.00  0.00     0.039 A 
ATOM     15  H17 <0> d           6.033 -12.137  -7.301  0.00  0.00     0.160 HD
ATOM     16  C13 <0> d           5.163 -12.197  -4.190  0.00  0.00    -0.000 A 
ATOM     17  C17 <0> d           5.577 -14.268  -5.495  0.00  0.00     0.030 A 
ATOM     18  C14 <0> d           4.868 -13.005  -3.070  0.00  0.00     0.014 A 
ATOM     19  C15 <0> d           4.930 -14.356  -3.179  0.00  0.00     0.001 A 
ATOM     20  C16 <0> d           5.281 -14.979  -4.381  0.00  0.00     0.002 A 
ENDBRANCH  10  11
ENDBRANCH   7   9
ENDBRANCH   2   5
BRANCH   1  21
ATOM     21  C8  <0> d           4.185  -2.942  -1.535  0.00  0.00     0.190 A 
ATOM     22  N2  <0> d           3.846  -3.103  -0.293  0.00  0.00    -0.152 NA
ATOM     23  N1  <0> d           3.582  -2.055   0.560  0.00  0.00    -0.292 N 
ATOM     24  C7  <0> d           3.711  -0.707  -0.038  0.00  0.00     0.203 A 
ATOM     25  H7  <0> d           3.330  -2.191   1.487  0.00  0.00     0.184 HD
ATOM     26  S1  <0> d           4.198  -1.168  -1.751  0.00  0.00    -0.059 SA
BRANCH  24  27
ATOM     27  C4  <0> d           2.396   0.029  -0.020  0.00  0.00    -0.024 A 
ATOM     28  C3  <0> d           2.377   1.411  -0.013  0.00  0.00     0.010 A 
ATOM     29  C2  <0> d           1.171   2.086   0.002  0.00  0.00     0.001 A 
ATOM     30  C1  <0> d          -0.017   1.378   0.010  0.00  0.00     0.000 A 
ATOM     31  C6  <0> d           0.002  -0.004   0.002  0.00  0.00     0.001 A 
ATOM     32  C5  <0> d           1.208  -0.679  -0.012  0.00  0.00     0.010 A 
ENDBRANCH  24  27
ENDBRANCH   1  21
TORSDOF 5
