REMARK  5 active torsions:
REMARK  status: ('A' for Active; 'I' for Inactive)
REMARK    1  A    between atoms: C4_4  and  O2_16 
REMARK    2  A    between atoms: C5_5  and  N1_7 
REMARK    3  A    between atoms: N2_10  and  C11_13 
REMARK    4  A    between atoms: C11_13  and  C12_14 
REMARK    5  A    between atoms: C12_14  and  O1_15 
ROOT
ATOM      1  N1  <0> d           0.762  -1.980   1.234  0.00  0.00     0.099 N 
ATOM      2  C7  <0> d           1.419  -2.491   0.022  0.00  0.00     0.303 C 
ATOM      3  C8  <0> d           1.490  -4.018   0.089  0.00  0.00     0.302 C 
ATOM      4  N2  <0> d           0.131  -4.564   0.219  0.00  0.00     0.093 N 
ATOM      5  C9  <0> d          -0.525  -4.053   1.431  0.00  0.00     0.302 C 
ATOM      6  C10 <0> d          -0.596  -2.526   1.363  0.00  0.00     0.303 C 
ENDROOT
BRANCH   1   7
ATOM      7  C5  <0> d           0.742  -0.511   1.242  0.00  0.00     0.251 C 
ATOM      8  C4  <0> d           2.178   0.019   1.231  0.00  0.00     0.151 C 
ATOM      9  C3  <0> d           2.157   1.548   1.239  0.00  0.00     0.034 C 
ATOM     10  C2  <0> d           1.417   2.055  -0.000  0.00  0.00     0.003 C 
ATOM     11  C1  <0> d          -0.019   1.526   0.010  0.00  0.00     0.002 C 
ATOM     12  C6  <0> d           0.002  -0.004   0.002  0.00  0.00     0.038 C 
BRANCH   8  13
ATOM     13  O2  <0> d           2.869  -0.455   2.388  0.00  0.00    -0.393 OA
ATOM     14  H24 <0> d           3.787  -0.157   2.447  0.00  0.00     0.210 HD
ENDBRANCH   8  13
ENDBRANCH   1   7
BRANCH   4  15
ATOM     15  C11 <0> d           0.151  -6.033   0.211  0.00  0.00     0.298 C 
BRANCH  15  16
ATOM     16  C12 <0> d          -1.280  -6.562   0.096  0.00  0.00     0.194 C 
BRANCH  16  17
ATOM     17  O1  <0> d          -1.827  -6.184  -1.169  0.00  0.00    -0.399 OA
ATOM     18  H23 <0> d          -2.734  -6.487  -1.311  0.00  0.00     0.209 HD
ENDBRANCH  16  17
ENDBRANCH  15  16
ENDBRANCH   4  15
TORSDOF 5
