REMARK  3 active torsions:
REMARK  status: ('A' for Active; 'I' for Inactive)
REMARK    1  A    between atoms: C7_7  and  C15_17 
REMARK    2  A    between atoms: C9_9  and  C10_11 
REMARK       I    between atoms: C15_17  and  N3_19 
REMARK    3  A    between atoms: N3_19  and  C16_20 
ROOT
ATOM      1  C1  <0> d          -0.020   1.358  -0.019  0.00  0.00     0.001 A 
ATOM      2  C2  <0> d           1.166   2.090  -0.032  0.00  0.00     0.002 A 
ATOM      3  C3  <0> d           2.375   1.466  -0.041  0.00  0.00     0.032 A 
ATOM      4  C4  <0> d           2.435   0.059  -0.038  0.00  0.00     0.068 A 
ATOM      5  C5  <0> d           1.226  -0.680  -0.025  0.00  0.00     0.008 A 
ATOM      6  C6  <0> d          -0.000  -0.004  -0.016  0.00  0.00     0.015 A 
ATOM      7  C7  <0> d           1.285  -2.098  -0.022  0.00  0.00     0.047 A 
ATOM      8  C8  <0> d           2.537  -2.696  -0.032  0.00  0.00     0.050 A 
ATOM      9  C9  <0> d           3.686  -1.891  -0.045  0.00  0.00     0.069 A 
ATOM     10  N1  <0> d           3.609  -0.575  -0.047  0.00  0.00    -0.247 NA
ENDROOT
BRANCH   7  11
ATOM     11  C15 <0> d           0.052  -2.913  -0.009  0.00  0.00     0.258 C 
ATOM     12  O1  <0> d          -1.032  -2.374   0.106  0.00  0.00    -0.267 OA
ATOM     13  N3  <0> d           0.128  -4.254  -0.123  0.00  0.00    -0.307 N 
ATOM     14  H10 <0> d           0.994  -4.691  -0.137  0.00  0.00     0.170 HD
BRANCH  13  15
ATOM     15  C16 <0> d          -1.037  -5.013  -0.220  0.00  0.00     0.130 A 
ATOM     16  N4  <0> d          -2.210  -4.405  -0.300  0.00  0.00    -0.240 NA
ATOM     17  C20 <0> d          -3.337  -5.085  -0.399  0.00  0.00     0.161 A 
ATOM     18  C19 <0> d          -3.331  -6.467  -0.412  0.00  0.00     0.134 A 
ATOM     19  C18 <0> d          -2.119  -7.143  -0.325  0.00  0.00     0.047 A 
ATOM     20  F1  <0> d          -4.491  -7.154  -0.509  0.00  0.00    -0.205 F 
ATOM     21  C17 <0> d          -0.956  -6.401  -0.228  0.00  0.00     0.053 A 
ENDBRANCH  13  15
ENDBRANCH   7  11
BRANCH   9  22
ATOM     22  C10 <0> d           5.022  -2.537  -0.055  0.00  0.00    -0.005 A 
ATOM     23  C14 <0> d           6.190  -1.770  -0.068  0.00  0.00     0.033 A 
ATOM     24  C13 <0> d           7.412  -2.412  -0.072  0.00  0.00     0.117 A 
ATOM     25  N2  <0> d           7.485  -3.728  -0.075  0.00  0.00    -0.273 NA
ATOM     26  C12 <0> d           6.407  -4.489  -0.068  0.00  0.00     0.117 A 
ATOM     27  C11 <0> d           5.146  -3.929  -0.058  0.00  0.00     0.033 A 
ENDBRANCH   9  22
TORSDOF 3
