REMARK  4 active torsions:
REMARK  status: ('A' for Active; 'I' for Inactive)
REMARK    1  A    between atoms: C3_3  and  N1_9 
REMARK    2  A    between atoms: C9_13  and  N3_16 
REMARK    3  A    between atoms: N3_16  and  C11_17 
REMARK    4  A    between atoms: N4_20  and  C16_23 
ROOT
ATOM      1  N1  <0> d           3.584   2.130  -0.021  0.00  0.00    -0.193 N 
ATOM      2  C7  <0> d           4.092   2.570  -1.189  0.00  0.00     0.292 A 
ATOM      3  O1  <0> d           3.506   2.346  -2.237  0.00  0.00    -0.264 OA
ATOM      4  C8  <0> d           5.296   3.288  -1.194  0.00  0.00     0.131 A 
ATOM      5  C9  <0> d           5.939   3.528   0.007  0.00  0.00     0.075 A 
ATOM      6  C10 <0> d           5.370   3.048   1.205  0.00  0.00     0.170 A 
ATOM      7  N2  <0> d           4.246   2.388   1.184  0.00  0.00    -0.174 NA
ATOM      8 Cl1  <0> d           5.971   3.865  -2.686  0.00  0.00    -0.076 Cl
ENDROOT
BRANCH   5   9
ATOM      9  N3  <0> d           7.131   4.234   0.033  0.00  0.00    -0.382 N 
ATOM     10  H5  <0> d           7.518   4.562  -0.794  0.00  0.00     0.160 HD
BRANCH   9  11
ATOM     11  C11 <0> d           7.806   4.485   1.308  0.00  0.00     0.085 C 
ATOM     12  C15 <0> d           9.304   4.691   1.063  0.00  0.00     0.052 C 
ATOM     13  C14 <0> d           9.990   5.032   2.388  0.00  0.00     0.237 C 
ATOM     14  N4  <0> d           9.410   6.261   2.942  0.00  0.00    -0.067 N 
ATOM     15  C13 <0> d           7.990   6.048   3.247  0.00  0.00     0.237 C 
ATOM     16  H20 <0> d           9.500   7.007   2.269  0.00  0.00     0.280 HD
ATOM     17  C12 <0> d           7.227   5.746   1.955  0.00  0.00     0.052 C 
BRANCH  14  18
ATOM     18  C16 <0> d          10.124   6.626   4.173  0.00  0.00     0.188 A 
ATOM     19  C18 <0> d          11.627   6.891   4.065  0.00  0.00     0.035 A 
ATOM     20  C17 <0> d          10.658   8.055   4.282  0.00  0.00     0.035 A 
ENDBRANCH  14  18
ENDBRANCH   9  11
ENDBRANCH   5   9
BRANCH   1  21
ATOM     21  C3  <0> d           2.381   1.413  -0.013  0.00  0.00     0.101 A 
ATOM     22  C2  <0> d           1.169   2.089   0.002  0.00  0.00     0.038 A 
ATOM     23  C1  <0> d          -0.017   1.381   0.010  0.00  0.00     0.045 A 
ATOM     24  C6  <0> d           0.002  -0.004   0.002  0.00  0.00     0.119 A 
ATOM     25  C5  <0> d           1.209  -0.683  -0.013  0.00  0.00     0.087 A 
ATOM     26  F1  <0> d          -1.159  -0.694   0.010  0.00  0.00    -0.206 F 
ATOM     27  C4  <0> d           2.399   0.022  -0.021  0.00  0.00     0.148 A 
ATOM     28  F2  <0> d           3.577  -0.639  -0.036  0.00  0.00    -0.203 F 
ENDBRANCH   1  21
TORSDOF 4
