REMARK  3 active torsions:
REMARK  status: ('A' for Active; 'I' for Inactive)
REMARK    1  A    between atoms: C4_4  and  C13_15 
REMARK    2  A    between atoms: N1_6  and  C6_7 
REMARK       I    between atoms: C13_15  and  N2_17 
REMARK    3  A    between atoms: N2_17  and  C14_18 
ROOT
ATOM      1  C13 <0> d          -0.128  -3.396  -1.460  0.00  0.00     0.258 C 
ATOM      2  O1  <0> d          -0.268  -4.492  -0.951  0.00  0.00    -0.267 OA
ATOM      3  N2  <0> d           0.034  -3.287  -2.793  0.00  0.00    -0.323 N 
ATOM      4  H13 <0> d           0.069  -2.411  -3.208  0.00  0.00     0.169 HD
ENDROOT
BRANCH   1   5
ATOM      5  C4  <0> d          -0.135  -2.188  -0.618  0.00  0.00     0.056 A 
ATOM      6  C3  <0> d           0.020  -0.800  -1.067  0.00  0.00     0.044 A 
ATOM      7  C2  <0> d          -0.051  -0.034   0.036  0.00  0.00     0.014 A 
ATOM      8  C1  <0> d           0.057   1.469   0.068  0.00  0.00     0.068 C 
ATOM      9  N1  <0> d          -0.230  -0.842   1.123  0.00  0.00    -0.319 N 
ATOM     10  C5  <0> d          -0.287  -2.134   0.740  0.00  0.00     0.029 A 
ATOM     11  C12 <0> d          -0.481  -3.317   1.654  0.00  0.00     0.070 C 
BRANCH   9  12
ATOM     12  C6  <0> d          -0.342  -0.392   2.447  0.00  0.00     0.039 A 
ATOM     13  C11 <0> d          -1.425   0.390   2.825  0.00  0.00     0.033 A 
ATOM     14  C10 <0> d          -1.537   0.828   4.131  0.00  0.00     0.044 A 
ATOM     15  C9  <0> d          -0.564   0.497   5.059  0.00  0.00     0.116 A 
ATOM     16  C8  <0> d           0.520  -0.279   4.681  0.00  0.00     0.044 A 
ATOM     17  F1  <0> d          -0.672   0.931   6.333  0.00  0.00    -0.206 F 
ATOM     18  C7  <0> d           0.632  -0.723   3.379  0.00  0.00     0.033 A 
ENDBRANCH   9  12
ENDBRANCH   1   5
BRANCH   3  19
ATOM     19  C14 <0> d           0.151  -4.439  -3.581  0.00  0.00     0.037 A 
ATOM     20  C19 <0> d           0.775  -5.570  -3.068  0.00  0.00     0.062 A 
ATOM     21  C18 <0> d           0.884  -6.708  -3.849  0.00  0.00     0.070 A 
ATOM     22  C17 <0> d           0.380  -6.714  -5.148  0.00  0.00     0.096 A 
ATOM     23  N3  <0> d           1.504  -7.862  -3.348  0.00  0.00    -0.323 N 
ATOM     24  C16 <0> d          -0.236  -5.584  -5.657  0.00  0.00     0.041 A 
ATOM     25  O3  <0> d           0.501  -7.838  -5.907  0.00  0.00    -0.335 OA
ATOM     26  C15 <0> d          -0.350  -4.449  -4.875  0.00  0.00     0.032 A 
ATOM     27  C21 <0> d           1.666  -8.637  -5.691  0.00  0.00     0.217 C 
ATOM     28  C20 <0> d           1.881  -8.829  -4.211  0.00  0.00     0.251 C 
ATOM     29  C22 <0> d           1.480 -10.000  -6.360  0.00  0.00     0.050 C 
ATOM     30  O2  <0> d           2.392  -9.849  -3.798  0.00  0.00    -0.270 OA
ATOM     31  H17 <0> d           1.659  -7.964  -2.396  0.00  0.00     0.169 HD
ENDBRANCH   3  19
TORSDOF 3
