REMARK  4 active torsions:
REMARK  status: ('A' for Active; 'I' for Inactive)
REMARK    1  A    between atoms: N2_16  and  C13_17 
REMARK    2  A    between atoms: C13_17  and  C14_18 
REMARK       I    between atoms: C14_18  and  N3_20 
REMARK    3  A    between atoms: N3_20  and  C15_21 
REMARK    4  A    between atoms: C18_24  and  N5_27 
ROOT
ATOM      1  C1  <0> d           7.106   7.510  -2.317  0.00  0.00     0.064 C 
ATOM      2  C2  <0> d           6.918   8.866  -1.634  0.00  0.00     0.115 C 
ATOM      3  C3  <0> d           6.084   9.786  -2.529  0.00  0.00     0.063 C 
ATOM      4  C4  <0> d           7.080  10.872  -2.978  0.00  0.00     0.107 C 
ATOM      5  C5  <0> d           8.378  10.554  -2.278  0.00  0.00     0.226 C 
ATOM      6  O1  <0> d           9.417  11.157  -2.444  0.00  0.00    -0.273 OA
ATOM      7  N1  <0> d           8.227   9.517  -1.451  0.00  0.00    -0.290 N 
ATOM      8  C6  <0> d           9.111   9.075  -0.463  0.00  0.00     0.055 A 
ATOM      9  C7  <0> d          10.482   9.153  -0.577  0.00  0.00     0.031 A 
ATOM     10  C8  <0> d          11.277   8.672   0.449  0.00  0.00     0.002 A 
ATOM     11  C9  <0> d          10.703   8.116   1.581  0.00  0.00     0.001 A 
ATOM     12  C10 <0> d           9.331   8.037   1.710  0.00  0.00     0.019 A 
ATOM     13  C11 <0> d           8.518   8.523   0.690  0.00  0.00     0.059 A 
ATOM     14  C12 <0> d           7.047   8.508   0.782  0.00  0.00     0.258 C 
ATOM     15  O2  <0> d           6.510   8.337   1.859  0.00  0.00    -0.267 OA
ATOM     16  N2  <0> d           6.292   8.678  -0.327  0.00  0.00    -0.312 N 
ENDROOT
BRANCH  16  17
ATOM     17  C13 <0> d           4.831   8.680  -0.216  0.00  0.00     0.231 C 
BRANCH  17  18
ATOM     18  C14 <0> d           4.360  10.055   0.183  0.00  0.00     0.240 C 
ATOM     19  O3  <0> d           5.165  10.945   0.358  0.00  0.00    -0.271 OA
ATOM     20  N3  <0> d           3.044  10.295   0.346  0.00  0.00    -0.324 N 
ATOM     21  H14 <0> d           2.320   9.472   0.260  0.00  0.00     0.169 HD
BRANCH  20  22
ATOM     22  C15 <0> d           2.598  11.593   0.625  0.00  0.00     0.052 A 
ATOM     23  C19 <0> d           1.387  12.044   0.120  0.00  0.00     0.148 A 
ATOM     24  N4  <0> d           0.961  13.264   0.379  0.00  0.00    -0.239 NA
ATOM     25  C18 <0> d           1.663  14.103   1.123  0.00  0.00     0.150 A 
ATOM     26  C17 <0> d           2.888  13.724   1.658  0.00  0.00     0.054 A 
ATOM     27  C16 <0> d           3.366  12.449   1.413  0.00  0.00     0.035 A 
BRANCH  25  28
ATOM     28  N5  <0> d           1.169  15.388   1.370  0.00  0.00    -0.227 N 
ATOM     29  N6  <0> d           1.796  16.381   2.134  0.00  0.00    -0.179 NA
ATOM     30  C22 <0> d           1.031  17.443   2.134  0.00  0.00     0.141 A 
ATOM     31  C21 <0> d          -0.109  17.165   1.371  0.00  0.00     0.040 A 
ATOM     32  C20 <0> d          -0.004  15.897   0.910  0.00  0.00     0.122 A 
ENDBRANCH  25  28
ENDBRANCH  20  22
ENDBRANCH  17  18
ENDBRANCH  16  17
TORSDOF 4
