REMARK  3 active torsions:
REMARK  status: ('A' for Active; 'I' for Inactive)
REMARK    1  A    between atoms: C3_3  and  C6_7 
REMARK       I    between atoms: C6_7  and  N1_9 
REMARK    2  A    between atoms: N1_9  and  C7_10 
REMARK    3  A    between atoms: C10_13  and  N3_16 
ROOT
ATOM      1  C7  <0> d           4.800   2.446  -0.137  0.00  0.00     0.130 A 
ATOM      2  C8  <0> d           5.113   1.097  -0.252  0.00  0.00     0.052 A 
ATOM      3  C9  <0> d           6.438   0.720  -0.371  0.00  0.00     0.029 A 
ATOM      4  C10 <0> d           7.414   1.716  -0.371  0.00  0.00     0.028 A 
ATOM      5  C11 <0> d           7.026   3.042  -0.252  0.00  0.00     0.142 A 
ATOM      6  N2  <0> d           5.751   3.365  -0.146  0.00  0.00    -0.241 NA
ENDROOT
BRANCH   1   7
ATOM      7  N1  <0> d           3.465   2.837  -0.016  0.00  0.00    -0.307 N 
ATOM      8  C6  <0> d           3.144   4.146  -0.007  0.00  0.00     0.259 C 
ATOM      9  O2  <0> d           4.022   4.987  -0.011  0.00  0.00    -0.267 OA
ATOM     10  H6  <0> d           2.675   2.076   0.071  0.00  0.00     0.170 HD
BRANCH   8  11
ATOM     11  C3  <0> d           1.729   4.557   0.007  0.00  0.00     0.063 A 
ATOM     12  C2  <0> d           1.241   5.831   0.018  0.00  0.00     0.064 A 
ATOM     13  C1  <0> d           2.067   7.092   0.016  0.00  0.00     0.077 C 
ATOM     14  O1  <0> d          -0.094   5.771   0.035  0.00  0.00    -0.326 OA
ATOM     15  C5  <0> d          -0.516   4.497   0.027  0.00  0.00     0.143 A 
ATOM     16  C4  <0> d           0.549   3.681   0.014  0.00  0.00     0.044 A 
ENDBRANCH   8  11
ENDBRANCH   1   7
BRANCH   4  17
ATOM     17  N3  <0> d           8.768   1.381  -0.489  0.00  0.00    -0.278 NA
ATOM     18  C15 <0> d           9.612   2.585  -0.465  0.00  0.00     0.122 C 
ATOM     19  C14 <0> d          11.075   2.179  -0.657  0.00  0.00     0.182 C 
ATOM     20  O3  <0> d          11.442   1.240   0.358  0.00  0.00    -0.389 OA
ATOM     21  C13 <0> d          10.640   0.056   0.363  0.00  0.00     0.182 C 
ATOM     22  C12 <0> d           9.172   0.440   0.565  0.00  0.00     0.122 C 
ENDBRANCH   4  17
TORSDOF 3
