REMARK  4 active torsions:
REMARK  status: ('A' for Active; 'I' for Inactive)
REMARK    1  A    between atoms: C6_6  and  N1_7 
REMARK    2  A    between atoms: C8_9  and  C9_12 
REMARK       I    between atoms: C9_12  and  N4_14 
REMARK    3  A    between atoms: N4_14  and  C10_15 
REMARK    4  A    between atoms: C10_15  and  C11_16 
ROOT
ATOM      1  N1  <0> d          -4.581   0.382   0.025  0.00  0.00    -0.224 N 
ATOM      2  C7  <0> d          -3.708   1.413   0.027  0.00  0.00     0.159 A 
ATOM      3  C8  <0> d          -2.455   0.869   0.018  0.00  0.00     0.165 A 
ATOM      4  N2  <0> d          -2.572  -0.470   0.006  0.00  0.00    -0.125 NA
ATOM      5  N3  <0> d          -3.817  -0.794   0.015  0.00  0.00    -0.060 NA
ENDROOT
BRANCH   3   6
ATOM      6  C9  <0> d          -1.187   1.624   0.017  0.00  0.00     0.273 C 
ATOM      7  O1  <0> d          -1.204   2.840   0.023  0.00  0.00    -0.266 OA
ATOM      8  N4  <0> d          -0.011   0.966   0.007  0.00  0.00    -0.347 N 
ATOM      9  H6  <0> d           0.004  -0.134   0.006  0.00  0.00     0.163 HD
BRANCH   8  10
ATOM     10  C10 <0> d           1.248   1.716  -0.001  0.00  0.00     0.240 C 
BRANCH  10  11
ATOM     11  C11 <0> d           2.424   0.737  -0.017  0.00  0.00     0.403 C 
ATOM     12  F1  <0> d           2.350  -0.062  -1.163  0.00  0.00    -0.169 F 
ATOM     13  F2  <0> d           3.626   1.453  -0.025  0.00  0.00    -0.169 F 
ATOM     14  F3  <0> d           2.372  -0.074   1.121  0.00  0.00    -0.169 F 
ENDBRANCH  10  11
ENDBRANCH   8  10
ENDBRANCH   3   6
BRANCH   1  15
ATOM     15  C6  <0> d          -5.980   0.471   0.031  0.00  0.00     0.059 A 
ATOM     16  C1  <0> d          -6.598   1.714   0.046  0.00  0.00     0.033 A 
ATOM     17  C2  <0> d          -7.976   1.799   0.048  0.00  0.00     0.026 A 
ATOM     18  C3  <0> d          -8.742   0.646   0.045  0.00  0.00     0.034 A 
ATOM     19  C4  <0> d          -8.129  -0.594   0.034  0.00  0.00     0.026 A 
ATOM     20 Cl1  <0> d         -10.474   0.756   0.054  0.00  0.00    -0.084 Cl
ATOM     21  C5  <0> d          -6.750  -0.684   0.028  0.00  0.00     0.033 A 
ENDBRANCH   1  15
TORSDOF 4
