REMARK  3 active torsions:
REMARK  status: ('A' for Active; 'I' for Inactive)
REMARK    1  A    between atoms: N1_9  and  N3_12 
REMARK    2  A    between atoms: N3_12  and  C9_13 
REMARK    3  A    between atoms: C12_16  and  C14_19 
ROOT
ATOM      1  N3  <0> d           2.373   1.011  -0.015  0.00  0.00    -0.272 N 
ATOM      2  H6  <0> d           2.908   0.941   0.791  0.00  0.00     0.189 HD
ENDROOT
BRANCH   1   3
ATOM      3  N1  <0> d           1.175   1.736   0.000  0.00  0.00    -0.212 N 
ATOM      4  C7  <0> d           1.210   3.089   0.007  0.00  0.00     0.280 A 
ATOM      5  C5  <0> d          -0.077   3.800   0.022  0.00  0.00     0.063 A 
ATOM      6  O1  <0> d           2.267   3.694  -0.001  0.00  0.00    -0.265 OA
ATOM      7  C4  <0> d          -1.260   3.029   0.029  0.00  0.00     0.073 A 
ATOM      8  C6  <0> d          -0.150   5.192   0.030  0.00  0.00     0.019 A 
ATOM      9  C3  <0> d          -2.498   3.675   0.045  0.00  0.00     0.032 A 
ATOM     10  N2  <0> d          -1.164   1.676   0.017  0.00  0.00    -0.241 NA
ATOM     11  C2  <0> d          -2.549   5.051   0.053  0.00  0.00     0.002 A 
ATOM     12  C1  <0> d          -1.383   5.806   0.046  0.00  0.00     0.001 A 
ATOM     13  C8  <0> d          -0.013   1.076   0.008  0.00  0.00     0.236 A 
ENDBRANCH   1   3
BRANCH   1  14
ATOM     14  C9  <0> d           2.795   0.390  -1.186  0.00  0.00     0.164 A 
ATOM     15  N4  <0> d           2.057   0.484  -2.281  0.00  0.00    -0.240 NA
ATOM     16  C13 <0> d           2.424  -0.086  -3.414  0.00  0.00     0.135 A 
ATOM     17  C12 <0> d           3.593  -0.814  -3.494  0.00  0.00     0.067 A 
ATOM     18  C11 <0> d           4.394  -0.943  -2.366  0.00  0.00     0.045 A 
ATOM     19  C10 <0> d           3.987  -0.330  -1.194  0.00  0.00     0.082 A 
ATOM     20 Cl1  <0> d           4.949  -0.457   0.245  0.00  0.00    -0.080 Cl
BRANCH  17  21
ATOM     21  C14 <0> d           3.997  -1.464  -4.792  0.00  0.00     0.418 C 
ATOM     22  F1  <0> d           3.466  -2.757  -4.852  0.00  0.00    -0.166 F 
ATOM     23  F2  <0> d           3.508  -0.709  -5.864  0.00  0.00    -0.166 F 
ATOM     24  F3  <0> d           5.393  -1.530  -4.866  0.00  0.00    -0.166 F 
ENDBRANCH  17  21
ENDBRANCH   1  14
TORSDOF 3
