REMARK  5 active torsions:
REMARK  status: ('A' for Active; 'I' for Inactive)
REMARK    1  A    between atoms: C3_3  and  S1_23 
REMARK    2  A    between atoms: N2_6  and  C5_7 
REMARK    3  A    between atoms: C5_7  and  C6_8 
REMARK    4  A    between atoms: C7_10  and  C8_13 
REMARK    5  A    between atoms: S1_23  and  N6_26 
ROOT
ATOM      1  C1  <0> d          -0.019   1.526   0.010  0.00  0.00     0.034 C 
ATOM      2  C2  <0> d           0.002  -0.004   0.002  0.00  0.00     0.124 A 
ATOM      3  C3  <0> d          -1.407  -0.553   0.057  0.00  0.00     0.099 A 
ATOM      4  C4  <0> d          -1.497  -1.261   1.165  0.00  0.00     0.038 A 
ATOM      5  N1  <0> d          -0.311  -1.258   1.871  0.00  0.00    -0.321 N 
ATOM      6  N2  <0> d           0.644  -0.519   1.228  0.00  0.00    -0.215 NA
ATOM      7  C16 <0> d          -2.743  -1.985   1.607  0.00  0.00     0.070 C 
ATOM      8  H6  <0> d          -0.172  -1.720   2.713  0.00  0.00     0.180 HD
ENDROOT
BRANCH   6   9
ATOM      9  C5  <0> d           1.818  -1.339   0.903  0.00  0.00     0.197 C 
BRANCH   9  10
ATOM     10  C6  <0> d           2.517  -1.744   2.175  0.00  0.00     0.170 A 
ATOM     11  N4  <0> d           2.270  -2.821   2.865  0.00  0.00    -0.110 NA
ATOM     12  O1  <0> d           3.155  -2.802   3.975  0.00  0.00    -0.194 OA
ATOM     13  C7  <0> d           3.874  -1.678   3.861  0.00  0.00     0.199 A 
ATOM     14  N3  <0> d           3.487  -1.052   2.784  0.00  0.00    -0.205 NA
BRANCH  13  15
ATOM     15  C8  <0> d           4.947  -1.215   4.813  0.00  0.00     0.185 A 
ATOM     16  N5  <0> d           4.503  -1.395   6.200  0.00  0.00    -0.374 N 
ATOM     17  C15 <0> d           5.329  -2.221   6.798  0.00  0.00     0.039 A 
ATOM     18  H25 <0> d           3.730  -0.973   6.606  0.00  0.00     0.160 HD
ATOM     19  C10 <0> d           6.387  -2.657   5.860  0.00  0.00    -0.011 A 
ATOM     20  C14 <0> d           5.362  -2.731   8.125  0.00  0.00     0.030 A 
ATOM     21  C9  <0> d           6.185  -2.070   4.658  0.00  0.00     0.020 A 
ATOM     22  C11 <0> d           7.409  -3.589   6.351  0.00  0.00     0.013 A 
ATOM     23  C12 <0> d           7.348  -4.013   7.634  0.00  0.00     0.001 A 
ATOM     24  C13 <0> d           6.335  -3.586   8.504  0.00  0.00     0.002 A 
ENDBRANCH  13  15
ENDBRANCH   9  10
ENDBRANCH   6   9
BRANCH   3  25
ATOM     25  S1  <0> d          -2.683  -0.294  -1.130  0.00  0.00     0.260 S 
ATOM     26  O2  <0> d          -3.877  -0.818  -0.565  0.00  0.00    -0.201 OA
ATOM     27  O3  <0> d          -2.571   1.056  -1.558  0.00  0.00    -0.201 OA
BRANCH  25  28
ATOM     28  N6  <0> d          -2.327  -1.238  -2.444  0.00  0.00    -0.307 N 
ATOM     29  C20 <0> d          -2.771  -2.629  -2.648  0.00  0.00     0.135 C 
ATOM     30  C19 <0> d          -2.739  -2.831  -4.186  0.00  0.00     0.022 C 
ATOM     31  C18 <0> d          -1.476  -2.020  -4.578  0.00  0.00     0.022 C 
ATOM     32  C17 <0> d          -1.512  -0.829  -3.597  0.00  0.00     0.135 C 
ENDBRANCH  25  28
ENDBRANCH   3  25
TORSDOF 5
