REMARK  4 active torsions:
REMARK  status: ('A' for Active; 'I' for Inactive)
REMARK    1  A    between atoms: C2_2  and  N1_3 
REMARK    2  A    between atoms: C4_5  and  C12_15 
REMARK       I    between atoms: C12_15  and  N3_17 
REMARK    3  A    between atoms: N3_17  and  C13_18 
REMARK    4  A    between atoms: C13_18  and  C15_20 
ROOT
ATOM      1  C12 <0> d          -5.643  -0.864   1.476  0.00  0.00     0.257 C 
ATOM      2  O2  <0> d          -5.749  -2.052   1.236  0.00  0.00    -0.267 OA
ATOM      3  N3  <0> d          -4.647  -0.149   0.915  0.00  0.00    -0.348 N 
ATOM      4  H13 <0> d          -4.563   0.798   1.107  0.00  0.00     0.163 HD
ENDROOT
BRANCH   1   5
ATOM      5  C4  <0> d          -6.603  -0.207   2.378  0.00  0.00     0.098 A 
ATOM      6  C3  <0> d          -6.492   1.137   2.663  0.00  0.00     0.114 A 
ATOM      7  N1  <0> d          -7.350   1.771   3.474  0.00  0.00    -0.340 N 
ATOM      8  C7  <0> d          -8.399   1.135   4.096  0.00  0.00     0.144 A 
ATOM      9  C6  <0> d          -8.612  -0.239   3.887  0.00  0.00     0.061 A 
ATOM     10  N2  <0> d          -9.215   1.811   4.895  0.00  0.00    -0.235 NA
ATOM     11  C5  <0> d          -7.696  -0.975   2.997  0.00  0.00     0.203 A 
ATOM     12  C10 <0> d          -9.678  -0.879   4.521  0.00  0.00     0.021 A 
ATOM     13  O1  <0> d          -7.837  -2.166   2.783  0.00  0.00    -0.286 OA
ATOM     14  C9  <0> d         -10.494  -0.121   5.342  0.00  0.00     0.028 A 
ATOM     15  C8  <0> d         -10.227   1.229   5.504  0.00  0.00     0.033 A 
ATOM     16  C11 <0> d         -11.118   2.052   6.398  0.00  0.00     0.070 C 
BRANCH   7  17
ATOM     17  C2  <0> d          -7.158   3.203   3.715  0.00  0.00     0.125 C 
ATOM     18  C1  <0> d          -6.345   3.401   4.995  0.00  0.00     0.027 C 
ENDBRANCH   7  17
ENDBRANCH   1   5
BRANCH   3  19
ATOM     19  C13 <0> d          -3.692  -0.803   0.018  0.00  0.00     0.114 C 
ATOM     20  C14 <0> d          -4.266  -0.838  -1.400  0.00  0.00     0.037 C 
BRANCH  19  21
ATOM     21  C15 <0> d          -2.397  -0.033   0.016  0.00  0.00    -0.033 A 
ATOM     22  C20 <0> d          -1.192  -0.710   0.004  0.00  0.00     0.049 A 
ATOM     23  C19 <0> d           0.002  -0.004   0.002  0.00  0.00     0.102 A 
ATOM     24  C18 <0> d          -0.017   1.385   0.010  0.00  0.00     0.102 A 
ATOM     25  O3  <0> d           1.181  -0.685  -0.007  0.00  0.00    -0.346 OA
ATOM     26  C17 <0> d          -1.229   2.059   0.019  0.00  0.00     0.040 A 
ATOM     27  O4  <0> d           1.143   2.098   0.002  0.00  0.00    -0.346 OA
ATOM     28  C16 <0> d          -2.415   1.349   0.025  0.00  0.00     0.012 A 
ATOM     29  C22 <0> d           2.334   1.392   0.364  0.00  0.00     0.202 C 
ATOM     30  C21 <0> d           2.347   0.053  -0.387  0.00  0.00     0.202 C 
ENDBRANCH  19  21
ENDBRANCH   3  19
TORSDOF 4
