REMARK  5 active torsions:
REMARK  status: ('A' for Active; 'I' for Inactive)
REMARK    1  A    between atoms: C2_2  and  N1_3 
REMARK    2  A    between atoms: C5_7  and  N3_10 
REMARK    3  A    between atoms: N3_10  and  C7_11 
REMARK    4  A    between atoms: C7_11  and  C8_12 
REMARK    5  A    between atoms: C11_16  and  O2_18 
ROOT
ATOM      1  N3  <0> d          -4.108  -1.512  -2.252  0.00  0.00    -0.366 N 
ATOM      2  H8  <0> d          -3.694  -1.356  -3.115  0.00  0.00     0.161 HD
ENDROOT
BRANCH   1   3
ATOM      3  C5  <0> d          -3.400  -1.254  -1.086  0.00  0.00     0.193 A 
ATOM      4  N2  <0> d          -3.952  -1.463   0.090  0.00  0.00    -0.237 NA
ATOM      5  C4  <0> d          -3.277  -1.218   1.213  0.00  0.00     0.136 A 
ATOM      6  C3  <0> d          -2.011  -0.751   1.193  0.00  0.00     0.113 A 
ATOM      7  N1  <0> d          -1.372  -0.511   0.012  0.00  0.00    -0.320 N 
ATOM      8  C6  <0> d          -2.026  -0.742  -1.148  0.00  0.00     0.293 A 
ATOM      9  O1  <0> d          -1.485  -0.533  -2.221  0.00  0.00    -0.264 OA
BRANCH   7  10
ATOM     10  C2  <0> d           0.002  -0.004   0.002  0.00  0.00     0.127 C 
ATOM     11  C1  <0> d          -0.019   1.526   0.010  0.00  0.00     0.027 C 
ENDBRANCH   7  10
ENDBRANCH   1   3
BRANCH   1  12
ATOM     12  C7  <0> d          -5.481  -2.018  -2.179  0.00  0.00     0.160 C 
BRANCH  12  13
ATOM     13  C8  <0> d          -6.020  -2.212  -3.572  0.00  0.00    -0.035 A 
ATOM     14  C12 <0> d          -5.862  -3.418  -4.231  0.00  0.00     0.066 A 
ATOM     15  C11 <0> d          -6.377  -3.561  -5.513  0.00  0.00     0.164 A 
ATOM     16  N4  <0> d          -7.002  -2.557  -6.104  0.00  0.00    -0.237 NA
ATOM     17  C10 <0> d          -7.164  -1.393  -5.503  0.00  0.00     0.120 A 
ATOM     18  C9  <0> d          -6.682  -1.182  -4.227  0.00  0.00     0.028 A 
BRANCH  15  19
ATOM     19  O2  <0> d          -6.234  -4.741  -6.168  0.00  0.00    -0.339 OA
ATOM     20  C13 <0> d          -6.780  -4.823  -7.485  0.00  0.00     0.211 C 
ENDBRANCH  15  19
ENDBRANCH  12  13
ENDBRANCH   1  12
TORSDOF 5
