REMARK  6 active torsions:
REMARK  status: ('A' for Active; 'I' for Inactive)
REMARK    1  A    between atoms: N1_7  and  C6_8 
REMARK    2  A    between atoms: C6_8  and  N2_9 
REMARK    3  A    between atoms: C8_13  and  N4_15 
REMARK    4  A    between atoms: N4_15  and  C9_16 
REMARK    5  A    between atoms: C9_16  and  C10_17 
REMARK    6  A    between atoms: C10_17  and  O2_18 
ROOT
ATOM      1  N2  <0> d           1.404   0.154   3.357  0.00  0.00    -0.222 N 
ATOM      2  C7  <0> d           1.573  -0.742   4.362  0.00  0.00     0.166 A 
ATOM      3  S1  <0> d           0.645  -2.128   4.751  0.00  0.00    -0.051 SA
ATOM      4  S2  <0> d           3.024  -0.085   5.169  0.00  0.00    -0.019 SA
ATOM      5  C8  <0> d           3.279   1.322   4.099  0.00  0.00     0.189 A 
ATOM      6  N3  <0> d           2.296   1.195   3.246  0.00  0.00    -0.143 NA
ENDROOT
BRANCH   1   7
ATOM      7  C6  <0> d           0.299   0.011   2.406  0.00  0.00     0.425 C 
BRANCH   7   8
ATOM      8  N1  <0> d           0.816  -0.490   1.126  0.00  0.00     0.116 N 
ATOM      9  C2  <0> d          -0.072  -0.115   0.016  0.00  0.00     0.244 C 
ATOM     10  C1  <0> d          -0.223   1.407  -0.026  0.00  0.00     0.045 C 
ATOM     11  C3  <0> d           0.532  -0.605  -1.303  0.00  0.00     0.203 C 
ATOM     12  O1  <0> d           0.741  -2.018  -1.231  0.00  0.00    -0.387 OA
ATOM     13  C4  <0> d           1.602  -2.418  -0.162  0.00  0.00     0.198 C 
ATOM     14  C5  <0> d           1.009  -1.947   1.169  0.00  0.00     0.301 C 
ENDBRANCH   7   8
ENDBRANCH   1   7
BRANCH   5  15
ATOM     15  N4  <0> d           4.267   2.295   4.156  0.00  0.00    -0.366 N 
ATOM     16  H13 <0> d           4.282   3.010   3.501  0.00  0.00     0.161 HD
BRANCH  15  17
ATOM     17  C9  <0> d           5.288   2.241   5.205  0.00  0.00     0.148 C 
BRANCH  17  18
ATOM     18  C10 <0> d           6.249   3.421   5.042  0.00  0.00     0.186 C 
BRANCH  18  19
ATOM     19  O2  <0> d           5.544   4.644   5.262  0.00  0.00    -0.394 OA
ATOM     20  C11 <0> d           6.354   5.814   5.133  0.00  0.00     0.201 C 
ENDBRANCH  18  19
ENDBRANCH  17  18
ENDBRANCH  15  17
ENDBRANCH   5  15
TORSDOF 6
