REMARK  4 active torsions:
REMARK  status: ('A' for Active; 'I' for Inactive)
REMARK    1  A    between atoms: C6_6  and  N5_20 
REMARK    2  A    between atoms: C11_12  and  N3_18 
REMARK    3  A    between atoms: C12_14  and  S2_16 
REMARK    4  A    between atoms: N3_18  and  N4_19 
ROOT
ATOM      1  C1  <0> d           4.830  -2.942  -0.210  0.00  0.00     0.046 C 
ATOM      2  C2  <0> d           3.557  -2.181   0.163  0.00  0.00     0.058 C 
ATOM      3  C3  <0> d           3.720  -0.700  -0.187  0.00  0.00     0.077 C 
ATOM      4  C4  <0> d           2.388  -0.006  -0.090  0.00  0.00    -0.028 A 
ATOM      5  C5  <0> d           1.216  -0.695  -0.076  0.00  0.00     0.011 A 
ATOM      6  C6  <0> d           0.002  -0.004   0.002  0.00  0.00     0.092 A 
ATOM      7  C7  <0> d           1.103   2.015   0.063  0.00  0.00     0.089 A 
ATOM      8  C8  <0> d           2.368   1.408  -0.017  0.00  0.00     0.035 A 
ATOM      9  C9  <0> d           3.524   2.324  -0.015  0.00  0.00     0.094 A 
ATOM     10  C10 <0> d           3.224   3.688   0.070  0.00  0.00     0.083 A 
ATOM     11  S1  <0> d           1.454   3.754   0.143  0.00  0.00    -0.065 SA
ATOM     12  C11 <0> d           4.230   4.643   0.081  0.00  0.00     0.160 A 
ATOM     13  N1  <0> d           5.495   4.232   0.007  0.00  0.00    -0.203 NA
ATOM     14  C12 <0> d           5.768   2.936  -0.075  0.00  0.00     0.190 A 
ATOM     15  N2  <0> d           4.836   2.006  -0.087  0.00  0.00    -0.221 NA
ATOM     16  C18 <0> d           1.188  -2.201  -0.136  0.00  0.00     0.211 C 
ATOM     17  O2  <0> d           2.449  -2.701  -0.580  0.00  0.00    -0.376 OA
ATOM     18  C19 <0> d           3.287  -2.329   1.662  0.00  0.00     0.046 C 
ATOM     19  N6  <0> d          -0.081   1.355   0.072  0.00  0.00    -0.340 N 
ATOM     20  H25 <0> d          -0.981   1.845   0.129  0.00  0.00     0.167 HD
ENDROOT
BRANCH   6  21
ATOM     21  N5  <0> d          -1.194  -0.710   0.010  0.00  0.00    -0.265 NA
ATOM     22  C17 <0> d          -1.930  -0.484   1.262  0.00  0.00     0.123 C 
ATOM     23  C16 <0> d          -3.209  -1.325   1.254  0.00  0.00     0.182 C 
ATOM     24  O1  <0> d          -3.986  -0.990   0.101  0.00  0.00    -0.389 OA
ATOM     25  C15 <0> d          -3.300  -1.198  -1.137  0.00  0.00     0.182 C 
ATOM     26  C14 <0> d          -2.022  -0.356  -1.152  0.00  0.00     0.123 C 
ENDBRANCH   6  21
BRANCH  12  27
ATOM     27  N3  <0> d           3.926   5.993   0.166  0.00  0.00    -0.307 N 
ATOM     28  H9  <0> d           3.001   6.280   0.219  0.00  0.00     0.182 HD
BRANCH  27  29
ATOM     29  N4  <0> d           4.930   6.920   0.175  0.00  0.00    -0.248 NA
ATOM     30  H10 <0> d           4.558   7.856   0.241  0.00  0.00     0.143 HD
ATOM     31  H11 <0> d           5.584   6.737   0.922  0.00  0.00     0.143 HD
ENDBRANCH  27  29
ENDBRANCH  12  27
BRANCH  14  32
ATOM     32  S2  <0> d           7.455   2.437  -0.171  0.00  0.00    -0.095 SA
ATOM     33  C13 <0> d           8.265   4.055  -0.116  0.00  0.00     0.099 C 
ENDBRANCH  14  32
TORSDOF 4
