REMARK  3 active torsions:
REMARK  status: ('A' for Active; 'I' for Inactive)
REMARK    1  A    between atoms: C9_9  and  C11_12 
REMARK       I    between atoms: C11_12  and  N2_14 
REMARK    2  A    between atoms: N2_14  and  N3_15 
REMARK       I    between atoms: N3_15  and  C12_16 
REMARK    3  A    between atoms: C12_16  and  C13_18 
ROOT
ATOM      1  C11 <0> d           2.380   1.022   0.457  0.00  0.00     0.286 C 
ATOM      2  O1  <0> d           1.313   1.606   0.438  0.00  0.00    -0.264 OA
ATOM      3  N2  <0> d           2.414  -0.315   0.623  0.00  0.00    -0.262 N 
ATOM      4  H11 <0> d           3.256  -0.791   0.555  0.00  0.00     0.190 HD
ENDROOT
BRANCH   1   5
ATOM      5  C9  <0> d           3.634   1.776   0.299  0.00  0.00     0.105 A 
ATOM      6  C8  <0> d           4.876   1.230   0.223  0.00  0.00     0.049 A 
ATOM      7  C6  <0> d           5.803   2.290   0.074  0.00  0.00    -0.006 A 
ATOM      8  C5  <0> d           5.061   3.487   0.066  0.00  0.00     0.045 A 
ATOM      9  C7  <0> d           7.198   2.338  -0.052  0.00  0.00     0.020 A 
ATOM     10  C4  <0> d           5.726   4.703  -0.069  0.00  0.00     0.031 A 
ATOM     11  N1  <0> d           3.735   3.150   0.198  0.00  0.00    -0.346 N 
ATOM     12  C3  <0> d           7.097   4.724  -0.192  0.00  0.00     0.009 A 
ATOM     13  C2  <0> d           7.826   3.542  -0.183  0.00  0.00    -0.061 A 
ATOM     14  C1  <0> d           9.326   3.589  -0.319  0.00  0.00     0.048 C 
ATOM     15  C10 <0> d           2.614   4.092   0.231  0.00  0.00     0.156 C 
ENDBRANCH   1   5
BRANCH   3  16
ATOM     16  N3  <0> d           1.232  -1.017   0.893  0.00  0.00    -0.263 N 
ATOM     17  C12 <0> d           1.267  -2.353   1.064  0.00  0.00     0.270 C 
ATOM     18  O2  <0> d           2.323  -2.950   0.979  0.00  0.00    -0.266 OA
ATOM     19  H12 <0> d           0.390  -0.541   0.961  0.00  0.00     0.190 HD
BRANCH  17  20
ATOM     20  C13 <0> d           0.021  -3.094   1.356  0.00  0.00     0.033 A 
ATOM     21  C18 <0> d           0.054  -4.478   1.534  0.00  0.00     0.018 A 
ATOM     22  C17 <0> d          -1.112  -5.163   1.805  0.00  0.00     0.020 A 
ATOM     23  C16 <0> d          -2.313  -4.480   1.901  0.00  0.00     0.011 A 
ATOM     24  C15 <0> d          -2.352  -3.107   1.725  0.00  0.00     0.020 A 
ATOM     25 Br1  <0> d          -3.907  -5.427   2.274  0.00  0.00    -0.051 Br
ATOM     26  C14 <0> d          -1.192  -2.410   1.460  0.00  0.00     0.018 A 
ENDBRANCH  17  20
ENDBRANCH   3  16
TORSDOF 3
