REMARK  4 active torsions:
REMARK  status: ('A' for Active; 'I' for Inactive)
REMARK    1  A    between atoms: C3_3  and  C16_23 
REMARK    2  A    between atoms: C4_5  and  N2_7 
REMARK       I    between atoms: N2_7  and  C5_8 
REMARK    3  A    between atoms: C5_8  and  C6_10 
REMARK    4  A    between atoms: C9_13  and  N3_16 
ROOT
ATOM      1  C6  <0> d          -3.373  -3.901   6.058  0.00  0.00     0.032 A 
ATOM      2  C7  <0> d          -2.981  -5.108   5.473  0.00  0.00     0.019 A 
ATOM      3  C8  <0> d          -3.304  -6.302   6.078  0.00  0.00     0.031 A 
ATOM      4  C9  <0> d          -4.029  -6.308   7.265  0.00  0.00     0.045 A 
ATOM      5  C10 <0> d          -4.426  -5.109   7.847  0.00  0.00     0.031 A 
ATOM      6  C11 <0> d          -4.102  -3.911   7.250  0.00  0.00     0.019 A 
ENDROOT
BRANCH   1   7
ATOM      7  C5  <0> d          -3.025  -2.620   5.415  0.00  0.00     0.257 C 
ATOM      8  N2  <0> d          -2.322  -2.612   4.264  0.00  0.00    -0.301 N 
ATOM      9  H4  <0> d          -2.045  -3.449   3.860  0.00  0.00     0.171 HD
ATOM     10  O1  <0> d          -3.371  -1.571   5.922  0.00  0.00    -0.267 OA
BRANCH   8  11
ATOM     11  C4  <0> d          -1.995  -1.413   3.662  0.00  0.00     0.174 A 
ATOM     12  S1  <0> d          -1.108  -1.141   2.195  0.00  0.00    -0.046 SA
ATOM     13  C3  <0> d          -1.177   0.645   2.208  0.00  0.00     0.078 A 
ATOM     14  C2  <0> d          -1.895   0.865   3.381  0.00  0.00     0.054 A 
ATOM     15  C1  <0> d          -2.220   2.260   3.848  0.00  0.00     0.072 C 
ATOM     16  N1  <0> d          -2.281  -0.181   4.060  0.00  0.00    -0.228 NA
BRANCH  13  17
ATOM     17  C16 <0> d          -0.647   1.573   1.290  0.00  0.00     0.164 C 
ATOM     18  O4  <0> d          -0.800   2.764   1.473  0.00  0.00    -0.292 OA
ATOM     19  C17 <0> d           0.110   1.089   0.080  0.00  0.00     0.097 C 
ENDBRANCH  13  17
ENDBRANCH   8  11
ENDBRANCH   1   7
BRANCH   4  20
ATOM     20  N3  <0> d          -4.360  -7.522   7.874  0.00  0.00    -0.252 N 
ATOM     21  C15 <0> d          -5.215  -8.396   7.329  0.00  0.00     0.231 A 
ATOM     22  C14 <0> d          -5.348  -9.596   8.241  0.00  0.00     0.113 A 
ATOM     23  O3  <0> d          -5.791  -8.250   6.273  0.00  0.00    -0.273 OA
ATOM     24  C13 <0> d          -4.412  -9.261   9.419  0.00  0.00     0.113 A 
ATOM     25  C12 <0> d          -3.844  -7.909   9.047  0.00  0.00     0.231 A 
ATOM     26  O2  <0> d          -3.049  -7.275   9.707  0.00  0.00    -0.273 OA
ENDBRANCH   4  20
TORSDOF 4
