REMARK  4 active torsions:
REMARK  status: ('A' for Active; 'I' for Inactive)
REMARK    1  A    between atoms: C2_2  and  C3_3 
REMARK    2  A    between atoms: C2_2  and  N2_9 
REMARK    3  A    between atoms: C3_3  and  N1_4 
REMARK    4  A    between atoms: C15_17  and  N3_18 
ROOT
ATOM      1  N2  <0> d           0.711  -0.489   1.189  0.00  0.00    -0.354 N 
ATOM      2  C8  <0> d           0.352  -0.249   2.484  0.00  0.00     0.092 A 
ATOM      3  C9  <0> d           1.247  -0.859   3.292  0.00  0.00     0.028 A 
ATOM      4  C10 <0> d           2.186  -1.494   2.467  0.00  0.00    -0.004 A 
ATOM      5  C11 <0> d           1.830  -1.258   1.184  0.00  0.00     0.021 A 
ATOM      6  C12 <0> d           2.586  -1.784  -0.012  0.00  0.00     0.066 C 
ATOM      7  C13 <0> d           3.505  -2.919   0.456  0.00  0.00    -0.040 C 
ATOM      8  C14 <0> d           4.313  -2.455   1.671  0.00  0.00     0.046 C 
ATOM      9  C15 <0> d           3.386  -2.307   2.881  0.00  0.00     0.219 C 
ATOM     10  C16 <0> d           4.460  -3.301  -0.676  0.00  0.00     0.015 C 
ATOM     11  C17 <0> d           2.658  -4.134   0.841  0.00  0.00     0.015 C 
ENDROOT
BRANCH   1  12
ATOM     12  C2  <0> d           0.002  -0.004   0.002  0.00  0.00     0.111 C 
ATOM     13  C1  <0> d          -0.019   1.526   0.010  0.00  0.00     0.034 C 
BRANCH  12  14
ATOM     14  C3  <0> d          -1.433  -0.534   0.013  0.00  0.00     0.260 C 
BRANCH  14  15
ATOM     15  N1  <0> d          -2.107  -0.147  -1.234  0.00  0.00    -0.069 N 
ATOM     16  C7  <0> d          -3.530  -0.547  -1.189  0.00  0.00     0.235 C 
ATOM     17  C6  <0> d          -3.925  -0.973  -2.616  0.00  0.00     0.029 C 
ATOM     18  C5  <0> d          -2.635  -0.820  -3.454  0.00  0.00     0.029 C 
ATOM     19  C4  <0> d          -1.517  -0.880  -2.383  0.00  0.00     0.235 C 
ATOM     20  H31 <0> d          -2.030   0.848  -1.378  0.00  0.00     0.280 HD
ENDBRANCH  14  15
ENDBRANCH  12  14
ENDBRANCH   1  12
BRANCH   9  21
ATOM     21  N3  <0> d           4.089  -1.628   3.978  0.00  0.00    -0.071 N 
ATOM     22  H22 <0> d           3.466  -1.526   4.765  0.00  0.00     0.275 HD
ATOM     23  H23 <0> d           4.892  -2.175   4.253  0.00  0.00     0.275 HD
ATOM     24  H30 <0> d           4.393  -0.717   3.669  0.00  0.00     0.275 HD
ENDBRANCH   9  21
TORSDOF 4
