REMARK  3 active torsions:
REMARK  status: ('A' for Active; 'I' for Inactive)
REMARK    1  A    between atoms: C4_6  and  C5_7 
REMARK    2  A    between atoms: C5_7  and  C6_8 
REMARK    3  A    between atoms: C5_7  and  O1_16 
ROOT
ATOM      1  C5  <0> d          -0.188  -0.327   2.503  0.00  0.00     0.219 C 
ENDROOT
BRANCH   1   2
ATOM      2  C4  <0> d          -0.055  -0.790   1.075  0.00  0.00     0.117 A 
ATOM      3  N1  <0> d          -0.043  -2.075   0.662  0.00  0.00    -0.347 N 
ATOM      4  C1  <0> d          -0.158  -3.263   1.512  0.00  0.00     0.157 C 
ATOM      5  C2  <0> d           0.088  -2.062  -0.700  0.00  0.00     0.108 A 
ATOM      6  C3  <0> d           0.158  -0.769  -1.072  0.00  0.00     0.106 A 
ATOM      7  N2  <0> d           0.071  -0.014   0.033  0.00  0.00    -0.352 N 
ATOM      8  H11 <0> d           0.095   0.955   0.054  0.00  0.00     0.166 HD
ENDBRANCH   1   2
BRANCH   1   9
ATOM      9  C6  <0> d           1.182  -0.082   3.081  0.00  0.00    -0.019 A 
ATOM     10  C11 <0> d           1.813  -1.074   3.808  0.00  0.00     0.054 A 
ATOM     11  C10 <0> d           3.074  -0.851   4.334  0.00  0.00     0.134 A 
ATOM     12  C9  <0> d           3.698   0.371   4.141  0.00  0.00     0.049 A 
ATOM     13  F1  <0> d           3.694  -1.823   5.039  0.00  0.00    -0.205 F 
ATOM     14  C8  <0> d           3.062   1.364   3.418  0.00  0.00     0.023 A 
ATOM     15 Br1  <0> d           5.417   0.680   4.864  0.00  0.00    -0.048 Br
ATOM     16  C7  <0> d           1.805   1.137   2.889  0.00  0.00     0.012 A 
ENDBRANCH   1   9
BRANCH   1  17
ATOM     17  O1  <0> d          -0.945   0.884   2.543  0.00  0.00    -0.383 OA
ATOM     18  H10 <0> d          -0.598   1.584   1.974  0.00  0.00     0.211 HD
ENDBRANCH   1  17
TORSDOF 3
