REMARK  6 active torsions:
REMARK  status: ('A' for Active; 'I' for Inactive)
REMARK    1  A    between atoms: C2_2  and  C3_3 
REMARK       I    between atoms: C3_3  and  N1_5 
REMARK    2  A    between atoms: N1_5  and  C4_6 
REMARK    3  A    between atoms: C7_9  and  N2_13 
REMARK       I    between atoms: N2_13  and  C11_14 
REMARK       I    between atoms: C11_14  and  N3_16 
REMARK    4  A    between atoms: N3_16  and  C12_17 
REMARK    5  A    between atoms: C12_17  and  C13_18 
REMARK    6  A    between atoms: C18_23  and  N4_24 
ROOT
ATOM      1  N2  <0> d          -6.858  -3.768  -0.372  0.00  0.00    -0.309 N 
ATOM      2  C11 <0> d          -7.879  -2.909  -0.566  0.00  0.00     0.320 C 
ATOM      3  O2  <0> d          -7.673  -1.711  -0.567  0.00  0.00    -0.247 OA
ATOM      4  N3  <0> d          -9.127  -3.378  -0.758  0.00  0.00    -0.339 N 
ATOM      5  H13 <0> d          -7.032  -4.720  -0.302  0.00  0.00     0.170 HD
ATOM      6  H14 <0> d          -9.292  -4.334  -0.757  0.00  0.00     0.164 HD
ENDROOT
BRANCH   1   7
ATOM      7  C7  <0> d          -5.547  -3.286  -0.272  0.00  0.00     0.036 A 
ATOM      8  C6  <0> d          -4.492  -4.032  -0.783  0.00  0.00     0.032 A 
ATOM      9  C5  <0> d          -3.200  -3.557  -0.685  0.00  0.00     0.032 A 
ATOM     10  C4  <0> d          -2.954  -2.334  -0.074  0.00  0.00     0.040 A 
ATOM     11  C9  <0> d          -4.008  -1.591   0.442  0.00  0.00    -0.033 A 
ATOM     12  C8  <0> d          -5.301  -2.063   0.338  0.00  0.00     0.038 A 
ATOM     13  C10 <0> d          -3.740  -0.268   1.111  0.00  0.00     0.050 C 
BRANCH  10  14
ATOM     14  N1  <0> d          -1.642  -1.852   0.025  0.00  0.00    -0.327 N 
ATOM     15  C3  <0> d          -0.605  -2.712   0.012  0.00  0.00     0.221 C 
ATOM     16  O1  <0> d          -0.809  -3.908   0.014  0.00  0.00    -0.273 OA
ATOM     17  H6  <0> d          -1.481  -0.898   0.105  0.00  0.00     0.169 HD
BRANCH  15  18
ATOM     18  C2  <0> d           0.808  -2.189  -0.007  0.00  0.00     0.098 C 
ATOM     19  C1  <0> d           1.787  -3.365  -0.020  0.00  0.00     0.014 C 
ENDBRANCH  15  18
ENDBRANCH  10  14
ENDBRANCH   1   7
BRANCH   4  20
ATOM     20  C12 <0> d         -10.237  -2.445  -0.969  0.00  0.00     0.165 C 
BRANCH  20  21
ATOM     21  C13 <0> d         -11.516  -3.219  -1.158  0.00  0.00    -0.013 A 
ATOM     22  C18 <0> d         -12.193  -3.720  -0.055  0.00  0.00     0.047 A 
ATOM     23  C17 <0> d         -13.375  -4.428  -0.232  0.00  0.00     0.030 A 
ATOM     24  C16 <0> d         -13.866  -4.640  -1.505  0.00  0.00     0.002 A 
ATOM     25  C15 <0> d         -13.186  -4.144  -2.602  0.00  0.00     0.001 A 
ATOM     26  C14 <0> d         -12.012  -3.435  -2.429  0.00  0.00     0.011 A 
BRANCH  22  27
ATOM     27  N4  <0> d         -11.689  -3.507   1.236  0.00  0.00    -0.315 N 
ATOM     28  C21 <0> d         -10.418  -3.741   1.655  0.00  0.00     0.214 A 
ATOM     29  N5  <0> d         -10.330  -3.418   2.917  0.00  0.00    -0.254 NA
ATOM     30  C20 <0> d         -11.523  -2.982   3.348  0.00  0.00     0.135 A 
ATOM     31  C19 <0> d         -12.386  -3.029   2.315  0.00  0.00     0.117 A 
ENDBRANCH  22  27
ENDBRANCH  20  21
ENDBRANCH   4  20
TORSDOF 6
