REMARK  8 active torsions:
REMARK  status: ('A' for Active; 'I' for Inactive)
REMARK    1  A    between atoms: C1_1  and  C2_2 
REMARK    2  A    between atoms: C1_1  and  S1_10 
REMARK    3  A    between atoms: C3_4  and  N5_9 
REMARK    4  A    between atoms: C4_6  and  N4_8 
REMARK    5  A    between atoms: S1_10  and  C5_11 
REMARK    6  A    between atoms: C5_11  and  C6_12 
REMARK    7  A    between atoms: C6_12  and  C7_13 
REMARK    8  A    between atoms: C6_12  and  N6_16 
ROOT
ATOM      1  C2  <0> d           0.002  -0.004   0.002  0.00  0.00     0.173 A 
ATOM      2  N1  <0> d           0.006  -0.657  -1.147  0.00  0.00    -0.046 NA
ATOM      3  C3  <0> d           0.024  -1.988  -1.158  0.00  0.00     0.737 A 
ATOM      4  N2  <0> d           0.039  -2.660  -0.013  0.00  0.00     0.129 NA
ATOM      5  C4  <0> d           0.035  -2.000   1.141  0.00  0.00     0.737 A 
ATOM      6  N3  <0> d           0.022  -0.669   1.144  0.00  0.00    -0.046 NA
ENDROOT
BRANCH   1   7
ATOM      7  C1  <0> d          -0.018   1.503   0.010  0.00  0.00     0.155 C 
BRANCH   7   8
ATOM      8  S1  <0> d           1.683   2.131  -0.003  0.00  0.00    -0.159 SA
BRANCH   8   9
ATOM      9  C5  <0> d           1.486   3.934   0.009  0.00  0.00     0.118 C 
BRANCH   9  10
ATOM     10  C6  <0> d           2.864   4.598  -0.001  0.00  0.00     0.292 C 
BRANCH  10  11
ATOM     11  C7  <0> d           2.700   6.096   0.009  0.00  0.00     0.205 C 
ATOM     12  O1  <0> d           2.644   6.696   1.069  0.00  0.00    -0.646 OA
ATOM     13  O2  <0> d           2.624   6.707  -1.043  0.00  0.00    -0.646 OA
ENDBRANCH  10  11
BRANCH  10  14
ATOM     14  N6  <0> d           3.618   4.180   1.190  0.00  0.00    -0.065 N 
ATOM     15  H10 <0> d           3.727   3.177   1.183  0.00  0.00     0.275 HD
ATOM     16  H11 <0> d           4.527   4.618   1.183  0.00  0.00     0.275 HD
ATOM     17  H12 <0> d           3.116   4.458   2.020  0.00  0.00     0.275 HD
ENDBRANCH  10  14
ENDBRANCH   9  10
ENDBRANCH   8   9
ENDBRANCH   7   8
ENDBRANCH   1   7
BRANCH   5  18
ATOM     18  N4  <0> d           0.051  -2.694   2.333  0.00  0.00    -0.230 N 
ATOM     19  H4  <0> d           0.064  -3.664   2.330  0.00  0.00     0.174 HD
ATOM     20  H5  <0> d           0.048  -2.212   3.175  0.00  0.00     0.174 HD
ENDBRANCH   5  18
BRANCH   3  21
ATOM     21  N5  <0> d           0.027  -2.668  -2.359  0.00  0.00    -0.230 N 
ATOM     22  H6  <0> d           0.016  -2.177  -3.195  0.00  0.00     0.174 HD
ATOM     23  H7  <0> d           0.041  -3.638  -2.366  0.00  0.00     0.174 HD
ENDBRANCH   3  21
TORSDOF 8
