REMARK  5 active torsions:
REMARK  status: ('A' for Active; 'I' for Inactive)
REMARK    1  A    between atoms: C9_12  and  C10_13 
REMARK    2  A    between atoms: C10_13  and  C11_14 
REMARK    3  A    between atoms: C14_17  and  C15_19 
REMARK    4  A    between atoms: C18_22  and  S1_25 
REMARK    5  A    between atoms: S1_25  and  N3_28 
ROOT
ATOM      1  C11 <0> d          -0.016   1.345   0.009  0.00  0.00     0.077 A 
ATOM      2  C12 <0> d           1.294   1.791  -0.001  0.00  0.00     0.040 A 
ATOM      3  C13 <0> d           2.106   0.654  -0.015  0.00  0.00     0.041 A 
ATOM      4  C14 <0> d           1.277  -0.432  -0.013  0.00  0.00     0.086 A 
ATOM      5  O2  <0> d           0.002  -0.004   0.002  0.00  0.00    -0.310 OA
ENDROOT
BRANCH   1   6
ATOM      6  C10 <0> d          -1.169   2.159   0.020  0.00  0.00     0.061 C 
BRANCH   6   7
ATOM      7  C9  <0> d          -2.409   1.587   0.023  0.00  0.00     0.079 A 
ATOM      8  C8  <0> d          -3.688   2.207   0.039  0.00  0.00     0.271 A 
ATOM      9  N2  <0> d          -4.787   1.440   0.034  0.00  0.00    -0.253 N 
ATOM     10  O1  <0> d          -3.784   3.421   0.051  0.00  0.00    -0.266 OA
ATOM     11  C4  <0> d          -6.179   1.640   0.042  0.00  0.00     0.073 A 
ATOM     12  C7  <0> d          -4.625   0.073   0.027  0.00  0.00     0.182 A 
ATOM     13  C3  <0> d          -6.964   2.780   0.051  0.00  0.00     0.032 A 
ATOM     14  C5  <0> d          -6.774   0.372   0.039  0.00  0.00     0.087 A 
ATOM     15  C2  <0> d          -8.341   2.662   0.058  0.00  0.00     0.002 A 
ATOM     16  C1  <0> d          -8.938   1.410   0.055  0.00  0.00     0.002 A 
ATOM     17  C6  <0> d          -8.168   0.268   0.046  0.00  0.00     0.034 A 
ATOM     18  N1  <0> d          -5.771  -0.543   0.030  0.00  0.00    -0.222 NA
ATOM     19  S2  <0> d          -2.858  -0.142   0.017  0.00  0.00    -0.046 SA
ENDBRANCH   6   7
ENDBRANCH   1   6
BRANCH   4  20
ATOM     20  C15 <0> d           1.710  -1.843  -0.024  0.00  0.00    -0.002 A 
ATOM     21  C20 <0> d           0.761  -2.869  -0.020  0.00  0.00     0.016 A 
ATOM     22  C19 <0> d           1.173  -4.185  -0.031  0.00  0.00     0.026 A 
ATOM     23  C18 <0> d           2.523  -4.491  -0.045  0.00  0.00     0.079 A 
ATOM     24  C17 <0> d           3.468  -3.480  -0.049  0.00  0.00     0.026 A 
ATOM     25  C16 <0> d           3.071  -2.160  -0.044  0.00  0.00     0.016 A 
BRANCH  23  26
ATOM     26  S1  <0> d           3.040  -6.175  -0.058  0.00  0.00     0.256 S 
ATOM     27  O3  <0> d           4.354  -6.201   0.480  0.00  0.00    -0.201 OA
ATOM     28  O4  <0> d           1.973  -6.932   0.499  0.00  0.00    -0.201 OA
BRANCH  26  29
ATOM     29  N3  <0> d           3.169  -6.635  -1.644  0.00  0.00    -0.324 N 
ATOM     30  H12 <0> d           3.814  -7.312  -1.901  0.00  0.00     0.169 HD
ATOM     31  H13 <0> d           2.599  -6.228  -2.315  0.00  0.00     0.169 HD
ENDBRANCH  26  29
ENDBRANCH  23  26
ENDBRANCH   4  20
TORSDOF 5
