REMARK  6 active torsions:
REMARK  status: ('A' for Active; 'I' for Inactive)
REMARK    1  A    between atoms: C2_2  and  N1_3 
REMARK    2  A    between atoms: N1_3  and  C3_4 
REMARK       I    between atoms: N1_3  and  C5_6 
REMARK    3  A    between atoms: C5_6  and  C6_8 
REMARK    4  A    between atoms: C10_12  and  N2_14 
REMARK       I    between atoms: N2_14  and  C12_15 
REMARK    5  A    between atoms: C12_15  and  C13_17 
REMARK    6  A    between atoms: C13_17  and  N3_27 
ROOT
ATOM      1  N2  <0> d           1.269  -3.637  -4.568  0.00  0.00    -0.326 N 
ATOM      2  C12 <0> d           0.814  -2.878  -5.584  0.00  0.00     0.248 C 
ATOM      3  O2  <0> d           0.458  -1.737  -5.376  0.00  0.00    -0.271 OA
ATOM      4  H15 <0> d           1.623  -4.523  -4.745  0.00  0.00     0.169 HD
ENDROOT
BRANCH   1   5
ATOM      5  C10 <0> d           1.231  -3.148  -3.257  0.00  0.00     0.035 A 
ATOM      6  C9  <0> d           0.975  -4.013  -2.200  0.00  0.00     0.029 A 
ATOM      7  C8  <0> d           0.938  -3.535  -0.903  0.00  0.00     0.003 A 
ATOM      8  C7  <0> d           1.159  -2.197  -0.650  0.00  0.00     0.017 A 
ATOM      9  C6  <0> d           1.412  -1.319  -1.705  0.00  0.00     0.034 A 
ATOM     10  C11 <0> d           1.450  -1.801  -3.013  0.00  0.00     0.046 A 
BRANCH   9  11
ATOM     11  C5  <0> d           1.645   0.116  -1.437  0.00  0.00     0.253 C 
ATOM     12  N1  <0> d           2.074   0.513  -0.222  0.00  0.00    -0.349 N 
ATOM     13  O1  <0> d           1.450   0.937  -2.311  0.00  0.00    -0.267 OA
BRANCH  12  14
ATOM     14  C2  <0> d           2.236   1.940   0.067  0.00  0.00     0.121 C 
ATOM     15  C1  <0> d           3.658   2.375  -0.294  0.00  0.00     0.026 C 
ENDBRANCH  12  14
BRANCH  12  16
ATOM     16  C3  <0> d           2.377  -0.482   0.809  0.00  0.00     0.121 C 
ATOM     17  C4  <0> d           1.253  -0.498   1.848  0.00  0.00     0.026 C 
ENDBRANCH  12  16
ENDBRANCH   9  11
ENDBRANCH   1   5
BRANCH   2  18
ATOM     18  C13 <0> d           0.746  -3.446  -6.978  0.00  0.00     0.337 C 
BRANCH  18  19
ATOM     19  N3  <0> d           0.226  -2.404  -7.886  0.00  0.00    -0.059 N 
ATOM     20  C14 <0> d          -1.202  -2.142  -7.586  0.00  0.00     0.241 C 
ATOM     21  C15 <0> d          -1.596  -0.821  -8.268  0.00  0.00     0.074 C 
ATOM     22  C16 <0> d          -1.103  -0.872  -9.678  0.00  0.00    -0.008 A 
ATOM     23  S1  <0> d          -1.514   0.165 -11.052  0.00  0.00    -0.106 SA
ATOM     24  C17 <0> d          -0.207  -1.759 -10.194  0.00  0.00    -0.019 A 
ATOM     25  C19 <0> d          -0.474  -0.628 -12.270  0.00  0.00     0.051 A 
ATOM     26  C18 <0> d           0.104  -1.614 -11.544  0.00  0.00     0.017 A 
ATOM     27  C20 <0> d           0.392  -2.835  -9.294  0.00  0.00     0.275 C 
ATOM     28  H26 <0> d           0.759  -1.539  -7.740  0.00  0.00     0.280 HD
ENDBRANCH  18  19
ENDBRANCH   2  18
TORSDOF 6
