REMARK  5 active torsions:
REMARK  status: ('A' for Active; 'I' for Inactive)
REMARK    1  A    between atoms: S1_2  and  N1_5 
REMARK    2  A    between atoms: N1_5  and  C2_6 
REMARK    3  A    between atoms: N2_10  and  C7_12 
REMARK    4  A    between atoms: C7_12  and  C8_13 
REMARK    5  A    between atoms: C10_16  and  C11_18 
ROOT
ATOM      1  C2  <0> d           2.207  -0.061  -1.563  0.00  0.00     0.118 C 
ATOM      2  C3  <0> d           3.081  -1.250  -1.155  0.00  0.00     0.029 C 
ATOM      3  C4  <0> d           4.551  -0.903  -1.409  0.00  0.00     0.030 C 
ATOM      4  C5  <0> d           4.733  -0.527  -2.881  0.00  0.00     0.235 C 
ATOM      5  N2  <0> d           3.892   0.632  -3.202  0.00  0.00    -0.064 N 
ATOM      6  C6  <0> d           2.476   0.284  -3.029  0.00  0.00     0.260 C 
ATOM      7  H20 <0> d           4.126   1.397  -2.587  0.00  0.00     0.280 HD
ENDROOT
BRANCH   5   8
ATOM      8  C7  <0> d           4.128   1.036  -4.594  0.00  0.00     0.294 C 
BRANCH   8   9
ATOM      9  C8  <0> d           5.548   1.520  -4.742  0.00  0.00     0.068 A 
ATOM     10  N3  <0> d           5.850   2.763  -4.463  0.00  0.00    -0.240 NA
ATOM     11  C10 <0> d           7.091   3.214  -4.579  0.00  0.00     0.145 A 
ATOM     12  S2  <0> d           7.941   1.750  -5.155  0.00  0.00    -0.076 SA
ATOM     13  C9  <0> d           6.518   0.666  -5.173  0.00  0.00     0.081 A 
BRANCH  11  14
ATOM     14  C11 <0> d           7.627   4.565  -4.310  0.00  0.00     0.185 A 
ATOM     15  N5  <0> d           8.920   4.800  -4.503  0.00  0.00    -0.239 NA
ATOM     16  C14 <0> d           9.429   5.998  -4.276  0.00  0.00     0.120 A 
ATOM     17  C13 <0> d           8.598   7.013  -3.823  0.00  0.00     0.038 A 
ATOM     18  C12 <0> d           7.254   6.732  -3.627  0.00  0.00     0.120 A 
ATOM     19  N4  <0> d           6.806   5.514  -3.877  0.00  0.00    -0.239 NA
ENDBRANCH  11  14
ENDBRANCH   8   9
ENDBRANCH   5   8
BRANCH   1  20
ATOM     20  N1  <0> d           0.795  -0.411  -1.394  0.00  0.00    -0.313 N 
ATOM     21  H5  <0> d           0.324  -0.881  -2.099  0.00  0.00     0.172 HD
BRANCH  20  22
ATOM     22  S1  <0> d           0.002  -0.004   0.002  0.00  0.00     0.223 S 
ATOM     23  C1  <0> d          -0.022   1.810   0.012  0.00  0.00     0.185 C 
ATOM     24  O1  <0> d           0.835  -0.488   1.046  0.00  0.00    -0.206 OA
ATOM     25  O2  <0> d          -1.315  -0.510  -0.168  0.00  0.00    -0.206 OA
ENDBRANCH  20  22
ENDBRANCH   1  20
TORSDOF 5
