REMARK  7 active torsions:
REMARK  status: ('A' for Active; 'I' for Inactive)
REMARK    1  A    between atoms: C3_3  and  C5_7 
REMARK    2  A    between atoms: C5_7  and  C6_8 
REMARK    3  A    between atoms: C6_8  and  O1_9 
REMARK    4  A    between atoms: O1_9  and  C7_10 
REMARK    5  A    between atoms: C7_10  and  C8_11 
REMARK    6  A    between atoms: C7_10  and  C9_13 
REMARK    7  A    between atoms: C8_11  and  N2_12 
ROOT
ATOM      1  C7  <0> d           2.694   0.734  -5.039  0.00  0.00     0.179 C 
ENDROOT
BRANCH   1   2
ATOM      2  O1  <0> d           1.346   0.550  -4.601  0.00  0.00    -0.379 OA
BRANCH   2   3
ATOM      3  C6  <0> d           1.027   1.247  -3.395  0.00  0.00     0.173 C 
BRANCH   3   4
ATOM      4  C5  <0> d          -0.462   1.075  -3.085  0.00  0.00     0.074 C 
BRANCH   4   5
ATOM      5  C3  <0> d          -0.798   1.809  -1.813  0.00  0.00     0.010 A 
ATOM      6  C2  <0> d          -1.207   3.091  -1.634  0.00  0.00     0.044 A 
ATOM      7  C1  <0> d          -1.391   4.029  -2.799  0.00  0.00     0.071 C 
ATOM      8  N1  <0> d          -1.429   3.480  -0.394  0.00  0.00    -0.258 NA
ATOM      9  C4  <0> d          -1.272   2.661   0.616  0.00  0.00     0.166 A 
ATOM     10  S1  <0> d          -0.770   1.234  -0.122  0.00  0.00    -0.085 SA
ENDBRANCH   4   5
ENDBRANCH   3   4
ENDBRANCH   2   3
ENDBRANCH   1   2
BRANCH   1  11
ATOM     11  C8  <0> d           3.148  -0.499  -5.823  0.00  0.00     0.266 C 
BRANCH  11  12
ATOM     12  N2  <0> d           3.193  -1.661  -4.925  0.00  0.00    -0.077 N 
ATOM     13  H12 <0> d           3.891  -1.508  -4.213  0.00  0.00     0.274 HD
ATOM     14  H13 <0> d           2.291  -1.786  -4.491  0.00  0.00     0.274 HD
ATOM     15  H18 <0> d           3.429  -2.486  -5.455  0.00  0.00     0.274 HD
ENDBRANCH  11  12
ENDBRANCH   1  11
BRANCH   1  16
ATOM     16  C9  <0> d           2.772   1.950  -5.925  0.00  0.00    -0.026 A 
ATOM     17  C14 <0> d           3.896   2.754  -5.897  0.00  0.00     0.028 A 
ATOM     18  C13 <0> d           3.971   3.868  -6.715  0.00  0.00     0.011 A 
ATOM     19  C12 <0> d           2.916   4.182  -7.552  0.00  0.00     0.019 A 
ATOM     20 Br1  <0> d           5.512   4.963  -6.683  0.00  0.00    -0.051 Br
ATOM     21  C11 <0> d           1.790   3.381  -7.575  0.00  0.00     0.002 A 
ATOM     22  C10 <0> d           1.718   2.265  -6.762  0.00  0.00     0.010 A 
ENDBRANCH   1  16
TORSDOF 7
