REMARK  5 active torsions:
REMARK  status: ('A' for Active; 'I' for Inactive)
REMARK    1  A    between atoms: C5_5  and  N1_9 
REMARK       I    between atoms: N1_9  and  C9_10 
REMARK    2  A    between atoms: C9_10  and  C10_12 
REMARK       I    between atoms: C10_12  and  N2_14 
REMARK    3  A    between atoms: N2_14  and  C11_15 
REMARK    4  A    between atoms: C11_15  and  C12_16 
REMARK    5  A    between atoms: C12_16  and  N3_18 
ROOT
ATOM      1  C10 <0> d          -0.069  -6.110   1.515  0.00  0.00     0.309 C 
ATOM      2  O2  <0> d          -0.409  -6.555   0.438  0.00  0.00    -0.262 OA
ATOM      3  N2  <0> d           0.500  -6.920   2.430  0.00  0.00    -0.351 N 
ATOM      4  H10 <0> d           0.772  -6.564   3.290  0.00  0.00     0.162 HD
ENDROOT
BRANCH   1   5
ATOM      5  C9  <0> d          -0.280  -4.665   1.826  0.00  0.00     0.314 C 
ATOM      6  N1  <0> d          -0.849  -3.855   0.911  0.00  0.00    -0.318 N 
ATOM      7  H9  <0> d          -1.191  -4.224   0.082  0.00  0.00     0.169 HD
ATOM      8  O1  <0> d           0.060  -4.220   2.902  0.00  0.00    -0.262 OA
BRANCH   6   9
ATOM      9  C5  <0> d          -0.946  -2.482   1.157  0.00  0.00     0.047 A 
ATOM     10  C4  <0> d          -0.397  -1.574   0.260  0.00  0.00    -0.034 A 
ATOM     11  C3  <0> d          -0.495  -0.219   0.506  0.00  0.00     0.015 A 
ATOM     12  C20 <0> d           0.303  -2.067  -0.980  0.00  0.00     0.050 C 
ATOM     13  C2  <0> d          -1.138   0.235   1.643  0.00  0.00    -0.061 A 
ATOM     14  C1  <0> d          -1.243   1.715   1.908  0.00  0.00     0.048 C 
ATOM     15  C7  <0> d          -1.681  -0.667   2.541  0.00  0.00     0.015 A 
ATOM     16  C6  <0> d          -1.591  -2.023   2.299  0.00  0.00    -0.034 A 
ATOM     17  C8  <0> d          -2.187  -3.005   3.274  0.00  0.00     0.050 C 
ENDBRANCH   6   9
ENDBRANCH   1   5
BRANCH   3  18
ATOM     18  C11 <0> d           0.707  -8.338   2.124  0.00  0.00     0.155 C 
BRANCH  18  19
ATOM     19  C12 <0> d           1.485  -8.997   3.265  0.00  0.00     0.202 C 
ATOM     20  C13 <0> d           1.816 -10.442   2.889  0.00  0.00     0.042 C 
BRANCH  19  21
ATOM     21  N3  <0> d           2.730  -8.255   3.502  0.00  0.00    -0.066 N 
ATOM     22  C18 <0> d           3.601  -8.377   2.326  0.00  0.00     0.235 C 
ATOM     23  C17 <0> d           4.865  -7.540   2.534  0.00  0.00     0.032 C 
ATOM     24  C16 <0> d           5.606  -8.044   3.776  0.00  0.00    -0.015 C 
ATOM     25  C15 <0> d           4.664  -7.981   4.981  0.00  0.00     0.032 C 
ATOM     26  C19 <0> d           6.829  -7.161   4.036  0.00  0.00     0.010 C 
ATOM     27  C14 <0> d           3.408  -8.802   4.683  0.00  0.00     0.235 C 
ATOM     28  H32 <0> d           2.516  -7.282   3.660  0.00  0.00     0.280 HD
ENDBRANCH  19  21
ENDBRANCH  18  19
ENDBRANCH   3  18
TORSDOF 5
