REMARK  6 active torsions:
REMARK  status: ('A' for Active; 'I' for Inactive)
REMARK    1  A    between atoms: O1_2  and  C2_3 
REMARK    2  A    between atoms: C2_3  and  C3_4 
REMARK    3  A    between atoms: C3_4  and  N1_5 
REMARK       I    between atoms: N1_5  and  C4_6 
REMARK    4  A    between atoms: C4_6  and  C5_8 
REMARK    5  A    between atoms: C11_15  and  C17_21 
REMARK    6  A    between atoms: C21_25  and  N3_27 
ROOT
ATOM      1  C5  <0> d           0.484   0.215  -0.122  0.00  0.00     0.053 A 
ATOM      2  C6  <0> d           1.778  -0.292  -0.214  0.00  0.00     0.019 A 
ATOM      3  C7  <0> d           2.854   0.566  -0.269  0.00  0.00     0.002 A 
ATOM      4  C8  <0> d           2.647   1.935  -0.225  0.00  0.00     0.010 A 
ATOM      5  C9  <0> d           1.376   2.454  -0.125  0.00  0.00    -0.028 A 
ATOM      6  C10 <0> d           0.264   1.608  -0.084  0.00  0.00     0.031 A 
ATOM      7  N2  <0> d          -1.048   2.048  -0.028  0.00  0.00    -0.282 NA
ATOM      8  C11 <0> d          -1.258   3.497   0.114  0.00  0.00     0.098 C 
ATOM      9  C12 <0> d          -0.225   4.184  -0.754  0.00  0.00     0.023 C 
ATOM     10  C13 <0> d           1.135   3.911  -0.038  0.00  0.00     0.049 C 
ATOM     11  C14 <0> d           2.043   4.912  -0.650  0.00  0.00    -0.021 C 
ATOM     12  C15 <0> d           1.321   5.962  -1.028  0.00  0.00    -0.029 C 
ATOM     13  C16 <0> d          -0.158   5.715  -0.722  0.00  0.00     0.034 C 
ATOM     14  H15 <0> d          -1.587   1.678  -0.796  0.00  0.00     0.128 HD
ENDROOT
BRANCH   8  15
ATOM     15  C17 <0> d          -1.075   3.907   1.552  0.00  0.00    -0.037 A 
ATOM     16  C22 <0> d          -1.680   5.056   2.026  0.00  0.00     0.046 A 
ATOM     17  C21 <0> d          -1.512   5.432   3.346  0.00  0.00     0.125 A 
ATOM     18  C20 <0> d          -0.738   4.658   4.192  0.00  0.00     0.067 A 
ATOM     19  C19 <0> d          -0.132   3.509   3.717  0.00  0.00     0.027 A 
ATOM     20 Cl1  <0> d          -0.526   5.130   5.849  0.00  0.00    -0.082 Cl
ATOM     21  C18 <0> d          -0.305   3.131   2.399  0.00  0.00     0.011 A 
BRANCH  17  22
ATOM     22  N3  <0> d          -2.160   6.662   3.853  0.00  0.00    -0.114 N 
ATOM     23  O3  <0> d          -2.841   7.343   3.108  0.00  0.00    -0.532 OA
ATOM     24  O4  <0> d          -2.011   6.993   5.016  0.00  0.00    -0.532 OA
ENDBRANCH  17  22
ENDBRANCH   8  15
BRANCH   1  25
ATOM     25  C4  <0> d          -0.663  -0.709  -0.064  0.00  0.00     0.253 C 
ATOM     26  N1  <0> d          -0.458  -2.041  -0.100  0.00  0.00    -0.355 N 
ATOM     27  H11 <0> d           0.444  -2.391  -0.165  0.00  0.00     0.162 HD
ATOM     28  O2  <0> d          -1.794  -0.270   0.017  0.00  0.00    -0.268 OA
BRANCH  26  29
ATOM     29  C3  <0> d          -1.598  -2.959  -0.043  0.00  0.00     0.149 C 
BRANCH  29  30
ATOM     30  C2  <0> d          -1.093  -4.402  -0.101  0.00  0.00     0.186 C 
BRANCH  30  31
ATOM     31  O1  <0> d          -0.321  -4.684   1.069  0.00  0.00    -0.394 OA
ATOM     32  C1  <0> d           0.201  -6.014   1.114  0.00  0.00     0.201 C 
ENDBRANCH  30  31
ENDBRANCH  29  30
ENDBRANCH  26  29
ENDBRANCH   1  25
TORSDOF 6
