REMARK  5 active torsions:
REMARK  status: ('A' for Active; 'I' for Inactive)
REMARK    1  A    between atoms: C3_3  and  C6_8 
REMARK       I    between atoms: C6_8  and  N2_10 
REMARK    2  A    between atoms: N2_10  and  C7_11 
REMARK    3  A    between atoms: C7_11  and  C8_12 
REMARK    4  A    between atoms: C11_15  and  C14_18 
REMARK    5  A    between atoms: C14_18  and  N3_19 
ROOT
ATOM      1  C8  <0> d          -0.003  -1.843  -5.898  0.00  0.00    -0.041 A 
ATOM      2  C9  <0> d           1.200  -2.372  -6.328  0.00  0.00     0.009 A 
ATOM      3  C10 <0> d           1.210  -3.456  -7.186  0.00  0.00     0.009 A 
ATOM      4  C11 <0> d           0.018  -4.011  -7.612  0.00  0.00    -0.038 A 
ATOM      5  C12 <0> d          -1.184  -3.483  -7.181  0.00  0.00     0.009 A 
ATOM      6  C13 <0> d          -1.194  -2.401  -6.320  0.00  0.00     0.009 A 
ENDROOT
BRANCH   1   7
ATOM      7  C7  <0> d          -0.014  -0.661  -4.963  0.00  0.00     0.161 C 
BRANCH   7   8
ATOM      8  N2  <0> d          -0.001  -1.134  -3.577  0.00  0.00    -0.352 N 
ATOM      9  C6  <0> d          -0.008  -0.248  -2.562  0.00  0.00     0.260 C 
ATOM     10  O1  <0> d          -0.025   0.946  -2.797  0.00  0.00    -0.267 OA
ATOM     11  H7  <0> d           0.013  -2.086  -3.389  0.00  0.00     0.163 HD
BRANCH   9  12
ATOM     12  C3  <0> d           0.006  -0.722  -1.174  0.00  0.00     0.098 A 
ATOM     13  C2  <0> d           0.002  -0.004   0.002  0.00  0.00     0.054 A 
ATOM     14  C1  <0> d          -0.018   1.503   0.010  0.00  0.00     0.072 C 
ATOM     15  N1  <0> d           0.022  -0.699   1.113  0.00  0.00    -0.250 NA
ATOM     16  C4  <0> d           0.035  -2.012   1.103  0.00  0.00     0.072 A 
ATOM     17  S1  <0> d           0.032  -2.390  -0.537  0.00  0.00    -0.068 SA
ATOM     18  C5  <0> d           0.053  -2.955   2.278  0.00  0.00     0.078 C 
ENDBRANCH   9  12
ENDBRANCH   7   8
ENDBRANCH   1   7
BRANCH   4  19
ATOM     19  C14 <0> d           0.030  -5.193  -8.548  0.00  0.00     0.190 C 
BRANCH  19  20
ATOM     20  N3  <0> d           0.046  -6.433  -7.768  0.00  0.00    -0.258 N 
ATOM     21  N5  <0> d           0.973  -6.792  -6.776  0.00  0.00    -0.164 NA
ATOM     22  C16 <0> d           0.619  -7.971  -6.338  0.00  0.00     0.256 A 
ATOM     23  N4  <0> d          -0.465  -8.372  -7.000  0.00  0.00    -0.234 NA
ATOM     24  C15 <0> d          -0.821  -7.456  -7.864  0.00  0.00     0.230 A 
ENDBRANCH  19  20
ENDBRANCH   4  19
TORSDOF 5
