REMARK  5 active torsions:
REMARK  status: ('A' for Active; 'I' for Inactive)
REMARK    1  A    between atoms: C2_2  and  O1_3 
REMARK    2  A    between atoms: O1_3  and  C3_4 
REMARK    3  A    between atoms: C3_4  and  C4_5 
REMARK    4  A    between atoms: C4_5  and  C16_18 
REMARK       I    between atoms: C16_18  and  N2_20 
REMARK    5  A    between atoms: N2_20  and  C17_21 
ROOT
ATOM      1  C4  <0> d          -3.048  -2.837  -0.083  0.00  0.00     0.134 C 
ATOM      2  C5  <0> d          -2.902  -4.115  -0.624  0.00  0.00     0.061 C 
ATOM      3  N1  <0> d          -1.683  -4.758  -0.645  0.00  0.00    -0.379 N 
ATOM      4  C6  <0> d          -1.383  -5.548  -1.851  0.00  0.00     0.027 C 
ATOM      5  C7  <0> d          -2.446  -6.634  -2.010  0.00  0.00     0.069 C 
ATOM      6  C8  <0> d          -3.829  -6.054  -1.876  0.00  0.00    -0.043 A 
ATOM      7  C9  <0> d          -4.048  -4.851  -1.201  0.00  0.00    -0.002 A 
ATOM      8  C10 <0> d          -5.341  -4.340  -1.076  0.00  0.00     0.014 A 
ATOM      9  C11 <0> d          -6.404  -5.030  -1.621  0.00  0.00     0.001 A 
ATOM     10  C12 <0> d          -6.186  -6.222  -2.289  0.00  0.00     0.001 A 
ATOM     11  C13 <0> d          -4.904  -6.728  -2.424  0.00  0.00     0.008 A 
ATOM     12  C14 <0> d          -0.005  -6.197  -1.708  0.00  0.00     0.038 C 
ATOM     13  C15 <0> d          -1.397  -4.634  -3.078  0.00  0.00     0.038 C 
ATOM     14  H23 <0> d          -1.058  -4.694   0.094  0.00  0.00     0.160 HD
ENDROOT
BRANCH   1  15
ATOM     15  C3  <0> d          -1.997  -2.278   0.767  0.00  0.00     0.301 C 
ATOM     16  O3  <0> d          -1.043  -2.963   1.085  0.00  0.00    -0.259 OA
BRANCH  15  17
ATOM     17  O1  <0> d          -2.084  -1.003   1.198  0.00  0.00    -0.318 OA
BRANCH  17  18
ATOM     18  C2  <0> d          -1.022  -0.523   2.024  0.00  0.00     0.174 C 
ATOM     19  C1  <0> d          -1.294   0.932   2.411  0.00  0.00     0.034 C 
ENDBRANCH  17  18
ENDBRANCH  15  17
ENDBRANCH   1  15
BRANCH   1  20
ATOM     20  C16 <0> d          -4.255  -2.056  -0.365  0.00  0.00     0.264 C 
ATOM     21  O2  <0> d          -5.074  -1.861   0.515  0.00  0.00    -0.267 OA
ATOM     22  N2  <0> d          -4.459  -1.552  -1.598  0.00  0.00    -0.321 N 
ATOM     23  H18 <0> d          -3.777  -1.653  -2.282  0.00  0.00     0.169 HD
BRANCH  22  24
ATOM     24  C17 <0> d          -5.652  -0.885  -1.893  0.00  0.00     0.056 A 
ATOM     25  C22 <0> d          -6.156  -0.898  -3.188  0.00  0.00     0.060 A 
ATOM     26  C21 <0> d          -7.339  -0.242  -3.475  0.00  0.00     0.026 A 
ATOM     27 Cl1  <0> d          -5.304  -1.742  -4.444  0.00  0.00    -0.082 Cl
ATOM     28  C20 <0> d          -8.014   0.435  -2.476  0.00  0.00     0.002 A 
ATOM     29  C19 <0> d          -7.512   0.454  -1.188  0.00  0.00     0.002 A 
ATOM     30  C18 <0> d          -6.334  -0.203  -0.894  0.00  0.00     0.031 A 
ENDBRANCH  22  24
ENDBRANCH   1  20
TORSDOF 5
