REMARK  4 active torsions:
REMARK  status: ('A' for Active; 'I' for Inactive)
REMARK    1  A    between atoms: C2_2  and  N1_3 
REMARK    2  A    between atoms: N1_3  and  C3_4 
REMARK    3  A    between atoms: C8_11  and  C9_13 
REMARK    4  A    between atoms: C9_13  and  N4_14 
ROOT
ATOM      1  C3  <0> d           0.831  -1.833  -1.431  0.00  0.00     0.138 A 
ATOM      2  C4  <0> d           1.500  -2.302  -2.595  0.00  0.00     0.046 A 
ATOM      3  C5  <0> d           2.112  -1.553  -3.679  0.00  0.00     0.025 A 
ATOM      4  C6  <0> d           2.694  -2.219  -4.687  0.00  0.00     0.053 A 
ATOM      5  S1  <0> d           2.459  -3.931  -4.247  0.00  0.00    -0.081 SA
ATOM      6  C7  <0> d           1.585  -3.705  -2.721  0.00  0.00     0.113 A 
ATOM      7  N2  <0> d           1.073  -4.510  -1.810  0.00  0.00    -0.224 NA
ATOM      8  C8  <0> d           0.463  -4.015  -0.750  0.00  0.00     0.155 A 
ATOM      9  N3  <0> d           0.351  -2.712  -0.565  0.00  0.00    -0.213 NA
ENDROOT
BRANCH   8  10
ATOM     10  C9  <0> d          -0.113  -4.957   0.275  0.00  0.00     0.315 C 
BRANCH  10  11
ATOM     11  N4  <0> d           0.903  -5.252   1.295  0.00  0.00    -0.064 N 
ATOM     12  C14 <0> d           2.024  -5.982   0.696  0.00  0.00     0.245 C 
ATOM     13  C13 <0> d           3.350  -5.673   1.233  0.00  0.00     0.101 C 
ATOM     14  S2  <0> d           3.399  -6.197   2.995  0.00  0.00    -0.167 SA
ATOM     15  C12 <0> d           2.209  -5.103   3.794  0.00  0.00     0.075 C 
ATOM     16  C11 <0> d           0.762  -5.607   3.692  0.00  0.00     0.038 C 
ATOM     17  C10 <0> d           0.348  -6.137   2.317  0.00  0.00     0.236 C 
ATOM     18  H21 <0> d           1.231  -4.395   1.716  0.00  0.00     0.280 HD
ENDBRANCH  10  11
ENDBRANCH   8  10
BRANCH   1  19
ATOM     19  N1  <0> d           0.688  -0.476  -1.203  0.00  0.00    -0.374 N 
ATOM     20  H6  <0> d           1.042   0.162  -1.842  0.00  0.00     0.161 HD
BRANCH  19  21
ATOM     21  C2  <0> d           0.002  -0.004   0.002  0.00  0.00     0.116 C 
ATOM     22  C1  <0> d          -0.019   1.526   0.010  0.00  0.00     0.026 C 
ENDBRANCH  19  21
ENDBRANCH   1  19
TORSDOF 4
