REMARK  7 active torsions:
REMARK  status: ('A' for Active; 'I' for Inactive)
REMARK    1  A    between atoms: S1_2  and  C2_3 
REMARK    2  A    between atoms: C2_3  and  C3_4 
REMARK    3  A    between atoms: C3_4  and  C4_5 
REMARK    4  A    between atoms: N1_8  and  C7_12 
REMARK    5  A    between atoms: C7_12  and  C8_13 
REMARK    6  A    between atoms: C8_13  and  C9_14 
REMARK    7  A    between atoms: C8_13  and  O3_22 
ROOT
ATOM      1  C4  <0> d           1.701  -2.297  -2.963  0.00  0.00     0.179 A 
ATOM      2  C5  <0> d           1.745  -3.800  -3.158  0.00  0.00     0.250 A 
ATOM      3  O1  <0> d           0.801  -4.550  -3.284  0.00  0.00    -0.271 OA
ATOM      4  N1  <0> d           3.052  -4.128  -3.164  0.00  0.00    -0.266 N 
ATOM      5  C6  <0> d           3.832  -3.053  -3.001  0.00  0.00     0.325 A 
ATOM      6  O2  <0> d           5.046  -3.097  -2.972  0.00  0.00    -0.247 OA
ATOM      7  N2  <0> d           3.120  -1.914  -2.874  0.00  0.00    -0.329 N 
ATOM      8  H10 <0> d           3.472  -1.019  -2.749  0.00  0.00     0.165 HD
ENDROOT
BRANCH   4   9
ATOM      9  C7  <0> d           3.557  -5.493  -3.327  0.00  0.00     0.173 C 
BRANCH   9  10
ATOM     10  C8  <0> d           3.774  -5.782  -4.814  0.00  0.00     0.171 C 
BRANCH  10  11
ATOM     11  C9  <0> d           4.293  -7.187  -4.982  0.00  0.00    -0.005 A 
ATOM     12  C14 <0> d           5.648  -7.441  -4.871  0.00  0.00     0.043 A 
ATOM     13  C13 <0> d           6.125  -8.732  -5.020  0.00  0.00     0.026 A 
ATOM     14 Cl1  <0> d           6.751  -6.142  -4.538  0.00  0.00    -0.084 Cl
ATOM     15  C12 <0> d           5.248  -9.765  -5.290  0.00  0.00     0.025 A 
ATOM     16  C11 <0> d           3.893  -9.510  -5.407  0.00  0.00     0.034 A 
ATOM     17  C10 <0> d           3.416  -8.221  -5.252  0.00  0.00     0.035 A 
ATOM     18 Cl2  <0> d           2.791 -10.808  -5.746  0.00  0.00    -0.084 Cl
ENDBRANCH  10  11
BRANCH  10  19
ATOM     19  O3  <0> d           2.534  -5.646  -5.511  0.00  0.00    -0.389 OA
ATOM     20  H16 <0> d           1.841  -6.246  -5.202  0.00  0.00     0.210 HD
ENDBRANCH  10  19
ENDBRANCH   9  10
ENDBRANCH   4   9
BRANCH   1  21
ATOM     21  C3  <0> d           0.966  -1.944  -1.668  0.00  0.00     0.045 C 
BRANCH  21  22
ATOM     22  C2  <0> d           0.873  -0.423  -1.533  0.00  0.00     0.076 C 
BRANCH  22  23
ATOM     23  S1  <0> d           0.002  -0.004   0.002  0.00  0.00    -0.173 SA
ATOM     24  C1  <0> d          -0.022   1.810   0.012  0.00  0.00     0.089 C 
ENDBRANCH  22  23
ENDBRANCH  21  22
ENDBRANCH   1  21
TORSDOF 7
