REMARK  8 active torsions:
REMARK  status: ('A' for Active; 'I' for Inactive)
REMARK    1  A    between atoms: C2_2  and  C3_3 
REMARK    2  A    between atoms: C2_2  and  O6_29 
REMARK    3  A    between atoms: C3_3  and  C4_4 
REMARK    4  A    between atoms: C5_5  and  C6_6 
REMARK    5  A    between atoms: C7_7  and  C8_8 
REMARK    6  A    between atoms: C8_8  and  O2_10 
REMARK    7  A    between atoms: O2_10  and  C9_11 
REMARK    8  A    between atoms: C14_18  and  O5_28 
ROOT
ATOM      1  C9  <0> d           3.418  -0.264  -1.098  0.00  0.00     0.161 C 
ATOM      2  C10 <0> d           2.604   0.946  -1.443  0.00  0.00     0.014 C 
ATOM      3  C11 <0> d           1.319   0.907  -1.470  0.00  0.00    -0.013 C 
ATOM      4  C12 <0> d           0.270   1.945  -1.765  0.00  0.00     0.216 C 
ATOM      5  O3  <0> d          -0.887   1.194  -2.239  0.00  0.00    -0.314 OA
ATOM      6  C13 <0> d          -0.790  -0.104  -1.898  0.00  0.00     0.299 C 
ATOM      7  O4  <0> d          -1.637  -0.929  -2.143  0.00  0.00    -0.261 OA
ATOM      8  C14 <0> d           0.505  -0.339  -1.170  0.00  0.00     0.178 C 
ATOM      9  C15 <0> d           1.294  -1.536  -1.720  0.00  0.00     0.008 C 
ATOM     10  C16 <0> d           2.672  -1.590  -1.076  0.00  0.00     0.039 C 
ATOM     11  C17 <0> d           3.578  -2.669  -1.671  0.00  0.00    -0.041 C 
ATOM     12  C18 <0> d           3.634  -2.554  -3.192  0.00  0.00     0.009 C 
ATOM     13  C19 <0> d           2.236  -2.564  -3.802  0.00  0.00     0.002 C 
ATOM     14  C20 <0> d           1.409  -1.411  -3.236  0.00  0.00     0.013 C 
ATOM     15  C21 <0> d           5.014  -2.494  -1.128  0.00  0.00     0.015 C 
ATOM     16  C22 <0> d           3.158  -4.085  -1.265  0.00  0.00     0.015 C 
ATOM     17  C23 <0> d           0.460  -2.778  -1.369  0.00  0.00     0.020 C 
ENDROOT
BRANCH   1  18
ATOM     18  O2  <0> d           3.990  -0.045   0.196  0.00  0.00    -0.308 OA
BRANCH  18  19
ATOM     19  C8  <0> d           5.200   0.552   0.238  0.00  0.00     0.283 C 
ATOM     20  O1  <0> d           5.754   0.877  -0.795  0.00  0.00    -0.260 OA
BRANCH  19  21
ATOM     21  C7  <0> d           5.825   0.799   1.486  0.00  0.00     0.082 C 
ATOM     22  C6  <0> d           7.038   1.397   1.529  0.00  0.00     0.006 C 
BRANCH  22  23
ATOM     23  C5  <0> d           7.683   1.653   2.817  0.00  0.00    -0.004 C 
ATOM     24  C4  <0> d           8.879   2.243   2.858  0.00  0.00    -0.024 C 
BRANCH  24  25
ATOM     25  C3  <0> d           9.544   2.506   4.185  0.00  0.00     0.058 C 
BRANCH  25  26
ATOM     26  C2  <0> d          10.938   1.876   4.190  0.00  0.00     0.117 C 
ATOM     27  C1  <0> d          11.661   2.248   5.487  0.00  0.00     0.039 C 
BRANCH  26  28
ATOM     28  O6  <0> d          10.820   0.455   4.102  0.00  0.00    -0.396 OA
ATOM     29  H32 <0> d          10.325  -0.003   3.233  0.00  0.00     0.210 HD
ENDBRANCH  26  28
ENDBRANCH  25  26
ENDBRANCH  24  25
ENDBRANCH  22  23
ENDBRANCH  19  21
ENDBRANCH  18  19
ENDBRANCH   1  18
BRANCH   8  30
ATOM     30  O5  <0> d           0.282  -0.488   0.234  0.00  0.00    -0.374 OA
ATOM     31  H31 <0> d          -0.294  -1.345   0.612  0.00  0.00     0.211 HD
ENDBRANCH   8  30
TORSDOF 8
