REMARK  6 active torsions:
REMARK  status: ('A' for Active; 'I' for Inactive)
REMARK    1  A    between atoms: C11_11  and  C12_12 
REMARK    2  A    between atoms: C12_12  and  C13_13 
REMARK    3  A    between atoms: N2_25  and  C23_28 
REMARK    4  A    between atoms: C23_28  and  C24_29 
REMARK    5  A    between atoms: C24_29  and  C25_30 
REMARK    6  A    between atoms: C25_30  and  O3_31 
ROOT
ATOM      1  C1  <0> d           5.356   7.232  -3.695  0.00  0.00     0.048 C 
ATOM      2  C2  <0> d           5.017   5.873  -4.252  0.00  0.00    -0.061 A 
ATOM      3  C3  <0> d           4.667   5.737  -5.583  0.00  0.00     0.009 A 
ATOM      4  C4  <0> d           4.358   4.495  -6.097  0.00  0.00     0.031 A 
ATOM      5  C5  <0> d           4.397   3.368  -5.280  0.00  0.00     0.044 A 
ATOM      6  C6  <0> d           4.748   3.518  -3.942  0.00  0.00     0.015 A 
ATOM      7  C7  <0> d           5.057   4.759  -3.432  0.00  0.00     0.019 A 
ATOM      8  C8  <0> d           4.694   2.140  -3.346  0.00  0.00     0.247 A 
ATOM      9  C9  <0> d           6.048   1.726  -2.758  0.00  0.00     0.144 A 
ATOM     10  C10 <0> d           5.688   0.883  -1.500  0.00  0.00     0.126 A 
ATOM     11  C11 <0> d           4.145   0.862  -1.469  0.00  0.00     0.206 C 
ATOM     12  C21 <0> d           6.198  -0.495  -1.846  0.00  0.00     0.233 A 
ATOM     13  O1  <0> d           6.120  -1.470  -1.130  0.00  0.00    -0.272 OA
ATOM     14  N2  <0> d           6.747  -0.474  -3.066  0.00  0.00    -0.287 N 
ATOM     15  C22 <0> d           6.716   0.721  -3.668  0.00  0.00     0.234 A 
ATOM     16  O2  <0> d           7.157   0.960  -4.772  0.00  0.00    -0.272 OA
ATOM     17  C27 <0> d           4.287   1.239  -4.480  0.00  0.00     0.264 A 
ATOM     18  O4  <0> d           4.129   0.037  -4.430  0.00  0.00    -0.270 OA
ATOM     19  N3  <0> d           4.133   2.026  -5.562  0.00  0.00    -0.324 N 
ATOM     20  H27 <0> d           3.868   1.699  -6.436  0.00  0.00     0.169 HD
ATOM     21  N4  <0> d           3.758   2.046  -2.239  0.00  0.00    -0.047 N 
ATOM     22  H28 <0> d           2.800   1.942  -2.592  0.00  0.00     0.279 HD
ATOM     23  H29 <0> d           3.817   2.886  -1.652  0.00  0.00     0.279 HD
ENDROOT
BRANCH  11  24
ATOM     24  C12 <0> d           3.640   0.944  -0.027  0.00  0.00     0.075 C 
BRANCH  24  25
ATOM     25  C13 <0> d           2.137   0.836  -0.014  0.00  0.00    -0.028 A 
ATOM     26  C16 <0> d           1.352  -0.401  -0.013  0.00  0.00    -0.002 A 
ATOM     27  C15 <0> d           0.002  -0.004   0.002  0.00  0.00     0.042 A 
ATOM     28  C17 <0> d           1.679  -1.758  -0.024  0.00  0.00     0.014 A 
ATOM     29  N1  <0> d          -0.017   1.373   0.010  0.00  0.00    -0.365 N 
ATOM     30  C20 <0> d          -0.993  -0.975   0.006  0.00  0.00     0.030 A 
ATOM     31  C14 <0> d           1.264   1.855  -0.000  0.00  0.00     0.096 A 
ATOM     32  H4  <0> d          -0.818   1.919   0.017  0.00  0.00     0.165 HD
ATOM     33  C19 <0> d          -0.648  -2.309  -0.005  0.00  0.00     0.002 A 
ATOM     34  C18 <0> d           0.685  -2.695  -0.020  0.00  0.00     0.001 A 
ENDBRANCH  24  25
ENDBRANCH  11  24
BRANCH  14  35
ATOM     35  C23 <0> d           7.335  -1.661  -3.691  0.00  0.00     0.137 C 
BRANCH  35  36
ATOM     36  C24 <0> d           8.818  -1.748  -3.327  0.00  0.00     0.046 C 
BRANCH  36  37
ATOM     37  C25 <0> d           9.432  -2.988  -3.980  0.00  0.00     0.168 C 
BRANCH  37  38
ATOM     38  O3  <0> d          10.817  -3.070  -3.640  0.00  0.00    -0.396 OA
ATOM     39  C26 <0> d          11.488  -4.199  -4.203  0.00  0.00     0.201 C 
ENDBRANCH  37  38
ENDBRANCH  36  37
ENDBRANCH  35  36
ENDBRANCH  14  35
TORSDOF 6
