REMARK  4 active torsions:
REMARK  status: ('A' for Active; 'I' for Inactive)
REMARK    1  A    between atoms: C3_4  and  C22_26 
REMARK    2  A    between atoms: C9_11  and  O3_24 
REMARK    3  A    between atoms: C22_26  and  C23_28 
REMARK    4  A    between atoms: C23_28  and  O5_29 
ROOT
ATOM      1  C1  <0> d          -0.568   1.591   0.147  0.00  0.00     0.099 C 
ATOM      2  C2  <0> d          -0.409   0.094   0.067  0.00  0.00     0.132 C 
ATOM      3  N1  <0> d          -1.401  -0.718   0.149  0.00  0.00    -0.248 NA
ATOM      4  C3  <0> d          -0.900  -2.099   0.022  0.00  0.00     0.152 C 
ATOM      5  C4  <0> d           0.545  -1.858  -0.531  0.00  0.00     0.169 C 
ATOM      6  O1  <0> d           0.782  -0.505  -0.103  0.00  0.00    -0.330 OA
ATOM      7  C5  <0> d           1.473  -2.819   0.249  0.00  0.00     0.041 C 
ATOM      8  C6  <0> d           0.548  -3.657   1.123  0.00  0.00     0.004 C 
ATOM      9  C7  <0> d          -0.639  -2.680   1.415  0.00  0.00    -0.000 C 
ATOM     10  C8  <0> d          -1.761  -3.514   2.005  0.00  0.00     0.044 C 
ATOM     11  C9  <0> d          -1.270  -4.057   3.357  0.00  0.00     0.124 C 
ATOM     12  C10 <0> d           0.005  -4.886   3.186  0.00  0.00     0.035 C 
ATOM     13  C11 <0> d           1.094  -4.105   2.463  0.00  0.00    -0.001 C 
ATOM     14  C12 <0> d           2.321  -5.002   2.270  0.00  0.00     0.010 C 
ATOM     15  C13 <0> d           2.006  -5.993   1.149  0.00  0.00     0.036 C 
ATOM     16  C14 <0> d           0.689  -6.663   1.409  0.00  0.00    -0.064 C 
ATOM     17  C15 <0> d           0.375  -7.760   0.680  0.00  0.00     0.058 C 
ATOM     18  C16 <0> d          -0.970  -8.332   0.962  0.00  0.00     0.172 C 
ATOM     19  O2  <0> d          -1.169  -9.530   1.041  0.00  0.00    -0.289 OA
ATOM     20  C17 <0> d          -2.053  -7.326   1.140  0.00  0.00     0.052 C 
ATOM     21  C18 <0> d          -1.710  -6.239   1.864  0.00  0.00    -0.009 C 
ATOM     22  C19 <0> d          -0.297  -6.167   2.459  0.00  0.00     0.004 C 
ATOM     23  C20 <0> d          -0.291  -7.241   3.549  0.00  0.00     0.025 C 
ATOM     24  C21 <0> d          -0.222  -1.571   2.382  0.00  0.00     0.019 C 
ENDROOT
BRANCH   4  25
ATOM     25  C22 <0> d          -1.766  -2.977  -0.843  0.00  0.00     0.183 C 
ATOM     26  O4  <0> d          -1.877  -4.152  -0.591  0.00  0.00    -0.293 OA
BRANCH  25  27
ATOM     27  C23 <0> d          -2.495  -2.387  -2.023  0.00  0.00     0.245 C 
BRANCH  27  28
ATOM     28  O5  <0> d          -3.244  -3.412  -2.680  0.00  0.00    -0.393 OA
ATOM     29  H29 <0> d          -3.740  -3.103  -3.451  0.00  0.00     0.209 HD
ENDBRANCH  27  28
ENDBRANCH  25  27
ENDBRANCH   4  25
BRANCH  11  30
ATOM     30  O3  <0> d          -1.001  -2.961   4.233  0.00  0.00    -0.395 OA
ATOM     31  H23 <0> d          -1.770  -2.401   4.410  0.00  0.00     0.210 HD
ENDBRANCH  11  30
TORSDOF 4
