REMARK  3 active torsions:
REMARK  status: ('A' for Active; 'I' for Inactive)
REMARK    1  A    between atoms: C2_2  and  N1_3 
REMARK    2  A    between atoms: N1_3  and  C3_4 
REMARK    3  A    between atoms: N3_8  and  C8_13 
ROOT
ATOM      1  C3  <0> d          -1.606  -1.872   0.007  0.00  0.00     0.140 A 
ATOM      2  C4  <0> d          -2.921  -2.378   0.011  0.00  0.00     0.076 A 
ATOM      3  C5  <0> d          -4.208  -1.799   0.020  0.00  0.00     0.158 A 
ATOM      4  N2  <0> d          -5.091  -2.756   0.020  0.00  0.00    -0.181 NA
ATOM      5  N3  <0> d          -4.442  -3.997   0.011  0.00  0.00    -0.241 N 
ATOM      6  C6  <0> d          -3.098  -3.776   0.006  0.00  0.00     0.163 A 
ATOM      7  N4  <0> d          -2.020  -4.559  -0.003  0.00  0.00    -0.222 NA
ATOM      8  C7  <0> d          -0.812  -4.040  -0.006  0.00  0.00     0.237 A 
ATOM      9  N5  <0> d          -0.597  -2.736  -0.007  0.00  0.00    -0.224 NA
ENDROOT
BRANCH   5  10
ATOM     10  C8  <0> d          -5.097  -5.308   0.009  0.00  0.00     0.068 C 
ATOM     11  C11 <0> d          -6.624  -5.098   0.018  0.00  0.00     0.173 C 
ATOM     12  S1  <0> d          -7.191  -6.073  -1.436  0.00  0.00     0.146 S 
ATOM     13  C10 <0> d          -5.683  -7.114  -1.661  0.00  0.00     0.143 C 
ATOM     14  O1  <0> d          -7.332  -5.207  -2.554  0.00  0.00    -0.228 OA
ATOM     15  O2  <0> d          -8.278  -6.903  -1.048  0.00  0.00    -0.228 OA
ATOM     16  C9  <0> d          -4.598  -6.102  -1.197  0.00  0.00     0.048 C 
ATOM     17  C12 <0> d          -4.698  -6.055   1.284  0.00  0.00     0.041 C 
ENDBRANCH   5  10
BRANCH   1  18
ATOM     18  N1  <0> d          -1.372  -0.511   0.012  0.00  0.00    -0.374 N 
ATOM     19  H6  <0> d          -2.118   0.109   0.023  0.00  0.00     0.161 HD
BRANCH  18  20
ATOM     20  C2  <0> d           0.002  -0.004   0.002  0.00  0.00     0.116 C 
ATOM     21  C1  <0> d          -0.019   1.526   0.010  0.00  0.00     0.026 C 
ENDBRANCH  18  20
ENDBRANCH   1  18
TORSDOF 3
