REMARK  5 active torsions:
REMARK  status: ('A' for Active; 'I' for Inactive)
REMARK    1  A    between atoms: C2_2  and  C8_12 
REMARK    2  A    between atoms: N3_5  and  C3_6 
REMARK    3  A    between atoms: C7_10  and  O1_11 
REMARK    4  A    between atoms: C8_12  and  C9_13 
REMARK    5  A    between atoms: C9_13  and  O2_14 
ROOT
ATOM      1  C1  <0> d          -0.016   1.349   0.009  0.00  0.00     0.143 A 
ATOM      2  C2  <0> d           1.278   1.744  -0.001  0.00  0.00     0.077 A 
ATOM      3  N1  <0> d           2.016   0.627  -0.014  0.00  0.00    -0.135 NA
ATOM      4  N2  <0> d           1.230  -0.391  -0.012  0.00  0.00    -0.066 NA
ATOM      5  N3  <0> d           0.002  -0.004   0.002  0.00  0.00    -0.253 N 
ENDROOT
BRANCH   5   6
ATOM      6  C3  <0> d          -1.173  -0.878   0.009  0.00  0.00     0.140 C 
ATOM      7  C7  <0> d          -1.667  -1.086   1.451  0.00  0.00     0.143 C 
ATOM      8  C6  <0> d          -3.110  -0.538   1.505  0.00  0.00     0.034 C 
ATOM      9  C5  <0> d          -3.598  -0.608   0.037  0.00  0.00     0.005 C 
ATOM     10  C4  <0> d          -2.331  -0.213  -0.763  0.00  0.00     0.030 C 
BRANCH   7  11
ATOM     11  O1  <0> d          -0.835  -0.365   2.362  0.00  0.00    -0.393 OA
ATOM     12  H10 <0> d          -1.096  -0.456   3.289  0.00  0.00     0.210 HD
ENDBRANCH   7  11
ENDBRANCH   5   6
BRANCH   2  13
ATOM     13  C8  <0> d           1.789   3.162   0.002  0.00  0.00     0.088 C 
BRANCH  13  14
ATOM     14  C9  <0> d           2.751   3.355   1.175  0.00  0.00     0.170 C 
BRANCH  14  15
ATOM     15  O2  <0> d           3.235   4.700   1.177  0.00  0.00    -0.400 OA
ATOM     16  H15 <0> d           3.852   4.895   1.896  0.00  0.00     0.209 HD
ENDBRANCH  14  15
ENDBRANCH  13  14
ENDBRANCH   2  13
TORSDOF 5
