REMARK  10 active torsions:
REMARK  status: ('A' for Active; 'I' for Inactive)
REMARK    1  A    between atoms: C2_2  and  C4_4 
REMARK    2  A    between atoms: C4_4  and  N1_5 
REMARK    3  A    between atoms: N1_5  and  C5_6 
REMARK    4  A    between atoms: C6_9  and  S2_11 
REMARK    5  A    between atoms: S2_11  and  C7_12 
REMARK    6  A    between atoms: C7_12  and  C8_13 
REMARK       I    between atoms: C8_13  and  N4_15 
REMARK    7  A    between atoms: N4_15  and  C9_16 
REMARK    8  A    between atoms: C11_18  and  O4_26 
REMARK    9  A    between atoms: C12_19  and  O3_24 
REMARK   10  A    between atoms: C14_21  and  C15_22 
ROOT
ATOM      1  C8  <0> d           4.773   3.507  -0.419  0.00  0.00     0.231 C 
ATOM      2  O1  <0> d           5.796   2.888  -0.621  0.00  0.00    -0.272 OA
ATOM      3  N4  <0> d           3.616   2.848  -0.209  0.00  0.00    -0.325 N 
ATOM      4  H13 <0> d           2.785   3.341  -0.126  0.00  0.00     0.169 HD
ENDROOT
BRANCH   1   5
ATOM      5  C7  <0> d           4.795   5.014  -0.402  0.00  0.00     0.184 C 
BRANCH   5   6
ATOM      6  S2  <0> d           6.484   5.598  -0.714  0.00  0.00    -0.092 SA
BRANCH   6   7
ATOM      7  C6  <0> d           6.345   7.353  -0.663  0.00  0.00     0.160 A 
ATOM      8  N3  <0> d           5.279   8.101  -0.451  0.00  0.00    -0.133 NA
ATOM      9  N2  <0> d           5.394   9.472  -0.454  0.00  0.00    -0.123 NA
ATOM     10  C5  <0> d           6.569  10.032  -0.668  0.00  0.00     0.190 A 
ATOM     11  S1  <0> d           7.610   8.596  -0.878  0.00  0.00    -0.022 SA
BRANCH  10  12
ATOM     12  N1  <0> d           6.907  11.380  -0.714  0.00  0.00    -0.367 N 
ATOM     13  H10 <0> d           7.825  11.644  -0.884  0.00  0.00     0.161 HD
BRANCH  12  14
ATOM     14  C4  <0> d           5.878  12.401  -0.504  0.00  0.00     0.125 C 
BRANCH  14  15
ATOM     15  C2  <0> d           6.510  13.790  -0.604  0.00  0.00    -0.005 C 
ATOM     16  C1  <0> d           7.021  14.017  -2.029  0.00  0.00     0.011 C 
ATOM     17  C3  <0> d           5.464  14.853  -0.263  0.00  0.00     0.011 C 
ENDBRANCH  14  15
ENDBRANCH  12  14
ENDBRANCH  10  12
ENDBRANCH   6   7
ENDBRANCH   5   6
ENDBRANCH   1   5
BRANCH   3  18
ATOM     18  C9  <0> d           3.614   1.457  -0.111  0.00  0.00     0.054 A 
ATOM     19  C14 <0> d           2.848   0.822   0.878  0.00  0.00     0.070 A 
ATOM     20  C13 <0> d           2.846  -0.575   0.966  0.00  0.00     0.060 A 
ATOM     21  C12 <0> d           3.602  -1.320   0.085  0.00  0.00     0.102 A 
ATOM     22  C11 <0> d           4.368  -0.684  -0.894  0.00  0.00     0.103 A 
ATOM     23  C10 <0> d           4.375   0.698  -0.987  0.00  0.00     0.070 A 
BRANCH  19  24
ATOM     24  C15 <0> d           2.043   1.621   1.816  0.00  0.00     0.211 C 
ATOM     25  O2  <0> d           2.073   2.835   1.760  0.00  0.00    -0.644 OA
ATOM     26  O5  <0> d           1.274   1.008   2.737  0.00  0.00    -0.644 OA
ENDBRANCH  19  24
BRANCH  21  27
ATOM     27  O3  <0> d           3.600  -2.678   0.170  0.00  0.00    -0.353 OA
ATOM     28  C16 <0> d           2.795  -3.263   1.195  0.00  0.00     0.210 C 
ENDBRANCH  21  27
BRANCH  22  29
ATOM     29  O4  <0> d           5.109  -1.424  -1.758  0.00  0.00    -0.353 OA
ATOM     30  C17 <0> d           5.870  -0.711  -2.735  0.00  0.00     0.210 C 
ENDBRANCH  22  29
ENDBRANCH   3  18
TORSDOF 10
