REMARK  3 active torsions:
REMARK  status: ('A' for Active; 'I' for Inactive)
REMARK    1  A    between atoms: C2_2  and  O1_3 
REMARK    2  A    between atoms: O1_3  and  C3_4 
REMARK    3  A    between atoms: C8_9  and  O2_10 
ROOT
ATOM      1  C3  <0> d           0.746  -1.888  -1.280  0.00  0.00     0.155 C 
ATOM      2  C4  <0> d           2.011  -2.276  -2.047  0.00  0.00     0.103 C 
ATOM      3  C5  <0> d           2.088  -3.800  -2.165  0.00  0.00     0.166 C 
ATOM      4  C6  <0> d           0.858  -4.325  -2.907  0.00  0.00     0.071 C 
ATOM      5  C7  <0> d          -0.406  -3.933  -2.138  0.00  0.00     0.040 C 
ATOM      6  C8  <0> d          -0.483  -2.409  -2.027  0.00  0.00     0.147 C 
ATOM      7  O3  <0> d           2.136  -4.379  -0.850  0.00  0.00    -0.353 OA
ATOM      8  C9  <0> d           3.014  -5.523  -0.983  0.00  0.00     0.197 C 
ATOM      9  C10 <0> d           4.060  -5.002  -1.999  0.00  0.00     0.197 C 
ATOM     10  O4  <0> d           3.275  -4.169  -2.877  0.00  0.00    -0.353 OA
ENDROOT
BRANCH   1  11
ATOM     11  O1  <0> d           0.671  -0.465  -1.174  0.00  0.00    -0.384 OA
BRANCH  11  12
ATOM     12  C2  <0> d           0.002  -0.004   0.002  0.00  0.00     0.163 C 
ATOM     13  C1  <0> d          -0.019   1.526   0.010  0.00  0.00     0.033 C 
ENDBRANCH  11  12
ENDBRANCH   1  11
BRANCH   6  14
ATOM     14  O2  <0> d          -0.522  -1.838  -3.336  0.00  0.00    -0.393 OA
ATOM     15  H14 <0> d          -1.278  -2.124  -3.868  0.00  0.00     0.210 HD
ENDBRANCH   6  14
TORSDOF 3
