REMARK  6 active torsions:
REMARK  status: ('A' for Active; 'I' for Inactive)
REMARK    1  A    between atoms: C2_2  and  C3_3 
REMARK    2  A    between atoms: C2_2  and  N1_13 
REMARK    3  A    between atoms: C3_3  and  O1_4 
REMARK    4  A    between atoms: O1_4  and  C4_5 
REMARK       I    between atoms: N1_13  and  C10_14 
REMARK    5  A    between atoms: C10_14  and  C11_16 
REMARK    6  A    between atoms: C12_17  and  C13_18 
ROOT
ATOM      1  N1  <0> d          -1.790   0.296   0.025  0.00  0.00    -0.351 N 
ATOM      2  C10 <0> d          -2.370  -0.055   1.190  0.00  0.00     0.241 C 
ATOM      3  O2  <0> d          -1.953   0.401   2.239  0.00  0.00    -0.269 OA
ATOM      4  H10 <0> d          -2.123  -0.068  -0.811  0.00  0.00     0.163 HD
ENDROOT
BRANCH   1   5
ATOM      5  C2  <0> d          -0.658   1.226   0.020  0.00  0.00     0.105 C 
ATOM      6  C1  <0> d          -1.180   2.664   0.025  0.00  0.00     0.034 C 
BRANCH   5   7
ATOM      7  C3  <0> d           0.188   0.994  -1.233  0.00  0.00     0.200 C 
BRANCH   7   8
ATOM      8  O1  <0> d          -0.579   1.325  -2.393  0.00  0.00    -0.346 OA
BRANCH   8   9
ATOM      9  C4  <0> d           0.031   1.175  -3.599  0.00  0.00     0.107 A 
ATOM     10  C9  <0> d          -0.655   1.478  -4.768  0.00  0.00     0.152 A 
ATOM     11  C8  <0> d          -0.031   1.330  -5.994  0.00  0.00     0.087 A 
ATOM     12  F1  <0> d          -1.929   1.925  -4.707  0.00  0.00    -0.203 F 
ATOM     13  C7  <0> d           1.272   0.868  -6.055  0.00  0.00     0.119 A 
ATOM     14  C6  <0> d           1.954   0.558  -4.891  0.00  0.00     0.045 A 
ATOM     15  F2  <0> d           1.879   0.718  -7.253  0.00  0.00    -0.206 F 
ATOM     16  C5  <0> d           1.336   0.711  -3.665  0.00  0.00     0.043 A 
ENDBRANCH   8   9
ENDBRANCH   7   8
ENDBRANCH   5   7
ENDBRANCH   1   5
BRANCH   2  17
ATOM     17  C11 <0> d          -3.465  -0.954   1.194  0.00  0.00     0.075 C 
ATOM     18  C12 <0> d          -3.981  -1.386   2.367  0.00  0.00     0.024 C 
BRANCH  18  19
ATOM     19  C13 <0> d          -3.324  -1.037   3.630  0.00  0.00     0.048 A 
ATOM     20  C16 <0> d          -1.982  -1.553   3.954  0.00  0.00     0.262 A 
ATOM     21  N3  <0> d          -1.421  -1.195   5.129  0.00  0.00    -0.270 N 
ATOM     22  O4  <0> d          -1.392  -2.282   3.179  0.00  0.00    -0.267 OA
ATOM     23  C15 <0> d          -2.080  -0.395   5.983  0.00  0.00     0.330 A 
ATOM     24  C17 <0> d          -0.086  -1.688   5.477  0.00  0.00     0.164 C 
ATOM     25  N2  <0> d          -3.305   0.084   5.714  0.00  0.00    -0.313 N 
ATOM     26  O3  <0> d          -1.550  -0.095   7.035  0.00  0.00    -0.246 OA
ATOM     27  C14 <0> d          -3.946  -0.217   4.554  0.00  0.00     0.112 A 
ATOM     28  C18 <0> d          -3.965   0.953   6.692  0.00  0.00     0.160 C 
ENDBRANCH  18  19
ENDBRANCH   2  17
TORSDOF 6
