REMARK  7 active torsions:
REMARK  status: ('A' for Active; 'I' for Inactive)
REMARK    1  A    between atoms: C2_2  and  C3_3 
REMARK    2  A    between atoms: C3_3  and  C4_4 
REMARK    3  A    between atoms: C4_4  and  C5_5 
REMARK    4  A    between atoms: C4_4  and  N1_10 
REMARK    5  A    between atoms: N1_10  and  S2_11 
REMARK    6  A    between atoms: S2_11  and  C9_14 
REMARK    7  A    between atoms: C11_16  and  N2_21 
ROOT
ATOM      1  S2  <0> d          -1.285  -2.794  -0.405  0.00  0.00     0.260 S 
ATOM      2  O1  <0> d          -1.069  -1.762   0.548  0.00  0.00    -0.200 OA
ATOM      3  O2  <0> d          -2.565  -3.063  -0.961  0.00  0.00    -0.200 OA
ENDROOT
BRANCH   1   4
ATOM      4  N1  <0> d          -0.273  -2.481  -1.678  0.00  0.00    -0.306 N 
ATOM      5  H12 <0> d          -0.613  -2.510  -2.586  0.00  0.00     0.173 HD
BRANCH   4   6
ATOM      6  C4  <0> d           1.136  -2.162  -1.433  0.00  0.00     0.133 C 
BRANCH   6   7
ATOM      7  C3  <0> d           1.425  -0.736  -1.905  0.00  0.00     0.031 C 
BRANCH   7   8
ATOM      8  C2  <0> d           0.632   0.255  -1.050  0.00  0.00    -0.002 C 
ATOM      9  C1  <0> d           0.960   1.683  -1.489  0.00  0.00     0.005 C 
ENDBRANCH   7   8
ENDBRANCH   6   7
BRANCH   6  10
ATOM     10  C5  <0> d           2.009  -3.129  -2.190  0.00  0.00     0.006 A 
ATOM     11  S1  <0> d           1.793  -3.788  -3.835  0.00  0.00    -0.104 SA
ATOM     12  C8  <0> d           3.256  -4.811  -3.890  0.00  0.00     0.050 A 
ATOM     13  C7  <0> d           3.799  -4.590  -2.668  0.00  0.00     0.008 A 
ATOM     14  C6  <0> d           3.160  -3.728  -1.797  0.00  0.00     0.017 A 
ENDBRANCH   6  10
ENDBRANCH   4   6
ENDBRANCH   1   4
BRANCH   1  15
ATOM     15  C9  <0> d          -0.735  -4.293   0.341  0.00  0.00     0.087 A 
ATOM     16  C14 <0> d          -0.776  -5.476  -0.373  0.00  0.00    -0.039 A 
ATOM     17  C13 <0> d          -0.342  -6.653   0.208  0.00  0.00     0.010 A 
ATOM     18  C15 <0> d          -1.291  -5.481  -1.789  0.00  0.00     0.050 C 
ATOM     19  C12 <0> d           0.126  -6.653   1.507  0.00  0.00     0.029 A 
ATOM     20  C11 <0> d           0.163  -5.466   2.230  0.00  0.00     0.027 A 
ATOM     21  C10 <0> d          -0.269  -4.285   1.642  0.00  0.00     0.054 A 
BRANCH  20  22
ATOM     22  N2  <0> d           0.636  -5.462   3.544  0.00  0.00    -0.399 N 
ATOM     23  H19 <0> d           0.662  -4.634   4.047  0.00  0.00     0.156 HD
ATOM     24  H20 <0> d           0.937  -6.288   3.954  0.00  0.00     0.156 HD
ENDBRANCH  20  22
ENDBRANCH   1  15
TORSDOF 7
