REMARK  9 active torsions:
REMARK  status: ('A' for Active; 'I' for Inactive)
REMARK    1  A    between atoms: C2_2  and  C3_3 
REMARK    2  A    between atoms: C3_3  and  C4_4 
REMARK    3  A    between atoms: C3_3  and  N2_20 
REMARK    4  A    between atoms: C4_4  and  C5_5 
REMARK    5  A    between atoms: C4_4  and  N1_11 
REMARK    6  A    between atoms: C12_15  and  C13_16 
REMARK    7  A    between atoms: C13_16  and  C14_17 
REMARK    8  A    between atoms: C14_17  and  C15_18 
REMARK    9  A    between atoms: C15_18  and  O1_19 
ROOT
ATOM      1  C4  <0> d           0.548  -1.909  -1.577  0.00  0.00     0.293 C 
ENDROOT
BRANCH   1   2
ATOM      2  C3  <0> d           1.483  -2.030  -0.371  0.00  0.00     0.221 C 
BRANCH   2   3
ATOM      3  C2  <0> d           0.854  -1.327   0.834  0.00  0.00     0.031 C 
ATOM      4  C1  <0> d           1.841  -1.341   2.003  0.00  0.00     0.007 C 
ENDBRANCH   2   3
BRANCH   2   5
ATOM      5  N2  <0> d           1.693  -3.449  -0.056  0.00  0.00    -0.073 N 
ATOM      6  H24 <0> d           0.799  -3.909   0.039  0.00  0.00     0.274 HD
ATOM      7  H25 <0> d           2.218  -3.885  -0.799  0.00  0.00     0.274 HD
ATOM      8  H26 <0> d           2.205  -3.529   0.809  0.00  0.00     0.274 HD
ENDBRANCH   2   5
ENDBRANCH   1   2
BRANCH   1   9
ATOM      9  C5  <0> d           0.181  -0.462  -1.784  0.00  0.00     0.019 A 
ATOM     10  S1  <0> d           1.100   0.823  -2.618  0.00  0.00    -0.103 SA
ATOM     11  C8  <0> d          -0.063   2.157  -2.382  0.00  0.00     0.069 A 
ATOM     12  C7  <0> d          -1.054   1.546  -1.687  0.00  0.00     0.018 A 
ATOM     13  C6  <0> d          -0.929   0.204  -1.381  0.00  0.00     0.036 A 
ATOM     14 Br1  <0> d          -2.585   2.515  -1.146  0.00  0.00    -0.051 Br
ENDBRANCH   1   9
BRANCH   1  15
ATOM     15  N1  <0> d           1.227  -2.418  -2.776  0.00  0.00     0.104 N 
ATOM     16  C12 <0> d           1.337  -3.888  -2.737  0.00  0.00     0.224 C 
ATOM     17  C11 <0> d           2.838  -4.237  -2.814  0.00  0.00     0.037 C 
ATOM     18  C10 <0> d           3.525  -2.936  -2.321  0.00  0.00     0.032 C 
ATOM     19  C9  <0> d           2.586  -1.848  -2.898  0.00  0.00     0.274 C 
BRANCH  16  20
ATOM     20  C13 <0> d           0.599  -4.497  -3.930  0.00  0.00     0.038 C 
BRANCH  20  21
ATOM     21  C14 <0> d          -0.900  -4.215  -3.801  0.00  0.00     0.028 C 
BRANCH  21  22
ATOM     22  C15 <0> d          -1.652  -4.930  -4.925  0.00  0.00     0.164 C 
BRANCH  22  23
ATOM     23  O1  <0> d          -3.051  -4.667  -4.804  0.00  0.00    -0.401 OA
ATOM     24  H23 <0> d          -3.591  -5.090  -5.486  0.00  0.00     0.209 HD
ENDBRANCH  22  23
ENDBRANCH  21  22
ENDBRANCH  20  21
ENDBRANCH  16  20
ENDBRANCH   1  15
TORSDOF 9
