REMARK  6 active torsions:
REMARK  status: ('A' for Active; 'I' for Inactive)
REMARK    1  A    between atoms: C6_7  and  C11_12 
REMARK    2  A    between atoms: C12_14  and  C13_17 
REMARK    3  A    between atoms: C13_17  and  C14_18 
REMARK    4  A    between atoms: C14_18  and  N4_19 
REMARK       I    between atoms: N4_19  and  C16_21 
REMARK    5  A    between atoms: C16_21  and  C17_23 
REMARK    6  A    between atoms: C20_26  and  O3_30 
ROOT
ATOM      1  C11 <0> d           1.460  -5.093   2.123  0.00  0.00     0.281 A 
ATOM      2  N2  <0> d           1.713  -6.368   1.431  0.00  0.00    -0.346 N 
ATOM      3  C12 <0> d           1.502  -7.368   2.351  0.00  0.00     0.131 A 
ATOM      4  N3  <0> d           1.161  -6.894   3.493  0.00  0.00    -0.118 NA
ATOM      5  O1  <0> d           1.105  -5.477   3.461  0.00  0.00    -0.226 OA
ATOM      6  H12 <0> d           1.977  -6.480   0.505  0.00  0.00     0.163 HD
ENDROOT
BRANCH   3   7
ATOM      7  C13 <0> d           1.653  -8.838   2.054  0.00  0.00     0.100 C 
BRANCH   7   8
ATOM      8  C14 <0> d           1.339  -9.648   3.314  0.00  0.00     0.133 C 
BRANCH   8   9
ATOM      9  N4  <0> d           1.486 -11.076   3.026  0.00  0.00    -0.352 N 
ATOM     10  C15 <0> d           2.780 -11.734   3.223  0.00  0.00     0.152 C 
ATOM     11  C16 <0> d           0.431 -11.786   2.579  0.00  0.00     0.254 C 
ATOM     12  O2  <0> d          -0.615 -11.222   2.321  0.00  0.00    -0.267 OA
BRANCH  11  13
ATOM     13  C17 <0> d           0.544 -13.247   2.404  0.00  0.00     0.038 A 
ATOM     14  C22 <0> d           0.103 -13.847   1.222  0.00  0.00    -0.044 A 
ATOM     15  C21 <0> d           0.215 -15.210   1.061  0.00  0.00     0.044 A 
ATOM     16  C23 <0> d          -0.491 -13.004   0.124  0.00  0.00     0.049 C 
ATOM     17  C20 <0> d           0.757 -15.990   2.075  0.00  0.00     0.068 A 
ATOM     18  C19 <0> d           1.193 -15.397   3.255  0.00  0.00     0.038 A 
ATOM     19  C18 <0> d           1.089 -14.034   3.422  0.00  0.00     0.020 A 
BRANCH  17  20
ATOM     20  O3  <0> d           0.862 -17.333   1.914  0.00  0.00    -0.356 OA
ATOM     21  C24 <0> d           1.429 -18.074   2.997  0.00  0.00     0.210 C 
ENDBRANCH  17  20
ENDBRANCH  11  13
ENDBRANCH   8   9
ENDBRANCH   7   8
ENDBRANCH   3   7
BRANCH   1  22
ATOM     22  C6  <0> d           0.304  -4.344   1.457  0.00  0.00     0.163 A 
ATOM     23  N1  <0> d           0.610  -4.096   0.043  0.00  0.00    -0.376 N 
ATOM     24  C5  <0> d           0.624  -2.801  -0.161  0.00  0.00     0.039 A 
ATOM     25  H29 <0> d           0.774  -4.777  -0.628  0.00  0.00     0.160 HD
ATOM     26  C4  <0> d           0.863  -2.030  -1.331  0.00  0.00     0.030 A 
ATOM     27  C8  <0> d           0.329  -2.081   1.098  0.00  0.00    -0.005 A 
ATOM     28  C3  <0> d           0.818  -0.682  -1.281  0.00  0.00     0.009 A 
ATOM     29  C2  <0> d           0.541   0.023  -0.101  0.00  0.00    -0.061 A 
ATOM     30  C1  <0> d           0.512   1.529  -0.136  0.00  0.00     0.048 C 
ATOM     31  C9  <0> d           0.306  -0.614   1.069  0.00  0.00     0.020 A 
ATOM     32  C7  <0> d           0.133  -2.981   2.089  0.00  0.00    -0.044 A 
ATOM     33  C10 <0> d          -0.193  -2.685   3.530  0.00  0.00     0.046 C 
ENDBRANCH   1  22
TORSDOF 6
