REMARK  4 active torsions:
REMARK  status: ('A' for Active; 'I' for Inactive)
REMARK    1  A    between atoms: C4_4  and  C7_7 
REMARK    2  A    between atoms: N1_11  and  C11_15 
REMARK    3  A    between atoms: C11_15  and  C12_16 
REMARK       I    between atoms: C12_16  and  N2_18 
REMARK    4  A    between atoms: N2_18  and  C13_19 
ROOT
ATOM      1  C7  <0> d           3.690  -0.678  -0.038  0.00  0.00     0.036 C 
ATOM      2  C8  <0> d           3.716  -2.030   0.057  0.00  0.00     0.079 A 
ATOM      3  C9  <0> d           2.596  -2.995   0.079  0.00  0.00     0.268 A 
ATOM      4  O1  <0> d           1.438  -2.632   0.007  0.00  0.00    -0.266 OA
ATOM      5  N1  <0> d           2.919  -4.274   0.180  0.00  0.00    -0.265 N 
ATOM      6  C10 <0> d           4.205  -4.672   0.260  0.00  0.00     0.294 A 
ATOM      7  O2  <0> d           4.640  -5.804   0.357  0.00  0.00    -0.259 OA
ATOM      8  S1  <0> d           5.114  -3.138   0.182  0.00  0.00    -0.023 SA
ENDROOT
BRANCH   5   9
ATOM      9  C11 <0> d           1.855  -5.280   0.208  0.00  0.00     0.238 C 
BRANCH   9  10
ATOM     10  C12 <0> d           1.547  -5.724  -1.199  0.00  0.00     0.236 C 
ATOM     11  O3  <0> d           2.156  -5.246  -2.133  0.00  0.00    -0.272 OA
ATOM     12  N2  <0> d           0.594  -6.651  -1.420  0.00  0.00    -0.354 N 
ATOM     13  H10 <0> d           0.107  -7.034  -0.673  0.00  0.00     0.162 HD
BRANCH  12  14
ATOM     14  C13 <0> d           0.295  -7.082  -2.788  0.00  0.00     0.099 C 
ATOM     15  C16 <0> d          -1.165  -7.593  -2.858  0.00  0.00     0.165 C 
ATOM     16  S2  <0> d          -1.076  -8.896  -4.151  0.00  0.00     0.146 S 
ATOM     17  C15 <0> d           0.732  -8.855  -4.503  0.00  0.00     0.142 C 
ATOM     18  O4  <0> d          -1.782  -8.455  -5.303  0.00  0.00    -0.228 OA
ATOM     19  O5  <0> d          -1.405 -10.150  -3.568  0.00  0.00    -0.228 OA
ATOM     20  C14 <0> d           1.262  -8.207  -3.192  0.00  0.00     0.041 C 
ENDBRANCH  12  14
ENDBRANCH   9  10
ENDBRANCH   5   9
BRANCH   1  21
ATOM     21  C4  <0> d           2.411   0.041   0.053  0.00  0.00    -0.035 A 
ATOM     22  C3  <0> d           1.429  -0.384   0.955  0.00  0.00     0.011 A 
ATOM     23  C2  <0> d           0.232   0.296   1.035  0.00  0.00     0.001 A 
ATOM     24  C1  <0> d           0.002   1.396   0.227  0.00  0.00     0.000 A 
ATOM     25  C6  <0> d           0.968   1.823  -0.667  0.00  0.00     0.001 A 
ATOM     26  C5  <0> d           2.170   1.153  -0.760  0.00  0.00     0.011 A 
ENDBRANCH   1  21
TORSDOF 4
