REMARK  8 active torsions:
REMARK  status: ('A' for Active; 'I' for Inactive)
REMARK    1  A    between atoms: C2_3  and  N6_17 
REMARK    2  A    between atoms: N3_5  and  C3_6 
REMARK    3  A    between atoms: C3_6  and  C4_7 
REMARK       I    between atoms: C4_7  and  N4_9 
REMARK    4  A    between atoms: N4_9  and  C5_10 
REMARK    5  A    between atoms: C5_10  and  C6_11 
REMARK    6  A    between atoms: C6_11  and  C7_12 
REMARK    7  A    between atoms: C7_12  and  S1_13 
REMARK    8  A    between atoms: S1_13  and  N5_16 
ROOT
ATOM      1  C4  <0> d          -1.073  -1.843  -1.161  0.00  0.00     0.237 C 
ATOM      2  O1  <0> d          -0.133  -1.778  -1.925  0.00  0.00    -0.272 OA
ATOM      3  N4  <0> d          -2.039  -2.761  -1.358  0.00  0.00    -0.360 N 
ATOM      4  H4  <0> d          -2.791  -2.813  -0.747  0.00  0.00     0.162 HD
ENDROOT
BRANCH   1   5
ATOM      5  C3  <0> d          -1.159  -0.897   0.009  0.00  0.00     0.255 C 
BRANCH   5   6
ATOM      6  N3  <0> d           0.002  -0.004   0.002  0.00  0.00    -0.238 N 
ATOM      7  C1  <0> d          -0.016   1.339   0.009  0.00  0.00     0.249 A 
ATOM      8  N1  <0> d           1.221   1.765  -0.000  0.00  0.00    -0.055 NA
ATOM      9  C2  <0> d           2.058   0.723  -0.014  0.00  0.00     0.738 A 
ATOM     10  N2  <0> d           1.354  -0.384  -0.013  0.00  0.00     0.022 NA
BRANCH   9  11
ATOM     11  N6  <0> d           3.452   0.800  -0.027  0.00  0.00    -0.230 N 
ATOM     12  H13 <0> d           3.890   1.665  -0.027  0.00  0.00     0.174 HD
ATOM     13  H14 <0> d           3.982  -0.012  -0.037  0.00  0.00     0.174 HD
ENDBRANCH   9  11
ENDBRANCH   5   6
ENDBRANCH   1   5
BRANCH   3  14
ATOM     14  C5  <0> d          -1.955  -3.681  -2.495  0.00  0.00     0.123 C 
BRANCH  14  15
ATOM     15  C6  <0> d          -3.168  -4.613  -2.489  0.00  0.00     0.036 C 
BRANCH  15  16
ATOM     16  C7  <0> d          -3.080  -5.573  -3.676  0.00  0.00     0.164 C 
BRANCH  16  17
ATOM     17  S1  <0> d          -4.519  -6.679  -3.668  0.00  0.00     0.224 S 
ATOM     18  O2  <0> d          -4.456  -7.555  -2.551  0.00  0.00    -0.206 OA
ATOM     19  O3  <0> d          -5.702  -5.944  -3.946  0.00  0.00    -0.206 OA
BRANCH  17  20
ATOM     20  N5  <0> d          -4.310  -7.659  -4.986  0.00  0.00    -0.328 N 
ATOM     21  H11 <0> d          -3.531  -7.548  -5.554  0.00  0.00     0.168 HD
ATOM     22  H12 <0> d          -4.966  -8.343  -5.191  0.00  0.00     0.168 HD
ENDBRANCH  17  20
ENDBRANCH  16  17
ENDBRANCH  15  16
ENDBRANCH  14  15
ENDBRANCH   3  14
TORSDOF 8
