REMARK  7 active torsions:
REMARK  status: ('A' for Active; 'I' for Inactive)
REMARK    1  A    between atoms: C5_6  and  S1_10 
REMARK    2  A    between atoms: S1_10  and  C8_11 
REMARK    3  A    between atoms: C8_11  and  C9_12 
REMARK       I    between atoms: C9_12  and  N3_14 
REMARK    4  A    between atoms: N3_14  and  C10_15 
REMARK    5  A    between atoms: C13_18  and  S2_21 
REMARK    6  A    between atoms: S2_21  and  N4_24 
REMARK    7  A    between atoms: N4_24  and  C16_25 
ROOT
ATOM      1  C1  <0> d          -2.526   1.009   0.041  0.00  0.00     0.050 C 
ATOM      2  C2  <0> d          -1.217   1.756   0.040  0.00  0.00    -0.036 A 
ATOM      3  C3  <0> d          -0.012   1.075   0.039  0.00  0.00     0.035 A 
ATOM      4  C4  <0> d           1.174   1.788   0.031  0.00  0.00     0.032 A 
ATOM      5  N1  <0> d           1.178   3.107   0.029  0.00  0.00    -0.245 NA
ATOM      6  C5  <0> d           0.055   3.808   0.035  0.00  0.00     0.115 A 
ATOM      7  C6  <0> d          -1.190   3.155   0.044  0.00  0.00     0.086 A 
ATOM      8  C7  <0> d          -2.409   3.907   0.050  0.00  0.00     0.103 C 
ATOM      9  N2  <0> d          -3.375   4.504   0.054  0.00  0.00    -0.191 NA
ATOM     10  C19 <0> d           2.484   1.044   0.025  0.00  0.00     0.070 C 
ENDROOT
BRANCH   6  11
ATOM     11  S1  <0> d           0.121   5.569   0.033  0.00  0.00    -0.100 SA
BRANCH  11  12
ATOM     12  C8  <0> d           1.914   5.817   0.021  0.00  0.00     0.184 C 
BRANCH  12  13
ATOM     13  C9  <0> d           2.217   7.293   0.017  0.00  0.00     0.231 C 
ATOM     14  O1  <0> d           1.311   8.098   0.021  0.00  0.00    -0.272 OA
ATOM     15  N3  <0> d           3.497   7.718   0.008  0.00  0.00    -0.327 N 
ATOM     16  H7  <0> d           4.221   7.076   0.072  0.00  0.00     0.169 HD
BRANCH  15  17
ATOM     17  C10 <0> d           3.779   9.084  -0.093  0.00  0.00     0.034 A 
ATOM     18  C15 <0> d           2.943  10.014   0.511  0.00  0.00     0.031 A 
ATOM     19  C14 <0> d           3.224  11.363   0.409  0.00  0.00     0.027 A 
ATOM     20  C13 <0> d           4.337  11.787  -0.294  0.00  0.00     0.080 A 
ATOM     21  C12 <0> d           5.171  10.864  -0.897  0.00  0.00     0.027 A 
ATOM     22  C11 <0> d           4.899   9.514  -0.793  0.00  0.00     0.031 A 
BRANCH  20  23
ATOM     23  S2  <0> d           4.692  13.508  -0.422  0.00  0.00     0.264 S 
ATOM     24  O2  <0> d           5.484  13.673  -1.591  0.00  0.00    -0.200 OA
ATOM     25  O3  <0> d           3.461  14.192  -0.234  0.00  0.00    -0.200 OA
BRANCH  23  26
ATOM     26  N4  <0> d           5.657  13.906   0.863  0.00  0.00    -0.258 N 
ATOM     27  H12 <0> d           5.332  14.518   1.542  0.00  0.00     0.181 HD
BRANCH  26  28
ATOM     28  C16 <0> d           6.929  13.365   0.969  0.00  0.00     0.179 A 
ATOM     29  S3  <0> d           8.123  13.618   2.204  0.00  0.00    -0.062 SA
ATOM     30  C18 <0> d           9.388  12.554   1.527  0.00  0.00     0.072 A 
ATOM     31  C17 <0> d           8.768  12.104   0.410  0.00  0.00     0.126 A 
ATOM     32  N5  <0> d           7.540  12.521   0.161  0.00  0.00    -0.236 NA
ENDBRANCH  26  28
ENDBRANCH  23  26
ENDBRANCH  20  23
ENDBRANCH  15  17
ENDBRANCH  12  13
ENDBRANCH  11  12
ENDBRANCH   6  11
TORSDOF 7
