REMARK  2 active torsions:
REMARK  status: ('A' for Active; 'I' for Inactive)
REMARK    1  A    between atoms: C2_2  and  C3_3 
REMARK    2  A    between atoms: C2_2  and  N1_6 
ROOT
ATOM      1  N1  <0> d           1.211  -0.480   0.679  0.00  0.00    -0.306 N 
ATOM      2  C5  <0> d           1.263  -1.283   1.802  0.00  0.00     0.153 A 
ATOM      3  C6  <0> d           0.296  -1.885   2.634  0.00  0.00     0.280 A 
ATOM      4  O2  <0> d          -0.891  -1.733   2.409  0.00  0.00    -0.265 OA
ATOM      5  N2  <0> d           0.702  -2.633   3.681  0.00  0.00    -0.273 N 
ATOM      6  H2  <0> d           0.019  -3.062   4.273  0.00  0.00     0.173 HD
ATOM      7  C7  <0> d           2.009  -2.809   3.941  0.00  0.00     0.330 A 
ATOM      8  O3  <0> d           2.337  -3.490   4.894  0.00  0.00    -0.246 OA
ATOM      9  N3  <0> d           2.963  -2.252   3.172  0.00  0.00    -0.286 N 
ATOM     10  C8  <0> d           2.611  -1.474   2.082  0.00  0.00     0.169 A 
ATOM     11  N4  <0> d           3.306  -0.807   1.157  0.00  0.00    -0.203 NA
ATOM     12  C9  <0> d           2.485  -0.222   0.320  0.00  0.00     0.181 A 
ATOM     13 Br1  <0> d           3.008   0.830  -1.162  0.00  0.00    -0.008 Br
ATOM     14  C10 <0> d           4.377  -2.469   3.489  0.00  0.00     0.163 C 
ENDROOT
BRANCH   1  15
ATOM     15  C2  <0> d           0.002  -0.004   0.002  0.00  0.00     0.157 C 
ATOM     16  C1  <0> d          -0.005  -0.506  -1.443  0.00  0.00     0.041 C 
BRANCH  15  17
ATOM     17  C3  <0> d          -0.018   1.503   0.010  0.00  0.00     0.145 C 
ATOM     18  O1  <0> d           1.019   2.121   0.004  0.00  0.00    -0.296 OA
ATOM     19  C4  <0> d          -1.333   2.239   0.021  0.00  0.00     0.093 C 
ENDBRANCH  15  17
ENDBRANCH   1  15
TORSDOF 2
