REMARK  7 active torsions:
REMARK  status: ('A' for Active; 'I' for Inactive)
REMARK    1  A    between atoms: C2_2  and  C3_3 
REMARK    2  A    between atoms: C3_3  and  N1_4 
REMARK    3  A    between atoms: C6_7  and  N2_10 
REMARK    4  A    between atoms: N2_10  and  C9_11 
REMARK    5  A    between atoms: C13_15  and  N3_17 
REMARK    6  A    between atoms: N3_17  and  S1_18 
REMARK    7  A    between atoms: S1_18  and  N4_21 
ROOT
ATOM      1  C9  <0> d          -3.126  -6.850  -1.334  0.00  0.00     0.030 A 
ATOM      2  C10 <0> d          -4.297  -6.259  -1.792  0.00  0.00     0.029 A 
ATOM      3  C11 <0> d          -5.376  -7.044  -2.149  0.00  0.00     0.004 A 
ATOM      4  C12 <0> d          -5.293  -8.420  -2.054  0.00  0.00     0.030 A 
ATOM      5  C13 <0> d          -4.125  -9.018  -1.598  0.00  0.00     0.046 A 
ATOM      6  C14 <0> d          -3.038  -8.232  -1.243  0.00  0.00     0.059 A 
ENDROOT
BRANCH   1   7
ATOM      7  N2  <0> d          -2.036  -6.055  -0.972  0.00  0.00    -0.385 N 
ATOM      8  H17 <0> d          -1.217  -6.468  -0.657  0.00  0.00     0.160 HD
BRANCH   7   9
ATOM      9  C6  <0> d          -2.130  -4.596  -1.069  0.00  0.00     0.085 C 
ATOM     10  C5  <0> d          -0.728  -4.002  -1.234  0.00  0.00     0.052 C 
ATOM     11  C4  <0> d          -0.826  -2.475  -1.254  0.00  0.00     0.237 C 
ATOM     12  N1  <0> d          -1.413  -2.002   0.005  0.00  0.00    -0.071 N 
ATOM     13  C8  <0> d          -2.785  -2.510   0.136  0.00  0.00     0.237 C 
ATOM     14  H25 <0> d          -0.858  -2.335   0.779  0.00  0.00     0.279 HD
ATOM     15  C7  <0> d          -2.762  -4.038   0.209  0.00  0.00     0.052 C 
BRANCH  12  16
ATOM     16  C3  <0> d          -1.433  -0.534   0.013  0.00  0.00     0.234 C 
BRANCH  16  17
ATOM     17  C2  <0> d           0.002  -0.004   0.002  0.00  0.00     0.023 C 
ATOM     18  C1  <0> d          -0.019   1.526   0.010  0.00  0.00     0.007 C 
ENDBRANCH  16  17
ENDBRANCH  12  16
ENDBRANCH   7   9
ENDBRANCH   1   7
BRANCH   5  19
ATOM     19  N3  <0> d          -4.043 -10.409  -1.502  0.00  0.00    -0.268 N 
ATOM     20  H22 <0> d          -3.661 -10.819  -0.710  0.00  0.00     0.180 HD
BRANCH  19  21
ATOM     21  S1  <0> d          -4.596 -11.359  -2.740  0.00  0.00     0.317 S 
ATOM     22  O1  <0> d          -4.352 -12.706  -2.359  0.00  0.00    -0.183 OA
ATOM     23  O2  <0> d          -5.894 -10.883  -3.068  0.00  0.00    -0.183 OA
BRANCH  21  24
ATOM     24  N4  <0> d          -3.636 -11.058  -4.055  0.00  0.00    -0.311 N 
ATOM     25  H23 <0> d          -3.480 -11.755  -4.712  0.00  0.00     0.170 HD
ATOM     26  H24 <0> d          -3.230 -10.185  -4.169  0.00  0.00     0.170 HD
ENDBRANCH  21  24
ENDBRANCH  19  21
ENDBRANCH   5  19
TORSDOF 7
