REMARK  3 active torsions:
REMARK  status: ('A' for Active; 'I' for Inactive)
REMARK    1  A    between atoms: N1_2  and  C2_3 
REMARK       I    between atoms: N1_2  and  C7_9 
REMARK    2  A    between atoms: C7_9  and  C8_11 
REMARK    3  A    between atoms: C13_16  and  C14_17 
ROOT
ATOM      1  C1  <0> d          -0.043   1.461   0.011  0.00  0.00     0.153 C 
ATOM      2  N1  <0> d          -0.005  -0.004   0.002  0.00  0.00    -0.351 N 
ATOM      3  C7  <0> d          -0.102  -0.673  -1.163  0.00  0.00     0.225 C 
ATOM      4  O1  <0> d          -0.170  -1.884  -1.163  0.00  0.00    -0.273 OA
ENDROOT
BRANCH   3   5
ATOM      5  C8  <0> d          -0.124   0.083  -2.467  0.00  0.00     0.096 C 
ATOM      6  C13 <0> d          -1.486  -0.104  -3.148  0.00  0.00     0.103 C 
ATOM      7  C12 <0> d          -1.776  -1.608  -3.236  0.00  0.00     0.043 C 
ATOM      8  C11 <0> d          -0.592  -2.334  -3.805  0.00  0.00    -0.030 C 
ATOM      9  C10 <0> d           0.601  -1.835  -3.870  0.00  0.00    -0.030 C 
ATOM     10  C9  <0> d           0.965  -0.459  -3.395  0.00  0.00     0.042 C 
BRANCH   6  11
ATOM     11  C14 <0> d          -2.557   0.579  -2.336  0.00  0.00     0.178 C 
ATOM     12  O2  <0> d          -3.449   1.191  -2.897  0.00  0.00    -0.648 OA
ATOM     13  O3  <0> d          -2.530   0.520  -1.119  0.00  0.00    -0.648 OA
ENDBRANCH   6  11
ENDBRANCH   3   5
BRANCH   2  14
ATOM     14  C2  <0> d           0.138  -0.741   1.260  0.00  0.00     0.089 C 
ATOM     15  C6  <0> d          -1.036  -0.407   2.185  0.00  0.00     0.052 C 
ATOM     16  C5  <0> d          -0.840  -1.118   3.526  0.00  0.00     0.234 C 
ATOM     17  N2  <0> d           0.414  -0.668   4.143  0.00  0.00    -0.075 N 
ATOM     18  C4  <0> d           1.550  -1.048   3.296  0.00  0.00     0.234 C 
ATOM     19  H11 <0> d           0.514  -1.097   5.051  0.00  0.00     0.277 HD
ATOM     20  H22 <0> d           0.394   0.336   4.248  0.00  0.00     0.277 HD
ATOM     21  C3  <0> d           1.446  -0.335   1.946  0.00  0.00     0.052 C 
ENDBRANCH   2  14
TORSDOF 3
