REMARK  4 active torsions:
REMARK  status: ('A' for Active; 'I' for Inactive)
REMARK    1  A    between atoms: C3_3  and  S1_9 
REMARK    2  A    between atoms: S1_9  and  N3_12 
REMARK    3  A    between atoms: N3_12  and  C6_13 
REMARK    4  A    between atoms: N4_16  and  C11_19 
ROOT
ATOM      1  N3  <0> d           1.569  -0.072  -3.243  0.00  0.00    -0.310 N 
ATOM      2  H8  <0> d           1.914   0.806  -3.466  0.00  0.00     0.172 HD
ENDROOT
BRANCH   1   3
ATOM      3  S1  <0> d          -0.008  -0.247  -2.770  0.00  0.00     0.263 S 
ATOM      4  O1  <0> d          -0.548  -1.312  -3.541  0.00  0.00    -0.200 OA
ATOM      5  O2  <0> d          -0.578   1.055  -2.765  0.00  0.00    -0.200 OA
BRANCH   3   6
ATOM      6  C3  <0> d           0.008  -0.796  -1.095  0.00  0.00     0.129 A 
ATOM      7  C2  <0> d           0.002  -0.004   0.002  0.00  0.00     0.049 A 
ATOM      8  C1  <0> d          -0.018   1.503   0.010  0.00  0.00     0.071 C 
ATOM      9  N2  <0> d           0.024  -0.805   1.088  0.00  0.00    -0.281 N 
ATOM     10  N1  <0> d           0.035  -2.134   0.643  0.00  0.00    -0.178 NA
ATOM     11  H1  <0> d           0.029  -0.513   2.013  0.00  0.00     0.189 HD
ATOM     12  C4  <0> d           0.028  -2.127  -0.666  0.00  0.00     0.076 A 
ATOM     13  C5  <0> d           0.040  -3.343  -1.556  0.00  0.00     0.074 C 
ENDBRANCH   3   6
ENDBRANCH   1   3
BRANCH   1  14
ATOM     14  C6  <0> d           2.444  -1.245  -3.324  0.00  0.00     0.096 C 
ATOM     15  C10 <0> d           3.418  -1.077  -4.494  0.00  0.00     0.053 C 
ATOM     16  C9  <0> d           4.380  -2.266  -4.524  0.00  0.00     0.238 C 
ATOM     17  N4  <0> d           5.131  -2.326  -3.264  0.00  0.00    -0.063 N 
ATOM     18  C8  <0> d           4.209  -2.559  -2.146  0.00  0.00     0.238 C 
ATOM     19  H27 <0> d           5.617  -1.453  -3.122  0.00  0.00     0.280 HD
ATOM     20  C7  <0> d           3.241  -1.380  -2.024  0.00  0.00     0.053 C 
BRANCH  17  21
ATOM     21  C11 <0> d           6.107  -3.421  -3.329  0.00  0.00     0.117 C 
ATOM     22  C12 <0> d           5.373  -4.747  -3.540  0.00  0.00     0.045 C 
ATOM     23  C13 <0> d           7.068  -3.180  -4.495  0.00  0.00     0.045 C 
ATOM     24  C14 <0> d           6.897  -3.479  -2.020  0.00  0.00     0.045 C 
ENDBRANCH  17  21
ENDBRANCH   1  14
TORSDOF 4
