REMARK  4 active torsions:
REMARK  status: ('A' for Active; 'I' for Inactive)
REMARK    1  A    between atoms: C2_2  and  N1_5 
REMARK    2  A    between atoms: C17_24  and  C18_25 
REMARK    3  A    between atoms: C18_25  and  C19_26 
REMARK    4  A    between atoms: C18_25  and  O4_33 
ROOT
ATOM      1  N1  <0> d           0.688  -0.476  -1.203  0.00  0.00    -0.279 N 
ATOM      2  C5  <0> d           0.091  -1.247  -2.120  0.00  0.00     0.234 A 
ATOM      3  O1  <0> d          -1.055  -1.637  -2.069  0.00  0.00    -0.272 OA
ATOM      4  C6  <0> d           1.069  -1.555  -3.231  0.00  0.00     0.131 A 
ATOM      5  C7  <0> d           2.362  -0.816  -2.785  0.00  0.00     0.147 A 
ATOM      6  C8  <0> d           1.960  -0.168  -1.480  0.00  0.00     0.235 A 
ATOM      7  O2  <0> d           2.680   0.521  -0.789  0.00  0.00    -0.272 OA
ATOM      8  C9  <0> d           2.585   0.255  -3.860  0.00  0.00     0.279 A 
ATOM      9  C10 <0> d           4.048   0.466  -4.132  0.00  0.00     0.020 A 
ATOM     10  C11 <0> d           5.063  -0.363  -4.553  0.00  0.00     0.054 A 
ATOM     11  C12 <0> d           6.344   0.138  -4.716  0.00  0.00     0.117 A 
ATOM     12  C13 <0> d           6.599   1.474  -4.453  0.00  0.00     0.044 A 
ATOM     13  C14 <0> d           5.584   2.306  -4.030  0.00  0.00     0.033 A 
ATOM     14  C15 <0> d           4.294   1.809  -3.863  0.00  0.00     0.044 A 
ATOM     15  N2  <0> d           3.119   2.442  -3.448  0.00  0.00    -0.324 N 
ATOM     16  C16 <0> d           2.070   1.597  -3.417  0.00  0.00     0.267 A 
ATOM     17  O3  <0> d           0.933   1.865  -3.094  0.00  0.00    -0.270 OA
ATOM     18  F1  <0> d           7.342  -0.674  -5.129  0.00  0.00    -0.206 F 
ATOM     19  N3  <0> d           1.875  -0.223  -5.061  0.00  0.00     0.116 N 
ATOM     20  C17 <0> d           0.613  -0.842  -4.522  0.00  0.00     0.269 C 
ATOM     21  H17 <0> d           3.064   3.381  -3.210  0.00  0.00     0.169 HD
ATOM     22  H18 <0> d           1.661   0.542  -5.683  0.00  0.00     0.318 HD
ENDROOT
BRANCH  20  23
ATOM     23  C18 <0> d           0.048  -1.856  -5.519  0.00  0.00     0.185 C 
BRANCH  23  24
ATOM     24  C19 <0> d          -0.277  -1.158  -6.815  0.00  0.00    -0.028 A 
ATOM     25  C24 <0> d          -1.562  -0.706  -7.052  0.00  0.00     0.011 A 
ATOM     26  C23 <0> d          -1.860  -0.061  -8.238  0.00  0.00     0.024 A 
ATOM     27  C22 <0> d          -0.875   0.122  -9.192  0.00  0.00     0.034 A 
ATOM     28  C21 <0> d           0.410  -0.336  -8.956  0.00  0.00     0.024 A 
ATOM     29 Cl1  <0> d          -1.249   0.926 -10.684  0.00  0.00    -0.084 Cl
ATOM     30  C20 <0> d           0.708  -0.976  -7.768  0.00  0.00     0.011 A 
ENDBRANCH  23  24
BRANCH  23  31
ATOM     31  O4  <0> d           1.018  -2.878  -5.759  0.00  0.00    -0.389 OA
ATOM     32  H23 <0> d           1.851  -2.552  -6.125  0.00  0.00     0.210 HD
ENDBRANCH  23  31
ENDBRANCH  20  23
BRANCH   1  33
ATOM     33  C2  <0> d           0.002  -0.004   0.002  0.00  0.00     0.032 C 
ATOM     34  C1  <0> d          -0.019   1.526   0.010  0.00  0.00     0.038 C 
ATOM     35  C3  <0> d           0.742  -0.511   1.242  0.00  0.00     0.038 C 
ATOM     36  C4  <0> d          -1.433  -0.534   0.013  0.00  0.00     0.038 C 
ENDBRANCH   1  33
TORSDOF 4
