REMARK  5 active torsions:
REMARK  status: ('A' for Active; 'I' for Inactive)
REMARK    1  A    between atoms: C2_2  and  C3_3 
REMARK    2  A    between atoms: C6_6  and  N2_19 
REMARK    3  A    between atoms: C8_8  and  C9_9 
REMARK    4  A    between atoms: C9_9  and  C10_10 
REMARK    5  A    between atoms: C9_9  and  N1_18 
ROOT
ATOM      1  C9  <0> d           2.948   1.044  -0.183  0.00  0.00     0.253 C 
ENDROOT
BRANCH   1   2
ATOM      2  C8  <0> d           3.149   0.778   1.286  0.00  0.00    -0.015 A 
ATOM      3  C3  <0> d           2.545  -0.315   1.879  0.00  0.00    -0.050 A 
ATOM      4  C4  <0> d           2.730  -0.559   3.228  0.00  0.00     0.010 A 
ATOM      5  C5  <0> d           3.517   0.290   3.982  0.00  0.00     0.037 A 
ATOM      6  C6  <0> d           4.121   1.383   3.389  0.00  0.00     0.103 A 
ATOM      7  C7  <0> d           3.941   1.624   2.040  0.00  0.00     0.046 A 
BRANCH   3   8
ATOM      8  C2  <0> d           1.687  -1.240   1.056  0.00  0.00     0.035 C 
ATOM      9  C1  <0> d           2.582  -2.158   0.221  0.00  0.00     0.010 C 
ENDBRANCH   3   8
BRANCH   6  10
ATOM     10  N2  <0> d           4.964   2.292   4.197  0.00  0.00    -0.116 N 
ATOM     11  O1  <0> d           5.127   2.077   5.385  0.00  0.00    -0.532 OA
ATOM     12  O2  <0> d           5.496   3.255   3.675  0.00  0.00    -0.532 OA
ENDBRANCH   6  10
ENDBRANCH   1   2
BRANCH   1  13
ATOM     13  C10 <0> d           2.081   2.264  -0.360  0.00  0.00     0.016 A 
ATOM     14  C15 <0> d           0.703   2.136  -0.379  0.00  0.00     0.125 A 
ATOM     15  C14 <0> d          -0.094   3.256  -0.547  0.00  0.00     0.044 A 
ATOM     16  F1  <0> d           0.135   0.918  -0.240  0.00  0.00    -0.205 F 
ATOM     17  C13 <0> d           0.488   4.502  -0.684  0.00  0.00     0.022 A 
ATOM     18  C12 <0> d           1.865   4.629  -0.664  0.00  0.00     0.011 A 
ATOM     19  C11 <0> d           2.661   3.510  -0.502  0.00  0.00     0.031 A 
ATOM     20 Br1  <0> d           2.660   6.334  -0.858  0.00  0.00    -0.051 Br
ENDBRANCH   1  13
BRANCH   1  21
ATOM     21  N1  <0> d           4.251   1.274  -0.822  0.00  0.00    -0.067 N 
ATOM     22  H13 <0> d           4.105   1.468  -1.895  0.00  0.00     0.275 HD
ATOM     23  H14 <0> d           4.885   0.383  -0.693  0.00  0.00     0.275 HD
ATOM     24  H15 <0> d           4.740   2.142  -0.356  0.00  0.00     0.275 HD
ENDBRANCH   1  21
TORSDOF 5
