REMARK  6 active torsions:
REMARK  status: ('A' for Active; 'I' for Inactive)
REMARK    1  A    between atoms: C5_5  and  N1_9 
REMARK    2  A    between atoms: C10_11  and  C13_15 
REMARK       I    between atoms: C13_15  and  N2_17 
REMARK    3  A    between atoms: N2_17  and  C14_18 
REMARK    4  A    between atoms: C15_21  and  C16_23 
REMARK    5  A    between atoms: C16_23  and  S2_24 
REMARK    6  A    between atoms: S2_24  and  C17_27 
ROOT
ATOM      1  C13 <0> d           1.267   0.595  -7.061  0.00  0.00     0.230 C 
ATOM      2  O2  <0> d           0.591  -0.382  -6.815  0.00  0.00    -0.273 OA
ATOM      3  N2  <0> d           1.335   1.607  -6.173  0.00  0.00    -0.304 N 
ATOM      4  H15 <0> d           1.875   2.389  -6.370  0.00  0.00     0.171 HD
ENDROOT
BRANCH   3   5
ATOM      5  C14 <0> d           0.631   1.532  -4.976  0.00  0.00     0.196 A 
ATOM      6  S1  <0> d           0.541   2.676  -3.670  0.00  0.00    -0.032 SA
ATOM      7  C15 <0> d          -0.560   1.716  -2.636  0.00  0.00     0.115 A 
ATOM      8  N4  <0> d          -0.721   0.651  -3.395  0.00  0.00    -0.144 NA
ATOM      9  N3  <0> d          -0.152   0.570  -4.519  0.00  0.00    -0.123 NA
BRANCH   7  10
ATOM     10  C16 <0> d          -1.135   2.034  -1.279  0.00  0.00     0.214 C 
BRANCH  10  11
ATOM     11  S2  <0> d          -0.017   1.417   0.010  0.00  0.00     0.181 S 
ATOM     12  O3  <0> d           0.002  -0.004   0.002  0.00  0.00    -0.222 OA
ATOM     13  O4  <0> d           1.195   2.158   0.002  0.00  0.00    -0.222 OA
BRANCH  11  14
ATOM     14  C17 <0> d          -0.798   1.847   1.530  0.00  0.00     0.059 A 
ATOM     15  C22 <0> d          -1.683   0.968   2.126  0.00  0.00     0.023 A 
ATOM     16  C21 <0> d          -2.295   1.306   3.318  0.00  0.00     0.002 A 
ATOM     17  C20 <0> d          -2.022   2.523   3.915  0.00  0.00     0.000 A 
ATOM     18  C19 <0> d          -1.137   3.402   3.319  0.00  0.00     0.002 A 
ATOM     19  C18 <0> d          -0.521   3.062   2.129  0.00  0.00     0.023 A 
ENDBRANCH  11  14
ENDBRANCH  10  11
ENDBRANCH   7  10
ENDBRANCH   3   5
BRANCH   1  20
ATOM     20  C10 <0> d           2.029   0.677  -8.358  0.00  0.00     0.105 C 
ATOM     21  C9  <0> d           1.803  -0.589  -9.213  0.00  0.00     0.147 C 
ATOM     22  N1  <0> d           1.764  -0.120 -10.604  0.00  0.00    -0.317 N 
ATOM     23  C12 <0> d           1.561   1.207 -10.666  0.00  0.00     0.225 C 
ATOM     24  C11 <0> d           1.450   1.782  -9.271  0.00  0.00     0.119 C 
ATOM     25  O1  <0> d           1.480   1.850 -11.691  0.00  0.00    -0.273 OA
BRANCH  22  26
ATOM     26  C5  <0> d           1.917  -0.949 -11.721  0.00  0.00     0.043 A 
ATOM     27  C4  <0> d           0.805  -1.548 -12.301  0.00  0.00     0.031 A 
ATOM     28  C3  <0> d           0.959  -2.360 -13.407  0.00  0.00     0.009 A 
ATOM     29  C2  <0> d           2.219  -2.587 -13.930  0.00  0.00    -0.061 A 
ATOM     30  C1  <0> d           2.384  -3.479 -15.133  0.00  0.00     0.048 C 
ATOM     31  C7  <0> d           3.328  -1.998 -13.351  0.00  0.00     0.015 A 
ATOM     32  C6  <0> d           3.180  -1.179 -12.248  0.00  0.00    -0.035 A 
ATOM     33  C8  <0> d           4.389  -0.537 -11.618  0.00  0.00     0.050 C 
ENDBRANCH  22  26
ENDBRANCH   1  20
TORSDOF 6
