REMARK  7 active torsions:
REMARK  status: ('A' for Active; 'I' for Inactive)
REMARK    1  A    between atoms: N1_2  and  S1_3 
REMARK    2  A    between atoms: S1_3  and  C2_6 
REMARK    3  A    between atoms: C7_11  and  N2_12 
REMARK    4  A    between atoms: N2_12  and  C8_13 
REMARK    5  A    between atoms: C8_13  and  C9_14 
REMARK    6  A    between atoms: C13_18  and  C15_20 
REMARK    7  A    between atoms: C15_20  and  N3_21 
ROOT
ATOM      1  N2  <0> d           0.270   1.741   2.682  0.00  0.00    -0.384 N 
ATOM      2  H9  <0> d           0.698   1.648   1.816  0.00  0.00     0.160 HD
ENDROOT
BRANCH   1   3
ATOM      3  C7  <0> d          -0.292   0.625   3.306  0.00  0.00     0.051 A 
ATOM      4  C2  <0> d          -0.155  -0.634   2.737  0.00  0.00     0.105 A 
ATOM      5  C3  <0> d          -0.707  -1.736   3.360  0.00  0.00     0.027 A 
ATOM      6  C4  <0> d          -1.400  -1.586   4.547  0.00  0.00     0.002 A 
ATOM      7  C5  <0> d          -1.543  -0.332   5.114  0.00  0.00     0.002 A 
ATOM      8  C6  <0> d          -0.994   0.773   4.496  0.00  0.00     0.031 A 
BRANCH   4   9
ATOM      9  S1  <0> d           0.728  -0.827   1.224  0.00  0.00     0.260 S 
ATOM     10  O1  <0> d           0.203   0.137   0.322  0.00  0.00    -0.200 OA
ATOM     11  O2  <0> d           0.736  -2.217   0.933  0.00  0.00    -0.200 OA
BRANCH   9  12
ATOM     12  N1  <0> d           2.300  -0.395   1.516  0.00  0.00    -0.320 N 
ATOM     13  C1  <0> d           3.108  -1.167   2.463  0.00  0.00     0.159 C 
ATOM     14  H4  <0> d           2.685   0.370   1.060  0.00  0.00     0.171 HD
ENDBRANCH   9  12
ENDBRANCH   4   9
ENDBRANCH   1   3
BRANCH   1  15
ATOM     15  C8  <0> d           0.214   3.052   3.334  0.00  0.00     0.158 C 
BRANCH  15  16
ATOM     16  C9  <0> d           0.886   4.078   2.458  0.00  0.00    -0.040 A 
ATOM     17  C14 <0> d           0.150   4.772   1.517  0.00  0.00     0.017 A 
ATOM     18  C13 <0> d           0.766   5.716   0.716  0.00  0.00    -0.033 A 
ATOM     19  C12 <0> d           2.119   5.960   0.852  0.00  0.00     0.009 A 
ATOM     20  C11 <0> d           2.857   5.262   1.790  0.00  0.00     0.001 A 
ATOM     21  C10 <0> d           2.240   4.321   2.593  0.00  0.00     0.009 A 
BRANCH  18  22
ATOM     22  C15 <0> d          -0.038   6.477  -0.306  0.00  0.00     0.268 C 
BRANCH  22  23
ATOM     23  N3  <0> d          -0.029   5.745  -1.580  0.00  0.00    -0.075 N 
ATOM     24  H18 <0> d           0.921   5.647  -1.904  0.00  0.00     0.274 HD
ATOM     25  H19 <0> d          -0.435   4.831  -1.445  0.00  0.00     0.274 HD
ATOM     26  H20 <0> d          -0.567   6.255  -2.264  0.00  0.00     0.274 HD
ENDBRANCH  22  23
ENDBRANCH  18  22
ENDBRANCH  15  16
ENDBRANCH   1  15
TORSDOF 7
