REMARK  5 active torsions:
REMARK  status: ('A' for Active; 'I' for Inactive)
REMARK    1  A    between atoms: N1_2  and  C2_3 
REMARK    2  A    between atoms: N1_2  and  C6_11 
REMARK    3  A    between atoms: N4_14  and  C11_17 
REMARK    4  A    between atoms: N6_25  and  C18_26 
REMARK    5  A    between atoms: C18_26  and  C19_27 
ROOT
ATOM      1  C11 <0> d          -0.029  -1.231  -5.517  0.00  0.00     0.430 A 
ATOM      2  N5  <0> d          -0.242  -2.682  -5.468  0.00  0.00    -0.342 N 
ATOM      3  C12 <0> d          -1.426  -2.954  -6.168  0.00  0.00     0.058 A 
ATOM      4  C13 <0> d          -2.070  -4.160  -6.418  0.00  0.00     0.031 A 
ATOM      5  C14 <0> d          -3.245  -4.182  -7.144  0.00  0.00     0.002 A 
ATOM      6  C15 <0> d          -3.785  -3.004  -7.626  0.00  0.00     0.002 A 
ATOM      7  C16 <0> d          -3.152  -1.800  -7.382  0.00  0.00     0.032 A 
ATOM      8  C17 <0> d          -1.970  -1.768  -6.652  0.00  0.00     0.060 A 
ATOM      9  N6  <0> d          -1.156  -0.686  -6.284  0.00  0.00    -0.329 N 
ATOM     10  H17 <0> d           0.331  -3.333  -5.033  0.00  0.00     0.163 HD
ENDROOT
BRANCH   1  11
ATOM     11  N4  <0> d          -0.024  -0.673  -4.158  0.00  0.00     0.131 N 
ATOM     12  C8  <0> d          -1.225  -1.081  -3.418  0.00  0.00     0.279 C 
ATOM     13  C7  <0> d          -1.258  -0.367  -2.064  0.00  0.00     0.056 C 
ATOM     14  C6  <0> d          -0.000  -0.730  -1.271  0.00  0.00     0.105 C 
ATOM     15  C10 <0> d           1.237  -0.339  -2.084  0.00  0.00     0.056 C 
ATOM     16  C9  <0> d           1.198  -1.054  -3.437  0.00  0.00     0.279 C 
BRANCH  14  17
ATOM     17  N1  <0> d           0.002  -0.004   0.002  0.00  0.00    -0.215 N 
ATOM     18  C1  <0> d          -0.018   1.461   0.010  0.00  0.00     0.169 C 
BRANCH  17  19
ATOM     19  C2  <0> d           0.023  -0.695   1.184  0.00  0.00     0.705 A 
ATOM     20  N3  <0> d           0.040  -2.013   1.163  0.00  0.00    -0.077 NA
ATOM     21  C5  <0> d           0.066  -2.723   2.289  0.00  0.00     0.142 A 
ATOM     22  C4  <0> d           0.063  -2.089   3.498  0.00  0.00     0.095 A 
ATOM     23  C3  <0> d           0.039  -0.684   3.529  0.00  0.00     0.260 A 
ATOM     24  N2  <0> d           0.019  -0.009   2.359  0.00  0.00    -0.154 N 
ATOM     25  O1  <0> d           0.035  -0.085   4.591  0.00  0.00    -0.268 OA
ATOM     26  H1  <0> d           0.002   0.961   2.357  0.00  0.00     0.187 HD
ENDBRANCH  17  19
ENDBRANCH  14  17
ENDBRANCH   1  11
BRANCH   9  27
ATOM     27  C18 <0> d          -1.387   0.725  -6.603  0.00  0.00     0.165 C 
BRANCH  27  28
ATOM     28  C19 <0> d          -0.721   1.059  -7.913  0.00  0.00    -0.040 A 
ATOM     29  C24 <0> d          -1.418   0.915  -9.099  0.00  0.00     0.012 A 
ATOM     30  C23 <0> d          -0.810   1.226 -10.300  0.00  0.00     0.043 A 
ATOM     31  C22 <0> d           0.500   1.671 -10.318  0.00  0.00     0.116 A 
ATOM     32  C21 <0> d           1.199   1.809  -9.130  0.00  0.00     0.043 A 
ATOM     33  F1  <0> d           1.097   1.970 -11.492  0.00  0.00    -0.206 F 
ATOM     34  C20 <0> d           0.588   1.503  -7.929  0.00  0.00     0.012 A 
ENDBRANCH  27  28
ENDBRANCH   9  27
TORSDOF 5
