REMARK  4 active torsions:
REMARK  status: ('A' for Active; 'I' for Inactive)
REMARK    1  A    between atoms: N3_19  and  C16_22 
REMARK    2  A    between atoms: C16_22  and  C17_23 
REMARK    3  A    between atoms: C17_23  and  C18_24 
REMARK    4  A    between atoms: C18_24  and  N4_25 
ROOT
ATOM      1  C1  <0> d           2.022   5.667   0.021  0.00  0.00     0.045 C 
ATOM      2  C2  <0> d           2.344   4.200  -0.271  0.00  0.00     0.072 C 
ATOM      3  C3  <0> d           3.436   3.719   0.658  0.00  0.00     0.045 A 
ATOM      4  C4  <0> d           3.363   2.568   1.361  0.00  0.00    -0.018 A 
ATOM      5  C5  <0> d           4.593   2.456   2.120  0.00  0.00    -0.001 A 
ATOM      6  C6  <0> d           5.073   1.490   3.009  0.00  0.00     0.014 A 
ATOM      7  C7  <0> d           6.311   1.715   3.559  0.00  0.00     0.001 A 
ATOM      8  C8  <0> d           7.058   2.841   3.255  0.00  0.00     0.002 A 
ATOM      9  C9  <0> d           6.608   3.812   2.378  0.00  0.00     0.030 A 
ATOM     10  C10 <0> d           5.354   3.611   1.804  0.00  0.00     0.043 A 
ATOM     11  N1  <0> d           4.624   4.349   0.918  0.00  0.00    -0.356 N 
ATOM     12  H1  <0> d           4.904   5.193   0.531  0.00  0.00     0.166 HD
ATOM     13  C11 <0> d           2.196   1.614   1.328  0.00  0.00     0.076 C 
ATOM     14  C12 <0> d           1.342   1.918   0.089  0.00  0.00     0.185 A 
ATOM     15  N2  <0> d           1.152   3.365  -0.002  0.00  0.00    -0.323 N 
ATOM     16  C13 <0> d          -0.039   3.954   0.121  0.00  0.00     0.239 A 
ATOM     17  O1  <0> d          -0.076   5.166   0.097  0.00  0.00    -0.271 OA
ATOM     18  C14 <0> d          -1.331   3.222   0.288  0.00  0.00     0.228 A 
ATOM     19  N3  <0> d          -1.147   1.780   0.255  0.00  0.00    -0.342 N 
ATOM     20  C15 <0> d           0.042   1.186   0.184  0.00  0.00     0.243 A 
ATOM     21  O2  <0> d           0.073  -0.026   0.191  0.00  0.00    -0.271 OA
ATOM     22  C22 <0> d           2.793   4.044  -1.725  0.00  0.00     0.045 C 
ENDROOT
BRANCH  19  23
ATOM     23  C16 <0> d          -2.338   0.931   0.342  0.00  0.00     0.128 C 
BRANCH  23  24
ATOM     24  C17 <0> d          -2.659   0.652   1.812  0.00  0.00     0.040 C 
BRANCH  24  25
ATOM     25  C18 <0> d          -3.902  -0.234   1.904  0.00  0.00     0.131 C 
BRANCH  25  26
ATOM     26  N4  <0> d          -4.209  -0.501   3.311  0.00  0.00    -0.350 N 
ATOM     27  C21 <0> d          -5.006   0.238   4.112  0.00  0.00     0.209 A 
ATOM     28  N5  <0> d          -5.037  -0.312   5.295  0.00  0.00    -0.255 NA
ATOM     29  C20 <0> d          -4.268  -1.411   5.292  0.00  0.00     0.135 A 
ATOM     30  C19 <0> d          -3.745  -1.550   4.059  0.00  0.00     0.111 A 
ENDBRANCH  25  26
ENDBRANCH  24  25
ENDBRANCH  23  24
ENDBRANCH  19  23
TORSDOF 4
