REMARK  7 active torsions:
REMARK  status: ('A' for Active; 'I' for Inactive)
REMARK    1  A    between atoms: C7_7  and  N1_8 
REMARK       I    between atoms: N1_8  and  C8_9 
REMARK    2  A    between atoms: C8_9  and  C9_11 
REMARK    3  A    between atoms: C9_11  and  N2_12 
REMARK       I    between atoms: N2_12  and  C10_13 
REMARK    4  A    between atoms: C10_13  and  C11_15 
REMARK    5  A    between atoms: C11_15  and  N3_17 
REMARK    6  A    between atoms: N3_17  and  C14_19 
REMARK    7  A    between atoms: C14_19  and  C15_20 
ROOT
ATOM      1  N2  <0> d          -1.102  -0.538   5.992  0.00  0.00    -0.350 N 
ATOM      2  C10 <0> d          -0.871  -0.018   7.214  0.00  0.00     0.251 C 
ATOM      3  O2  <0> d          -0.817   1.184   7.362  0.00  0.00    -0.271 OA
ATOM      4  H12 <0> d          -1.146  -1.500   5.874  0.00  0.00     0.163 HD
ENDROOT
BRANCH   2   5
ATOM      5  C11 <0> d          -0.682  -0.932   8.397  0.00  0.00     0.310 C 
ATOM      6  C12 <0> d           0.635  -1.697   8.245  0.00  0.00     0.053 C 
BRANCH   5   7
ATOM      7  N3  <0> d          -0.645  -0.135   9.631  0.00  0.00     0.104 N 
ATOM      8  C13 <0> d          -0.785  -0.992  10.816  0.00  0.00     0.311 C 
BRANCH   7   9
ATOM      9  C14 <0> d           0.584   0.667   9.703  0.00  0.00     0.351 C 
BRANCH   9  10
ATOM     10  C15 <0> d           0.478   1.647  10.843  0.00  0.00     0.136 A 
ATOM     11  N5  <0> d          -0.608   1.648  11.555  0.00  0.00    -0.233 NA
ATOM     12  C22 <0> d          -0.773   2.498  12.600  0.00  0.00     0.074 A 
ATOM     13  C17 <0> d           0.261   3.409  12.911  0.00  0.00     0.061 A 
ATOM     14  C21 <0> d          -1.937   2.496  13.370  0.00  0.00     0.032 A 
ATOM     15  C16 <0> d           1.475   3.385  12.081  0.00  0.00     0.259 A 
ATOM     16  C18 <0> d           0.114   4.295  13.976  0.00  0.00     0.019 A 
ATOM     17  N4  <0> d           1.521   2.487  11.070  0.00  0.00    -0.309 N 
ATOM     18  O3  <0> d           2.402   4.144  12.295  0.00  0.00    -0.267 OA
ATOM     19  H2  <0> d           2.306   2.442  10.502  0.00  0.00     0.170 HD
ATOM     20  C19 <0> d          -1.046   4.274  14.720  0.00  0.00     0.001 A 
ATOM     21  C20 <0> d          -2.063   3.380  14.418  0.00  0.00     0.002 A 
ENDBRANCH   9  10
ENDBRANCH   7   9
ENDBRANCH   5   7
ENDBRANCH   2   5
BRANCH   1  22
ATOM     22  C9  <0> d          -1.286   0.351   4.841  0.00  0.00     0.225 C 
BRANCH  22  23
ATOM     23  C8  <0> d          -1.527  -0.474   3.603  0.00  0.00     0.239 C 
ATOM     24  N1  <0> d          -1.724   0.133   2.417  0.00  0.00    -0.325 N 
ATOM     25  H9  <0> d          -1.664   1.099   2.350  0.00  0.00     0.169 HD
ATOM     26  O1  <0> d          -1.542  -1.685   3.675  0.00  0.00    -0.271 OA
BRANCH  24  27
ATOM     27  C7  <0> d          -2.016  -0.629   1.280  0.00  0.00     0.046 A 
ATOM     28  C2  <0> d          -1.357  -0.375   0.084  0.00  0.00    -0.035 A 
ATOM     29  C1  <0> d          -0.328   0.723   0.008  0.00  0.00     0.050 C 
ATOM     30  C3  <0> d          -1.643  -1.134  -1.034  0.00  0.00     0.009 A 
ATOM     31  C4  <0> d          -2.587  -2.141  -0.966  0.00  0.00     0.001 A 
ATOM     32  C5  <0> d          -3.249  -2.393   0.222  0.00  0.00     0.009 A 
ATOM     33  C6  <0> d          -2.968  -1.638   1.345  0.00  0.00    -0.035 A 
ATOM     34  C23 <0> d          -3.690  -1.913   2.639  0.00  0.00     0.050 C 
ENDBRANCH  24  27
ENDBRANCH  22  23
ENDBRANCH   1  22
TORSDOF 7
