REMARK  4 active torsions:
REMARK  status: ('A' for Active; 'I' for Inactive)
REMARK    1  A    between atoms: C4_4  and  C9_11 
REMARK    2  A    between atoms: N1_5  and  C5_7 
REMARK       I    between atoms: C9_11  and  N3_13 
REMARK    3  A    between atoms: C11_15  and  C18_23 
REMARK       I    between atoms: C18_23  and  N5_25 
REMARK    4  A    between atoms: N5_25  and  C19_26 
ROOT
ATOM      1  C9  <0> d          -0.499  -3.628  -1.440  0.00  0.00     0.272 C 
ATOM      2  O1  <0> d          -0.911  -3.633  -2.585  0.00  0.00    -0.266 OA
ATOM      3  N3  <0> d          -0.483  -4.771  -0.726  0.00  0.00    -0.345 N 
ATOM      4  C10 <0> d          -0.146  -4.941   0.708  0.00  0.00     0.141 C 
ATOM      5  C11 <0> d          -1.153  -5.993   1.223  0.00  0.00     0.106 C 
ATOM      6  C12 <0> d          -1.575  -6.779  -0.030  0.00  0.00    -0.007 C 
ATOM      7  C13 <0> d          -0.803  -6.141  -1.194  0.00  0.00     0.136 C 
ATOM      8  C14 <0> d          -3.077  -6.639  -0.261  0.00  0.00     0.039 C 
ATOM      9  C15 <0> d          -3.481  -7.474  -1.479  0.00  0.00     0.233 C 
ATOM     10  N4  <0> d          -3.131  -8.881  -1.247  0.00  0.00    -0.075 N 
ATOM     11  C16 <0> d          -1.675  -9.020  -1.118  0.00  0.00     0.233 C 
ATOM     12  C17 <0> d          -1.194  -8.249   0.115  0.00  0.00     0.039 C 
ATOM     13  H24 <0> d          -3.574  -9.202  -0.400  0.00  0.00     0.277 HD
ATOM     14  H34 <0> d          -3.453  -9.439  -2.024  0.00  0.00     0.277 HD
ENDROOT
BRANCH   1  15
ATOM     15  C4  <0> d          -0.018  -2.376  -0.837  0.00  0.00     0.123 A 
ATOM     16  C3  <0> d           0.622  -2.233   0.383  0.00  0.00     0.065 A 
ATOM     17  C2  <0> d           0.877  -0.866   0.509  0.00  0.00     0.053 A 
ATOM     18  C1  <0> d           1.560  -0.194   1.672  0.00  0.00     0.072 C 
ATOM     19  N2  <0> d           0.411  -0.270  -0.560  0.00  0.00    -0.176 NA
ATOM     20  N1  <0> d          -0.112  -1.120  -1.367  0.00  0.00    -0.255 N 
BRANCH  20  21
ATOM     21  C5  <0> d          -0.723  -0.793  -2.659  0.00  0.00     0.045 C 
ATOM     22  C6  <0> d          -2.154  -1.332  -2.697  0.00  0.00     0.040 C 
ATOM     23  C7  <0> d          -0.744   0.725  -2.843  0.00  0.00     0.040 C 
ATOM     24  C8  <0> d           0.092  -1.433  -3.784  0.00  0.00     0.040 C 
ENDBRANCH  20  21
ENDBRANCH   1  15
BRANCH   5  25
ATOM     25  C18 <0> d          -2.347  -5.316   1.847  0.00  0.00     0.225 C 
ATOM     26  O2  <0> d          -2.752  -4.265   1.397  0.00  0.00    -0.273 OA
ATOM     27  N5  <0> d          -2.964  -5.879   2.905  0.00  0.00    -0.348 N 
ATOM     28  H29 <0> d          -2.597  -6.680   3.311  0.00  0.00     0.163 HD
BRANCH  27  29
ATOM     29  C19 <0> d          -4.188  -5.281   3.442  0.00  0.00     0.166 C 
ATOM     30  C22 <0> d          -5.370  -5.784   2.647  0.00  0.00     0.208 C 
ATOM     31  S1  <0> d          -6.632  -5.939   3.740  0.00  0.00    -0.090 SA
ATOM     32  O3  <0> d          -5.401  -6.026   1.458  0.00  0.00    -0.283 OA
ATOM     33  C21 <0> d          -5.798  -5.524   5.320  0.00  0.00     0.085 C 
ATOM     34  C20 <0> d          -4.306  -5.635   4.926  0.00  0.00     0.044 C 
ENDBRANCH  27  29
ENDBRANCH   5  25
TORSDOF 4
