REMARK  3 active torsions:
REMARK  status: ('A' for Active; 'I' for Inactive)
REMARK       I    between atoms: C2_2  and  N1_4 
REMARK    1  A    between atoms: N1_4  and  C3_5 
REMARK    2  A    between atoms: C8_10  and  N2_11 
REMARK       I    between atoms: N2_11  and  C9_12 
REMARK    3  A    between atoms: C9_12  and  C10_14 
ROOT
ATOM      1  C3  <0> d          -1.087  -2.099  -0.079  0.00  0.00     0.061 A 
ATOM      2  C4  <0> d           0.143  -2.740  -0.070  0.00  0.00     0.033 A 
ATOM      3  C5  <0> d           0.205  -4.118  -0.163  0.00  0.00     0.021 A 
ATOM      4  C6  <0> d          -0.958  -4.861  -0.264  0.00  0.00     0.013 A 
ATOM      5  C7  <0> d          -2.188  -4.230  -0.274  0.00  0.00     0.051 A 
ATOM      6  C8  <0> d          -2.259  -2.848  -0.174  0.00  0.00     0.063 A 
ATOM      7 Br2  <0> d          -0.865  -6.746  -0.391  0.00  0.00    -0.051 Br
ENDROOT
BRANCH   6   8
ATOM      8  N2  <0> d          -3.503  -2.207  -0.177  0.00  0.00    -0.321 N 
ATOM      9  C9  <0> d          -4.566  -2.800  -0.756  0.00  0.00     0.259 C 
ATOM     10  O2  <0> d          -4.423  -3.844  -1.362  0.00  0.00    -0.267 OA
ATOM     11  H8  <0> d          -3.601  -1.335   0.237  0.00  0.00     0.169 HD
BRANCH   9  12
ATOM     12  C10 <0> d          -5.904  -2.182  -0.653  0.00  0.00     0.074 A 
ATOM     13  C14 <0> d          -7.014  -2.788  -1.248  0.00  0.00     0.141 A 
ATOM     14  N3  <0> d          -8.209  -2.239  -1.151  0.00  0.00    -0.246 NA
ATOM     15 Cl1  <0> d          -6.819  -4.278  -2.117  0.00  0.00    -0.061 Cl
ATOM     16  C13 <0> d          -8.404  -1.104  -0.507  0.00  0.00     0.137 A 
ATOM     17  C12 <0> d          -7.355  -0.440   0.105  0.00  0.00     0.029 A 
ATOM     18  C11 <0> d          -6.080  -0.977   0.038  0.00  0.00     0.041 A 
ATOM     19 Br1  <0> d          -7.659   1.185   1.023  0.00  0.00    -0.050 Br
ENDBRANCH   9  12
ENDBRANCH   6   8
BRANCH   1  20
ATOM     20  N1  <0> d          -1.151  -0.702   0.015  0.00  0.00    -0.326 N 
ATOM     21  C2  <0> d          -0.145  -0.019   0.597  0.00  0.00     0.218 C 
ATOM     22  C1  <0> d          -0.154   1.488   0.587  0.00  0.00     0.117 C 
ATOM     23  O1  <0> d           0.767  -0.617   1.128  0.00  0.00    -0.274 OA
ATOM     24  H4  <0> d          -1.919  -0.227  -0.339  0.00  0.00     0.169 HD
ENDBRANCH   1  20
TORSDOF 3
