REMARK  7 active torsions:
REMARK  status: ('A' for Active; 'I' for Inactive)
REMARK    1  A    between atoms: C5_5  and  S1_8 
REMARK    2  A    between atoms: S1_8  and  N1_11 
REMARK    3  A    between atoms: N1_11  and  C8_12 
REMARK    4  A    between atoms: C8_12  and  C9_13 
REMARK    5  A    between atoms: C8_12  and  C11_17 
REMARK    6  A    between atoms: C8_12  and  O5_21 
REMARK    7  A    between atoms: C9_13  and  O4_15 
ROOT
ATOM      1  N1  <0> d           1.078  -3.163  -1.760  0.00  0.00    -0.266 N 
ATOM      2  H8  <0> d           1.607  -3.804  -2.260  0.00  0.00     0.176 HD
ENDROOT
BRANCH   1   3
ATOM      3  S1  <0> d           1.506  -2.767  -0.209  0.00  0.00     0.261 S 
ATOM      4  O1  <0> d           2.785  -3.341   0.018  0.00  0.00    -0.200 OA
ATOM      5  O2  <0> d           0.382  -3.062   0.609  0.00  0.00    -0.200 OA
BRANCH   3   6
ATOM      6  C5  <0> d           1.721  -1.019  -0.158  0.00  0.00     0.079 A 
ATOM      7  C4  <0> d           0.695  -0.209   0.290  0.00  0.00     0.026 A 
ATOM      8  C3  <0> d           0.864   1.162   0.330  0.00  0.00     0.008 A 
ATOM      9  C2  <0> d           2.060   1.723  -0.078  0.00  0.00    -0.062 A 
ATOM     10  C1  <0> d           2.244   3.218  -0.035  0.00  0.00     0.048 C 
ATOM     11  C7  <0> d           3.086   0.913  -0.527  0.00  0.00     0.008 A 
ATOM     12  C6  <0> d           2.917  -0.458  -0.567  0.00  0.00     0.026 A 
ENDBRANCH   3   6
ENDBRANCH   1   3
BRANCH   1  13
ATOM     13  C8  <0> d          -0.100  -2.546  -2.375  0.00  0.00     0.331 C 
BRANCH  13  14
ATOM     14  C9  <0> d          -0.189  -2.964  -3.820  0.00  0.00     0.325 C 
ATOM     15  O3  <0> d          -0.159  -2.130  -4.693  0.00  0.00    -0.259 OA
BRANCH  14  16
ATOM     16  O4  <0> d          -0.301  -4.264  -4.137  0.00  0.00    -0.322 OA
ATOM     17  C10 <0> d          -0.382  -4.594  -5.548  0.00  0.00     0.213 C 
ENDBRANCH  14  16
ENDBRANCH  13  14
BRANCH  13  18
ATOM     18  C11 <0> d          -1.359  -3.000  -1.634  0.00  0.00     0.449 C 
ATOM     19  F1  <0> d          -1.351  -2.477  -0.336  0.00  0.00    -0.166 F 
ATOM     20  F2  <0> d          -2.491  -2.540  -2.315  0.00  0.00    -0.166 F 
ATOM     21  F3  <0> d          -1.386  -4.397  -1.573  0.00  0.00    -0.166 F 
ENDBRANCH  13  18
BRANCH  13  22
ATOM     22  O5  <0> d           0.013  -1.124  -2.297  0.00  0.00    -0.355 OA
ATOM     23  H12 <0> d           0.790  -0.765  -2.746  0.00  0.00     0.213 HD
ENDBRANCH  13  22
ENDBRANCH   1  13
TORSDOF 7
