REMARK  7 active torsions:
REMARK  status: ('A' for Active; 'I' for Inactive)
REMARK    1  A    between atoms: C2_2  and  S1_3 
REMARK    2  A    between atoms: S1_3  and  N1_6 
REMARK    3  A    between atoms: N1_6  and  C3_7 
REMARK    4  A    between atoms: C3_7  and  C4_8 
REMARK    5  A    between atoms: C4_8  and  N2_9 
REMARK       I    between atoms: N2_9  and  C5_10 
REMARK    6  A    between atoms: C5_10  and  C6_12 
REMARK    7  A    between atoms: C7_13  and  C10_17 
ROOT
ATOM      1  N2  <0> d          -1.513  -5.138  -1.748  0.00  0.00    -0.355 N 
ATOM      2  C5  <0> d          -1.543  -6.468  -1.966  0.00  0.00     0.259 C 
ATOM      3  O3  <0> d          -0.504  -7.083  -2.119  0.00  0.00    -0.267 OA
ATOM      4  H11 <0> d          -2.341  -4.648  -1.626  0.00  0.00     0.162 HD
ENDROOT
BRANCH   1   5
ATOM      5  C4  <0> d          -0.230  -4.434  -1.695  0.00  0.00     0.143 C 
BRANCH   5   6
ATOM      6  C3  <0> d          -0.475  -2.946  -1.437  0.00  0.00     0.151 C 
BRANCH   6   7
ATOM      7  N1  <0> d           0.808  -2.241  -1.384  0.00  0.00    -0.318 N 
ATOM      8  H6  <0> d           1.633  -2.742  -1.287  0.00  0.00     0.172 HD
BRANCH   7   9
ATOM      9  S1  <0> d           0.851  -0.589  -1.490  0.00  0.00     0.226 S 
ATOM     10  O1  <0> d           0.082  -0.280  -2.644  0.00  0.00    -0.206 OA
ATOM     11  O2  <0> d           2.232  -0.257  -1.430  0.00  0.00    -0.206 OA
BRANCH   9  12
ATOM     12  C2  <0> d           0.002  -0.004   0.002  0.00  0.00     0.158 C 
ATOM     13  C1  <0> d          -0.019   1.526   0.010  0.00  0.00     0.023 C 
ENDBRANCH   9  12
ENDBRANCH   7   9
ENDBRANCH   6   7
ENDBRANCH   5   6
ENDBRANCH   1   5
BRANCH   2  14
ATOM     14  C6  <0> d          -2.827  -7.173  -2.019  0.00  0.00     0.079 A 
ATOM     15  S2  <0> d          -4.476  -6.521  -1.829  0.00  0.00    -0.096 SA
ATOM     16  C9  <0> d          -5.349  -7.943  -2.025  0.00  0.00     0.051 A 
ATOM     17  C8  <0> d          -4.400  -8.891  -2.221  0.00  0.00     0.016 A 
ATOM     18  C7  <0> d          -3.076  -8.521  -2.224  0.00  0.00    -0.031 A 
BRANCH  18  19
ATOM     19  C10 <0> d          -1.966  -9.518  -2.436  0.00  0.00     0.020 A 
ATOM     20  C12 <0> d          -1.849 -10.669  -1.434  0.00  0.00     0.010 A 
ATOM     21  C11 <0> d          -2.360 -10.937  -2.851  0.00  0.00     0.010 A 
ENDBRANCH  18  19
ENDBRANCH   2  14
TORSDOF 7
