REMARK  3 active torsions:
REMARK  status: ('A' for Active; 'I' for Inactive)
REMARK    1  A    between atoms: C9_11  and  N2_12 
REMARK    2  A    between atoms: N2_12  and  C10_13 
REMARK    3  A    between atoms: C10_13  and  C11_14 
ROOT
ATOM      1  C1  <0> d          -0.018   1.503   0.010  0.00  0.00     0.050 C 
ATOM      2  C2  <0> d           0.002  -0.004   0.002  0.00  0.00    -0.033 A 
ATOM      3  C3  <0> d           0.006  -0.686  -1.198  0.00  0.00     0.028 A 
ATOM      4  C4  <0> d           0.024  -2.069  -1.216  0.00  0.00     0.012 A 
ATOM      5  C5  <0> d           0.039  -2.773  -0.023  0.00  0.00     0.031 A 
ATOM      6  C6  <0> d           0.036  -2.095   1.175  0.00  0.00     0.010 A 
ATOM      7  C7  <0> d           0.023  -0.706   1.206  0.00  0.00     0.049 A 
ATOM      8  N1  <0> d           0.029  -0.253   2.526  0.00  0.00    -0.324 N 
ATOM      9  C8  <0> d           0.051  -1.264   3.410  0.00  0.00     0.257 A 
ATOM     10  O1  <0> d           0.061  -1.163   4.619  0.00  0.00    -0.270 OA
ATOM     11  C9  <0> d           0.049  -2.552   2.615  0.00  0.00     0.312 A 
ATOM     12 Br1  <0> d           0.028  -2.996  -2.864  0.00  0.00    -0.051 Br
ATOM     13  H8  <0> d           0.019   0.685   2.776  0.00  0.00     0.169 HD
ENDROOT
BRANCH  11  14
ATOM     14  N2  <0> d          -1.146  -3.352   2.912  0.00  0.00    -0.058 N 
ATOM     15  H9  <0> d          -1.968  -2.772   2.832  0.00  0.00     0.278 HD
ATOM     16  H18 <0> d          -1.210  -4.117   2.257  0.00  0.00     0.278 HD
BRANCH  14  17
ATOM     17  C10 <0> d          -1.053  -3.884   4.278  0.00  0.00     0.239 C 
BRANCH  17  18
ATOM     18  C11 <0> d          -2.298  -4.718   4.587  0.00  0.00     0.026 C 
ATOM     19  C14 <0> d          -2.149  -5.388   5.983  0.00  0.00     0.146 C 
ATOM     20  S1  <0> d          -3.910  -5.774   6.362  0.00  0.00     0.144 S 
ATOM     21  C13 <0> d          -4.734  -4.569   5.243  0.00  0.00     0.141 C 
ATOM     22  O2  <0> d          -4.182  -5.414   7.710  0.00  0.00    -0.228 OA
ATOM     23  O3  <0> d          -4.202  -7.091   5.918  0.00  0.00    -0.228 OA
ATOM     24  C12 <0> d          -3.537  -3.807   4.624  0.00  0.00     0.022 C 
ENDBRANCH  17  18
ENDBRANCH  14  17
ENDBRANCH  11  14
TORSDOF 3
