REMARK  4 active torsions:
REMARK  status: ('A' for Active; 'I' for Inactive)
REMARK    1  A    between atoms: C2_2  and  C4_4 
REMARK    2  A    between atoms: C11_12  and  C13_15 
REMARK    3  A    between atoms: C12_13  and  N1_14 
REMARK    4  A    between atoms: C13_15  and  N2_16 
ROOT
ATOM      1  C4  <0> d           0.774  -0.457   1.303  0.00  0.00    -0.021 A 
ATOM      2  C5  <0> d           2.115  -0.181   1.476  0.00  0.00     0.010 A 
ATOM      3  C6  <0> d           2.801  -0.733   2.542  0.00  0.00     0.001 A 
ATOM      4  C7  <0> d           2.143  -1.559   3.433  0.00  0.00     0.012 A 
ATOM      5  C8  <0> d           0.798  -1.839   3.264  0.00  0.00     0.006 A 
ATOM      6  C9  <0> d           0.107  -1.285   2.200  0.00  0.00     0.083 A 
ATOM      7  O1  <0> d          -1.211  -1.538   1.993  0.00  0.00    -0.349 OA
ATOM      8  C10 <0> d          -1.969  -2.066   3.082  0.00  0.00     0.184 C 
ATOM      9  C11 <0> d          -1.201  -3.254   3.675  0.00  0.00     0.073 C 
ATOM     10  C12 <0> d           0.114  -2.741   4.260  0.00  0.00     0.227 C 
ENDROOT
BRANCH   9  11
ATOM     11  C13 <0> d          -2.037  -3.911   4.775  0.00  0.00     0.281 C 
BRANCH  11  12
ATOM     12  N2  <0> d          -3.256  -4.484   4.187  0.00  0.00     0.092 N 
ATOM     13  C17 <0> d          -2.958  -5.731   3.468  0.00  0.00     0.302 C 
ATOM     14  C16 <0> d          -4.236  -6.252   2.805  0.00  0.00     0.302 C 
ATOM     15  N3  <0> d          -5.263  -6.471   3.833  0.00  0.00     0.087 N 
ATOM     16  C15 <0> d          -5.561  -5.224   4.551  0.00  0.00     0.302 C 
ATOM     17  C18 <0> d          -6.481  -7.044   3.245  0.00  0.00     0.310 C 
ATOM     18  C14 <0> d          -4.283  -4.703   5.214  0.00  0.00     0.302 C 
ENDBRANCH  11  12
ENDBRANCH   9  11
BRANCH  10  19
ATOM     19  N1  <0> d           0.995  -3.872   4.580  0.00  0.00    -0.070 N 
ATOM     20  H15 <0> d           1.856  -3.526   4.976  0.00  0.00     0.275 HD
ATOM     21  H29 <0> d           0.537  -4.476   5.247  0.00  0.00     0.275 HD
ATOM     22  H30 <0> d           1.196  -4.391   3.738  0.00  0.00     0.275 HD
ENDBRANCH  10  19
BRANCH   1  23
ATOM     23  C2  <0> d           0.027   0.147   0.141  0.00  0.00     0.013 C 
ATOM     24  C1  <0> d           0.089   1.673   0.233  0.00  0.00     0.015 C 
ATOM     25  C3  <0> d           0.668  -0.311  -1.171  0.00  0.00     0.015 C 
ENDBRANCH   1  23
TORSDOF 4
