REMARK  3 active torsions:
REMARK  status: ('A' for Active; 'I' for Inactive)
REMARK    1  A    between atoms: C2_2  and  C9_12 
REMARK    2  A    between atoms: C9_12  and  C10_13 
REMARK    3  A    between atoms: C9_12  and  O3_18 
ROOT
ATOM      1  C1  <0> d          -0.017   1.372   0.010  0.00  0.00     0.019 A 
ATOM      2  C2  <0> d           1.173   2.079   0.002  0.00  0.00    -0.025 A 
ATOM      3  C3  <0> d           2.377   1.400  -0.013  0.00  0.00     0.036 A 
ATOM      4  C4  <0> d           2.399   0.019  -0.021  0.00  0.00     0.061 A 
ATOM      5  C5  <0> d           1.204  -0.699  -0.014  0.00  0.00     0.063 A 
ATOM      6  C6  <0> d           0.002  -0.004   0.002  0.00  0.00    -0.020 A 
ATOM      7  C7  <0> d          -1.092  -1.047   0.007  0.00  0.00     0.144 A 
ATOM      8  C8  <0> d          -0.346  -2.364  -0.007  0.00  0.00     0.226 A 
ATOM      9  O1  <0> d          -0.839  -3.472  -0.009  0.00  0.00    -0.273 OA
ATOM     10  N1  <0> d           0.967  -2.075  -0.020  0.00  0.00    -0.325 N 
ATOM     11 Cl1  <0> d           3.917  -0.823  -0.041  0.00  0.00    -0.082 Cl
ATOM     12  H7  <0> d           1.668  -2.745  -0.031  0.00  0.00     0.169 HD
ENDROOT
BRANCH   2  13
ATOM     13  C9  <0> d           1.157   3.586   0.010  0.00  0.00     0.180 C 
BRANCH  13  14
ATOM     14  C10 <0> d           1.415   4.092   1.431  0.00  0.00     0.154 C 
ATOM     15  O2  <0> d           0.365   3.661   2.311  0.00  0.00    -0.383 OA
ATOM     16  C13 <0> d           0.082   4.688   3.271  0.00  0.00     0.168 C 
ATOM     17  C12 <0> d           1.000   5.889   2.956  0.00  0.00     0.029 C 
ATOM     18  C11 <0> d           1.367   5.640   1.467  0.00  0.00     0.037 C 
ENDBRANCH  13  14
BRANCH  13  19
ATOM     19  O3  <0> d           2.175   4.079  -0.863  0.00  0.00    -0.388 OA
ATOM     20  H14 <0> d           3.070   3.802  -0.620  0.00  0.00     0.210 HD
ENDBRANCH  13  19
ENDBRANCH   2  13
TORSDOF 3
