REMARK  6 active torsions:
REMARK  status: ('A' for Active; 'I' for Inactive)
REMARK    1  A    between atoms: C6_7  and  C9_11 
REMARK    2  A    between atoms: C9_11  and  N3_12 
REMARK       I    between atoms: N3_12  and  C10_13 
REMARK    3  A    between atoms: C10_13  and  C11_15 
REMARK       I    between atoms: N4_17  and  C19_25 
REMARK    4  A    between atoms: C19_25  and  C20_27 
REMARK    5  A    between atoms: C20_27  and  C21_28 
REMARK    6  A    between atoms: C21_28  and  C22_29 
ROOT
ATOM      1  C11 <0> d           3.158  -7.609   3.255  0.00  0.00     0.106 C 
ATOM      2  C12 <0> d           3.726  -7.997   1.871  0.00  0.00     0.140 C 
ATOM      3  N4  <0> d           4.570  -9.186   2.133  0.00  0.00    -0.351 N 
ATOM      4  C13 <0> d           3.806  -9.967   3.135  0.00  0.00     0.136 C 
ATOM      5  C14 <0> d           3.211  -8.905   4.081  0.00  0.00    -0.007 C 
ATOM      6  C15 <0> d           1.807  -9.314   4.515  0.00  0.00     0.039 C 
ATOM      7  C16 <0> d           1.892 -10.572   5.384  0.00  0.00     0.233 C 
ATOM      8  N5  <0> d           2.730 -10.303   6.558  0.00  0.00    -0.075 N 
ATOM      9  C17 <0> d           4.103 -10.001   6.135  0.00  0.00     0.233 C 
ATOM     10  C18 <0> d           4.111  -8.719   5.299  0.00  0.00     0.039 C 
ATOM     11  C19 <0> d           5.764  -9.489   1.585  0.00  0.00     0.219 C 
ATOM     12  O2  <0> d           6.337 -10.509   1.904  0.00  0.00    -0.273 OA
ATOM     13  H20 <0> d           2.354  -9.514   7.064  0.00  0.00     0.277 HD
ATOM     14  H38 <0> d           2.735 -11.113   7.159  0.00  0.00     0.277 HD
ENDROOT
BRANCH   1  15
ATOM     15  C10 <0> d           1.735  -7.130   3.123  0.00  0.00     0.224 C 
ATOM     16  N3  <0> d           1.238  -6.241   4.005  0.00  0.00    -0.355 N 
ATOM     17  H11 <0> d           1.796  -5.910   4.726  0.00  0.00     0.162 HD
ATOM     18  O1  <0> d           1.037  -7.545   2.221  0.00  0.00    -0.273 OA
BRANCH  16  19
ATOM     19  C9  <0> d          -0.145  -5.775   3.876  0.00  0.00     0.181 C 
BRANCH  19  20
ATOM     20  C6  <0> d          -0.449  -4.794   4.979  0.00  0.00     0.044 A 
ATOM     21  N1  <0> d          -0.187  -3.485   4.951  0.00  0.00    -0.343 N 
ATOM     22  C5  <0> d          -0.590  -2.937   6.089  0.00  0.00     0.111 A 
ATOM     23  H39 <0> d           0.232  -3.011   4.216  0.00  0.00     0.167 HD
ATOM     24  C4  <0> d          -0.552  -1.612   6.569  0.00  0.00     0.050 A 
ATOM     25  N2  <0> d          -1.127  -3.926   6.870  0.00  0.00    -0.317 N 
ATOM     26  C3  <0> d          -1.051  -1.337   7.805  0.00  0.00     0.012 A 
ATOM     27  C2  <0> d          -1.595  -2.373   8.582  0.00  0.00    -0.046 A 
ATOM     28  C1  <0> d          -2.149  -2.072   9.951  0.00  0.00     0.049 C 
ATOM     29  C8  <0> d          -1.620  -3.637   8.110  0.00  0.00     0.104 A 
ATOM     30  C7  <0> d          -1.033  -5.092   6.160  0.00  0.00     0.124 A 
ENDBRANCH  19  20
ENDBRANCH  16  19
ENDBRANCH   1  15
BRANCH  11  31
ATOM     31  C20 <0> d           6.386  -8.559   0.575  0.00  0.00     0.103 C 
BRANCH  31  32
ATOM     32  C21 <0> d           7.728  -9.132   0.113  0.00  0.00     0.014 C 
BRANCH  32  33
ATOM     33  C22 <0> d           8.360  -8.189  -0.912  0.00  0.00    -0.014 C 
ATOM     34  C26 <0> d           9.765  -8.688  -1.292  0.00  0.00     0.004 C 
ATOM     35  C25 <0> d           9.737  -8.971  -2.808  0.00  0.00     0.000 C 
ATOM     36  C24 <0> d           8.583  -8.084  -3.339  0.00  0.00     0.000 C 
ATOM     37  C23 <0> d           7.527  -8.186  -2.211  0.00  0.00     0.004 C 
ENDBRANCH  32  33
ENDBRANCH  31  32
ENDBRANCH  11  31
TORSDOF 6
