REMARK  6 active torsions:
REMARK  status: ('A' for Active; 'I' for Inactive)
REMARK    1  A    between atoms: C2_2  and  O1_4 
REMARK    2  A    between atoms: O1_4  and  C4_5 
REMARK    3  A    between atoms: C4_5  and  C5_7 
REMARK    4  A    between atoms: C5_7  and  N1_8 
REMARK       I    between atoms: N1_8  and  C6_9 
REMARK    5  A    between atoms: C6_9  and  C7_11 
REMARK       I    between atoms: N2_13  and  C15_21 
REMARK    6  A    between atoms: C15_21  and  C16_23 
ROOT
ATOM      1  C7  <0> d          -5.111  -1.877  -5.330  0.00  0.00     0.106 C 
ATOM      2  C8  <0> d          -4.264  -3.053  -5.866  0.00  0.00     0.141 C 
ATOM      3  N2  <0> d          -4.995  -4.268  -5.433  0.00  0.00    -0.345 N 
ATOM      4  C9  <0> d          -6.425  -3.924  -5.617  0.00  0.00     0.136 C 
ATOM      5  C10 <0> d          -6.529  -2.451  -5.171  0.00  0.00    -0.007 C 
ATOM      6  C11 <0> d          -7.508  -1.697  -6.065  0.00  0.00     0.039 C 
ATOM      7  C12 <0> d          -8.920  -2.247  -5.846  0.00  0.00     0.233 C 
ATOM      8  N3  <0> d          -9.295  -2.091  -4.436  0.00  0.00    -0.075 N 
ATOM      9  C13 <0> d          -8.405  -2.895  -3.589  0.00  0.00     0.233 C 
ATOM     10  C14 <0> d          -6.971  -2.372  -3.713  0.00  0.00     0.039 C 
ATOM     11  C15 <0> d          -4.475  -5.425  -4.977  0.00  0.00     0.272 C 
ATOM     12  O4  <0> d          -5.190  -6.401  -4.841  0.00  0.00    -0.266 OA
ATOM     13  H20 <0> d          -9.219  -1.119  -4.174  0.00  0.00     0.277 HD
ATOM     14  H30 <0> d         -10.248  -2.398  -4.306  0.00  0.00     0.277 HD
ENDROOT
BRANCH   1  15
ATOM     15  C6  <0> d          -4.581  -1.413  -3.997  0.00  0.00     0.224 C 
ATOM     16  N1  <0> d          -4.710  -0.122  -3.633  0.00  0.00    -0.351 N 
ATOM     17  H11 <0> d          -5.144   0.508  -4.228  0.00  0.00     0.163 HD
ATOM     18  O3  <0> d          -4.037  -2.202  -3.253  0.00  0.00    -0.273 OA
BRANCH  16  19
ATOM     19  C5  <0> d          -4.194   0.328  -2.338  0.00  0.00     0.233 C 
BRANCH  19  20
ATOM     20  C4  <0> d          -4.463   1.802  -2.176  0.00  0.00     0.277 C 
ATOM     21  O2  <0> d          -5.028   2.413  -3.052  0.00  0.00    -0.263 OA
BRANCH  20  22
ATOM     22  O1  <0> d          -4.076   2.436  -1.058  0.00  0.00    -0.316 OA
BRANCH  22  23
ATOM     23  C2  <0> d          -4.363   3.833  -0.971  0.00  0.00     0.123 C 
ATOM     24  C1  <0> d          -5.738   4.032  -0.329  0.00  0.00     0.040 C 
ATOM     25  C3  <0> d          -3.297   4.521  -0.116  0.00  0.00     0.040 C 
ENDBRANCH  22  23
ENDBRANCH  20  22
ENDBRANCH  19  20
ENDBRANCH  16  19
ENDBRANCH   1  15
BRANCH  11  26
ATOM     26  C16 <0> d          -3.049  -5.508  -4.643  0.00  0.00     0.121 A 
ATOM     27  N5  <0> d          -2.302  -6.659  -4.479  0.00  0.00    -0.340 N 
ATOM     28  C18 <0> d          -1.047  -6.275  -4.183  0.00  0.00     0.209 A 
ATOM     29  C19 <0> d          -2.785  -8.036  -4.606  0.00  0.00     0.157 C 
ATOM     30  N4  <0> d          -0.993  -4.968  -4.151  0.00  0.00    -0.253 NA
ATOM     31  C17 <0> d          -2.195  -4.463  -4.427  0.00  0.00     0.153 A 
ENDBRANCH  11  26
TORSDOF 6
