REMARK  9 active torsions:
REMARK  status: ('A' for Active; 'I' for Inactive)
REMARK    1  A    between atoms: C2_2  and  N1_4 
REMARK    2  A    between atoms: N1_4  and  C4_5 
REMARK    3  A    between atoms: N1_4  and  C6_9 
REMARK    4  A    between atoms: C4_5  and  C5_6 
REMARK       I    between atoms: C5_6  and  N2_8 
REMARK    5  A    between atoms: C11_14  and  C12_15 
REMARK    6  A    between atoms: C12_15  and  N3_16 
REMARK    7  A    between atoms: N3_16  and  C13_17 
REMARK    8  A    between atoms: C13_17  and  C14_18 
REMARK    9  A    between atoms: C14_18  and  O2_19 
ROOT
ATOM      1  C6  <0> d          -2.329  -0.270   1.161  0.00  0.00     0.040 A 
ATOM      2  C7  <0> d          -3.227   0.784   1.049  0.00  0.00     0.049 A 
ATOM      3  C8  <0> d          -4.101   1.058   2.083  0.00  0.00     0.013 A 
ATOM      4  C9  <0> d          -4.082   0.284   3.230  0.00  0.00     0.020 A 
ATOM      5  C10 <0> d          -3.190  -0.766   3.344  0.00  0.00     0.012 A 
ATOM      6  C11 <0> d          -2.317  -1.048   2.311  0.00  0.00    -0.006 A 
ATOM      7 Br1  <0> d          -5.324   2.493   1.932  0.00  0.00    -0.051 Br
ENDROOT
BRANCH   1   8
ATOM      8  N1  <0> d          -1.445  -0.550   0.117  0.00  0.00    -0.368 N 
BRANCH   8   9
ATOM      9  C2  <0> d          -1.882  -1.374  -1.012  0.00  0.00     0.077 C 
ATOM     10  C1  <0> d          -2.417  -2.709  -0.492  0.00  0.00     0.032 C 
ATOM     11  C3  <0> d          -2.988  -0.645  -1.778  0.00  0.00     0.032 C 
ENDBRANCH   8   9
BRANCH   8  12
ATOM     12  C4  <0> d          -0.080  -0.019   0.152  0.00  0.00     0.226 C 
BRANCH  12  13
ATOM     13  C5  <0> d          -0.015   1.253  -0.653  0.00  0.00     0.233 C 
ATOM     14  O1  <0> d          -1.028   1.726  -1.124  0.00  0.00    -0.272 OA
ATOM     15  N2  <0> d           1.169   1.867  -0.850  0.00  0.00    -0.369 N 
ATOM     16  H10 <0> d           1.979   1.489  -0.473  0.00  0.00     0.159 HD
ATOM     17  H11 <0> d           1.211   2.686  -1.367  0.00  0.00     0.159 HD
ENDBRANCH  12  13
ENDBRANCH   8  12
ENDBRANCH   1   8
BRANCH   6  18
ATOM     18  C12 <0> d          -1.349  -2.197   2.434  0.00  0.00     0.273 C 
BRANCH  18  19
ATOM     19  N3  <0> d          -0.055  -1.697   2.918  0.00  0.00    -0.069 N 
ATOM     20  H17 <0> d           0.271  -0.963   2.307  0.00  0.00     0.277 HD
ATOM     21  H25 <0> d          -0.163  -1.334   3.853  0.00  0.00     0.277 HD
BRANCH  19  22
ATOM     22  C13 <0> d           0.921  -2.795   2.928  0.00  0.00     0.258 C 
BRANCH  22  23
ATOM     23  C14 <0> d           2.268  -2.274   3.432  0.00  0.00     0.194 C 
BRANCH  23  24
ATOM     24  O2  <0> d           2.143  -1.867   4.795  0.00  0.00    -0.394 OA
ATOM     25  C15 <0> d           3.352  -1.361   5.365  0.00  0.00     0.201 C 
ENDBRANCH  23  24
ENDBRANCH  22  23
ENDBRANCH  19  22
ENDBRANCH  18  19
ENDBRANCH   6  18
TORSDOF 9
