REMARK  9 active torsions:
REMARK  status: ('A' for Active; 'I' for Inactive)
REMARK    1  A    between atoms: C3_3  and  C4_4 
REMARK    2  A    between atoms: C3_3  and  N3_27 
REMARK    3  A    between atoms: C4_4  and  O1_5 
REMARK    4  A    between atoms: O1_5  and  C5_6 
REMARK    5  A    between atoms: C10_11  and  C11_12 
REMARK    6  A    between atoms: C11_12  and  N1_13 
REMARK    7  A    between atoms: N1_13  and  S1_14 
REMARK    8  A    between atoms: S1_14  and  C12_17 
REMARK    9  A    between atoms: C15_20  and  N2_23 
ROOT
ATOM      1  C11 <0> d          -2.533   0.063  -0.358  0.00  0.00     0.173 C 
ENDROOT
BRANCH   1   2
ATOM      2  C10 <0> d          -1.229  -0.687  -0.270  0.00  0.00    -0.006 A 
ATOM      3  C5  <0> d          -0.034   0.009  -0.157  0.00  0.00     0.076 A 
ATOM      4  C6  <0> d           1.165  -0.684  -0.082  0.00  0.00     0.037 A 
ATOM      5  C7  <0> d           1.166  -2.065  -0.109  0.00  0.00     0.003 A 
ATOM      6  C8  <0> d          -0.026  -2.757  -0.221  0.00  0.00     0.001 A 
ATOM      7  C9  <0> d          -1.222  -2.068  -0.301  0.00  0.00     0.011 A 
BRANCH   3   8
ATOM      8  O1  <0> d          -0.038   1.367  -0.126  0.00  0.00    -0.349 OA
BRANCH   8   9
ATOM      9  C4  <0> d           1.229   2.017  -0.009  0.00  0.00     0.203 C 
BRANCH   9  10
ATOM     10  C3  <0> d           1.025   3.534   0.010  0.00  0.00     0.260 C 
BRANCH  10  11
ATOM     11  N3  <0> d           0.261   3.894   1.224  0.00  0.00    -0.077 N 
ATOM     12  C1  <0> d           1.150   3.871   2.405  0.00  0.00     0.269 C 
ATOM     13  C2  <0> d          -0.335   5.237   1.066  0.00  0.00     0.269 C 
ATOM     14  H24 <0> d          -0.491   3.209   1.359  0.00  0.00     0.279 HD
ENDBRANCH  10  11
ENDBRANCH   9  10
ENDBRANCH   8   9
ENDBRANCH   3   8
ENDBRANCH   1   2
BRANCH   1  15
ATOM     15  N1  <0> d          -2.727   0.545  -1.728  0.00  0.00    -0.311 N 
ATOM     16  H17 <0> d          -1.982   0.556  -2.348  0.00  0.00     0.172 HD
BRANCH  15  17
ATOM     17  S1  <0> d          -4.219   1.072  -2.216  0.00  0.00     0.259 S 
ATOM     18  O2  <0> d          -4.080   1.494  -3.566  0.00  0.00    -0.201 OA
ATOM     19  O3  <0> d          -5.152   0.075  -1.822  0.00  0.00    -0.201 OA
BRANCH  17  20
ATOM     20  C12 <0> d          -4.596   2.513  -1.275  0.00  0.00     0.079 A 
ATOM     21  C17 <0> d          -4.228   3.760  -1.745  0.00  0.00     0.027 A 
ATOM     22  C16 <0> d          -4.522   4.892  -1.010  0.00  0.00     0.030 A 
ATOM     23  C15 <0> d          -5.189   4.777   0.203  0.00  0.00     0.025 A 
ATOM     24  C14 <0> d          -5.557   3.522   0.673  0.00  0.00     0.030 A 
ATOM     25  C13 <0> d          -5.265   2.395  -0.070  0.00  0.00     0.027 A 
BRANCH  23  26
ATOM     26  N2  <0> d          -5.487   5.919   0.949  0.00  0.00    -0.399 N 
ATOM     27  H22 <0> d          -5.229   6.794   0.620  0.00  0.00     0.156 HD
ATOM     28  H23 <0> d          -5.953   5.837   1.796  0.00  0.00     0.156 HD
ENDBRANCH  23  26
ENDBRANCH  17  20
ENDBRANCH  15  17
ENDBRANCH   1  15
TORSDOF 9
