REMARK  5 active torsions:
REMARK  status: ('A' for Active; 'I' for Inactive)
REMARK    1  A    between atoms: C3_3  and  S1_9 
REMARK    2  A    between atoms: S1_9  and  N3_12 
REMARK    3  A    between atoms: N3_12  and  C7_14 
REMARK    4  A    between atoms: C7_14  and  C8_15 
REMARK       I    between atoms: C8_15  and  N4_17 
REMARK    5  A    between atoms: N5_20  and  C13_23 
ROOT
ATOM      1  N3  <0> d           1.569  -0.072  -3.243  0.00  0.00    -0.302 N 
ATOM      2  C6  <0> d           2.282  -1.200  -3.847  0.00  0.00     0.163 C 
ENDROOT
BRANCH   1   3
ATOM      3  S1  <0> d          -0.008  -0.247  -2.770  0.00  0.00     0.264 S 
ATOM      4  O1  <0> d          -0.548  -1.312  -3.541  0.00  0.00    -0.200 OA
ATOM      5  O2  <0> d          -0.578   1.055  -2.765  0.00  0.00    -0.200 OA
BRANCH   3   6
ATOM      6  C3  <0> d           0.008  -0.796  -1.095  0.00  0.00     0.129 A 
ATOM      7  C2  <0> d           0.002  -0.004   0.002  0.00  0.00     0.049 A 
ATOM      8  C1  <0> d          -0.018   1.503   0.010  0.00  0.00     0.071 C 
ATOM      9  N2  <0> d           0.024  -0.805   1.088  0.00  0.00    -0.281 N 
ATOM     10  N1  <0> d           0.035  -2.134   0.643  0.00  0.00    -0.178 NA
ATOM     11  H1  <0> d           0.029  -0.513   2.013  0.00  0.00     0.189 HD
ATOM     12  C4  <0> d           0.028  -2.127  -0.666  0.00  0.00     0.076 A 
ATOM     13  C5  <0> d           0.040  -3.343  -1.556  0.00  0.00     0.074 C 
ENDBRANCH   3   6
ENDBRANCH   1   3
BRANCH   1  14
ATOM     14  C7  <0> d           2.252   1.211  -3.057  0.00  0.00     0.237 C 
BRANCH  14  15
ATOM     15  C8  <0> d           3.019   1.188  -1.760  0.00  0.00     0.238 C 
ATOM     16  O3  <0> d           2.998   0.198  -1.060  0.00  0.00    -0.272 OA
ATOM     17  N4  <0> d           3.729   2.268  -1.378  0.00  0.00    -0.348 N 
ATOM     18  C12 <0> d           4.483   2.260  -0.116  0.00  0.00     0.145 C 
ATOM     19  C9  <0> d           3.759   3.477  -2.213  0.00  0.00     0.145 C 
ATOM     20  C11 <0> d           4.039   3.453   0.732  0.00  0.00     0.145 C 
ATOM     21  N5  <0> d           4.069   4.662  -0.103  0.00  0.00    -0.356 N 
ATOM     22  C10 <0> d           3.311   4.672  -1.362  0.00  0.00     0.145 C 
BRANCH  21  23
ATOM     23  C13 <0> d           4.778   5.742   0.279  0.00  0.00     0.350 C 
ATOM     24  O4  <0> d           5.400   5.722   1.320  0.00  0.00    -0.284 OA
ENDBRANCH  21  23
ENDBRANCH  14  15
ENDBRANCH   1  14
TORSDOF 5
