REMARK  7 active torsions:
REMARK  status: ('A' for Active; 'I' for Inactive)
REMARK    1  A    between atoms: C4_4  and  C7_8 
REMARK       I    between atoms: C7_8  and  N1_10 
REMARK    2  A    between atoms: N1_10  and  N2_11 
REMARK       I    between atoms: N2_11  and  C8_12 
REMARK    3  A    between atoms: C8_12  and  C9_14 
REMARK    4  A    between atoms: C9_14  and  S1_15 
REMARK    5  A    between atoms: S1_15  and  C10_16 
REMARK    6  A    between atoms: N5_20  and  C12_21 
REMARK    7  A    between atoms: C12_21  and  C13_22 
ROOT
ATOM      1  N2  <0> d          -3.464  -4.540  -0.006  0.00  0.00    -0.267 N 
ATOM      2  C8  <0> d          -4.811  -4.480   0.001  0.00  0.00     0.245 C 
ATOM      3  O3  <0> d          -5.370  -3.403   0.009  0.00  0.00    -0.271 OA
ATOM      4  H9  <0> d          -3.017  -5.400  -0.012  0.00  0.00     0.190 HD
ENDROOT
BRANCH   2   5
ATOM      5  C9  <0> d          -5.622  -5.750  -0.002  0.00  0.00     0.186 C 
BRANCH   5   6
ATOM      6  S1  <0> d          -7.388  -5.340   0.008  0.00  0.00    -0.081 SA
BRANCH   6   7
ATOM      7  C10 <0> d          -8.191  -6.908   0.004  0.00  0.00     0.192 A 
ATOM      8  N5  <0> d          -9.537  -7.132   0.009  0.00  0.00    -0.307 N 
ATOM      9  C11 <0> d          -9.688  -8.491  -0.000  0.00  0.00     0.127 A 
ATOM     10  N4  <0> d          -8.494  -9.013  -0.001  0.00  0.00    -0.134 NA
ATOM     11  C19 <0> d         -10.992  -9.245  -0.003  0.00  0.00     0.093 C 
ATOM     12  N3  <0> d          -7.606  -8.084   0.001  0.00  0.00    -0.123 NA
BRANCH   8  13
ATOM     13  C12 <0> d         -10.601  -6.124   0.019  0.00  0.00     0.171 C 
BRANCH  13  14
ATOM     14  C13 <0> d         -10.973  -5.772  -1.398  0.00  0.00    -0.040 A 
ATOM     15  C18 <0> d         -11.966  -6.480  -2.048  0.00  0.00     0.009 A 
ATOM     16  C17 <0> d         -12.310  -6.154  -3.347  0.00  0.00     0.001 A 
ATOM     17  C16 <0> d         -11.654  -5.126  -3.998  0.00  0.00     0.000 A 
ATOM     18  C15 <0> d         -10.657  -4.422  -3.350  0.00  0.00     0.001 A 
ATOM     19  C14 <0> d         -10.316  -4.745  -2.050  0.00  0.00     0.009 A 
ENDBRANCH  13  14
ENDBRANCH   8  13
ENDBRANCH   6   7
ENDBRANCH   5   6
ENDBRANCH   2   5
BRANCH   1  20
ATOM     20  N1  <0> d          -2.711  -3.358  -0.003  0.00  0.00    -0.263 N 
ATOM     21  C7  <0> d          -1.364  -3.418  -0.010  0.00  0.00     0.272 C 
ATOM     22  O2  <0> d          -0.804  -4.497  -0.018  0.00  0.00    -0.266 OA
ATOM     23  H8  <0> d          -3.158  -2.498   0.003  0.00  0.00     0.190 HD
BRANCH  21  24
ATOM     24  C4  <0> d          -0.571  -2.176  -0.007  0.00  0.00     0.065 A 
ATOM     25  C3  <0> d          -1.081  -0.797   0.003  0.00  0.00     0.052 A 
ATOM     26  C2  <0> d           0.002  -0.004   0.002  0.00  0.00     0.050 A 
ATOM     27  C1  <0> d          -0.018   1.503   0.010  0.00  0.00     0.076 C 
ATOM     28  O1  <0> d           1.106  -0.767  -0.013  0.00  0.00    -0.319 OA
ATOM     29  C5  <0> d           0.788  -2.066  -0.013  0.00  0.00     0.065 A 
ATOM     30  C6  <0> d           1.766  -3.212  -0.024  0.00  0.00     0.077 C 
ENDBRANCH  21  24
ENDBRANCH   1  20
TORSDOF 7
