REMARK  6 active torsions:
REMARK  status: ('A' for Active; 'I' for Inactive)
REMARK    1  A    between atoms: C2_2  and  C3_3 
REMARK    2  A    between atoms: C2_2  and  O2_22 
REMARK    3  A    between atoms: C4_6  and  S1_9 
REMARK    4  A    between atoms: S1_9  and  C6_10 
REMARK    5  A    between atoms: C6_10  and  C7_11 
REMARK       I    between atoms: C7_11  and  N4_13 
REMARK    6  A    between atoms: N4_13  and  C8_14 
ROOT
ATOM      1  C6  <0> d           2.700  -2.149  -5.400  0.00  0.00     0.185 C 
ENDROOT
BRANCH   1   2
ATOM      2  S1  <0> d           0.989  -2.033  -4.809  0.00  0.00    -0.081 SA
BRANCH   2   3
ATOM      3  C4  <0> d           1.138  -1.307  -3.211  0.00  0.00     0.191 A 
ATOM      4  N2  <0> d           2.253  -0.946  -2.619  0.00  0.00    -0.122 NA
ATOM      5  N1  <0> d           1.992  -0.452  -1.461  0.00  0.00    -0.131 NA
ATOM      6  C3  <0> d           0.706  -0.469  -1.247  0.00  0.00     0.159 A 
ATOM      7  N3  <0> d           0.117  -1.019  -2.352  0.00  0.00    -0.314 N 
ATOM      8  C5  <0> d          -1.314  -1.248  -2.569  0.00  0.00     0.160 C 
BRANCH   6   9
ATOM      9  C2  <0> d           0.001   0.021  -0.009  0.00  0.00     0.185 C 
ATOM     10  C1  <0> d          -0.027   1.551  -0.009  0.00  0.00     0.048 C 
BRANCH   9  11
ATOM     11  O2  <0> d           0.696  -0.443   1.151  0.00  0.00    -0.388 OA
ATOM     12  H14 <0> d           0.297  -0.164   1.986  0.00  0.00     0.210 HD
ENDBRANCH   9  11
ENDBRANCH   6   9
ENDBRANCH   2   3
ENDBRANCH   1   2
BRANCH   1  13
ATOM     13  C7  <0> d           2.716  -2.761  -6.777  0.00  0.00     0.231 C 
ATOM     14  O1  <0> d           1.675  -3.088  -7.307  0.00  0.00    -0.272 OA
ATOM     15  N4  <0> d           3.886  -2.946  -7.419  0.00  0.00    -0.326 N 
ATOM     16  H10 <0> d           4.712  -2.624  -7.025  0.00  0.00     0.169 HD
BRANCH  15  17
ATOM     17  C8  <0> d           3.910  -3.603  -8.655  0.00  0.00     0.037 A 
ATOM     18  C13 <0> d           2.864  -3.434  -9.552  0.00  0.00     0.053 A 
ATOM     19  C12 <0> d           2.893  -4.080 -10.774  0.00  0.00     0.037 A 
ATOM     20  C11 <0> d           3.958  -4.902 -11.099  0.00  0.00     0.048 A 
ATOM     21 Cl1  <0> d           1.589  -3.864 -11.900  0.00  0.00    -0.084 Cl
ATOM     22  C10 <0> d           4.999  -5.076 -10.204  0.00  0.00     0.037 A 
ATOM     23  C9  <0> d           4.977  -4.428  -8.983  0.00  0.00     0.053 A 
ATOM     24 Cl2  <0> d           6.333  -6.107 -10.615  0.00  0.00    -0.084 Cl
ENDBRANCH  15  17
ENDBRANCH   1  13
TORSDOF 6
