REMARK  4 active torsions:
REMARK  status: ('A' for Active; 'I' for Inactive)
REMARK    1  A    between atoms: C3_3  and  O5_25 
REMARK    2  A    between atoms: C6_6  and  N1_7 
REMARK    3  A    between atoms: C9_11  and  C10_12 
REMARK    4  A    between atoms: C13_15  and  O2_19 
ROOT
ATOM      1  N1  <0> d           3.466   1.742  -0.481  0.00  0.00    -0.229 N 
ATOM      2  C7  <0> d           2.406   0.941  -0.714  0.00  0.00     0.272 A 
ATOM      3  O1  <0> d           2.549  -0.259  -0.854  0.00  0.00    -0.266 OA
ATOM      4  C8  <0> d           1.069   1.561  -0.794  0.00  0.00     0.101 A 
ATOM      5  C9  <0> d          -0.064   0.805  -1.030  0.00  0.00     0.034 C 
ATOM      6  C16 <0> d           0.996   3.025  -0.617  0.00  0.00     0.265 A 
ATOM      7  O3  <0> d          -0.069   3.609  -0.674  0.00  0.00    -0.267 OA
ATOM      8  N2  <0> d           2.143   3.696  -0.385  0.00  0.00    -0.274 N 
ATOM      9  C17 <0> d           3.324   3.066  -0.325  0.00  0.00     0.337 A 
ATOM     10  O4  <0> d           4.320   3.730  -0.117  0.00  0.00    -0.246 OA
ATOM     11  H10 <0> d           2.112   4.658  -0.263  0.00  0.00     0.173 HD
ENDROOT
BRANCH   5  12
ATOM     12  C10 <0> d          -1.389   1.393  -0.837  0.00  0.00    -0.034 A 
ATOM     13  C15 <0> d          -2.412   1.145  -1.765  0.00  0.00     0.033 A 
ATOM     14  C14 <0> d          -3.655   1.703  -1.574  0.00  0.00     0.044 A 
ATOM     15  C13 <0> d          -3.894   2.510  -0.465  0.00  0.00     0.083 A 
ATOM     16 Br1  <0> d          -5.040   1.375  -2.820  0.00  0.00    -0.048 Br
ATOM     17  C12 <0> d          -2.880   2.755   0.455  0.00  0.00     0.039 A 
ATOM     18  C11 <0> d          -1.644   2.203   0.280  0.00  0.00     0.014 A 
BRANCH  15  19
ATOM     19  O2  <0> d          -5.121   3.058  -0.280  0.00  0.00    -0.359 OA
ATOM     20  H9  <0> d          -5.725   2.507   0.237  0.00  0.00     0.217 HD
ENDBRANCH  15  19
ENDBRANCH   5  12
BRANCH   1  21
ATOM     21  C6  <0> d           4.748   1.177  -0.401  0.00  0.00     0.047 A 
ATOM     22  C1  <0> d           5.183   0.608   0.788  0.00  0.00     0.033 A 
ATOM     23  C2  <0> d           6.442   0.045   0.865  0.00  0.00     0.039 A 
ATOM     24  C3  <0> d           7.277   0.060  -0.243  0.00  0.00     0.065 A 
ATOM     25  C4  <0> d           6.845   0.634  -1.430  0.00  0.00     0.039 A 
ATOM     26  C5  <0> d           5.583   1.191  -1.510  0.00  0.00     0.033 A 
BRANCH  24  27
ATOM     27  O5  <0> d           8.518  -0.488  -0.166  0.00  0.00    -0.361 OA
ATOM     28  H11 <0> d           9.205   0.132   0.114  0.00  0.00     0.217 HD
ENDBRANCH  24  27
ENDBRANCH   1  21
TORSDOF 4
