REMARK  4 active torsions:
REMARK  status: ('A' for Active; 'I' for Inactive)
REMARK    1  A    between atoms: C2_2  and  C3_3 
REMARK    2  A    between atoms: C8_8  and  N1_9 
REMARK    3  A    between atoms: N1_9  and  C9_10 
REMARK    4  A    between atoms: C9_10  and  C14_16 
ROOT
ATOM      1  N1  <0> d           0.998  -2.576  -0.285  0.00  0.00    -0.051 N 
ATOM      2  H16 <0> d           1.722  -2.041  -0.740  0.00  0.00     0.279 HD
ATOM      3  H25 <0> d           0.648  -2.063   0.510  0.00  0.00     0.279 HD
ENDROOT
BRANCH   1   4
ATOM      4  C8  <0> d          -0.099  -2.820  -1.232  0.00  0.00     0.191 C 
ATOM      5  C3  <0> d          -0.779  -1.493  -1.576  0.00  0.00     0.016 C 
ATOM      6  C4  <0> d          -1.921  -1.746  -2.562  0.00  0.00     0.007 C 
ATOM      7  C5  <0> d          -1.363  -2.379  -3.838  0.00  0.00     0.001 C 
ATOM      8  C6  <0> d          -0.683  -3.706  -3.494  0.00  0.00     0.002 C 
ATOM      9  C7  <0> d           0.459  -3.453  -2.508  0.00  0.00     0.033 C 
BRANCH   5  10
ATOM     10  C2  <0> d          -1.337  -0.860  -0.300  0.00  0.00     0.002 C 
ATOM     11  C1  <0> d          -1.906   0.523  -0.624  0.00  0.00     0.005 C 
ENDBRANCH   5  10
ENDBRANCH   1   4
BRANCH   1  12
ATOM     12  C9  <0> d           1.549  -3.861   0.165  0.00  0.00     0.221 C 
ATOM     13  C13 <0> d           2.569  -3.614   1.281  0.00  0.00     0.124 C 
ATOM     14  S1  <0> d           1.746  -2.720   2.634  0.00  0.00    -0.166 SA
ATOM     15  C12 <0> d           0.282  -3.744   2.972  0.00  0.00     0.074 C 
ATOM     16  C11 <0> d          -0.468  -3.977   1.657  0.00  0.00     0.013 C 
ATOM     17  C10 <0> d           0.418  -4.745   0.681  0.00  0.00     0.052 C 
BRANCH  12  18
ATOM     18  C14 <0> d           2.230  -4.547  -0.991  0.00  0.00     0.211 C 
ATOM     19  O1  <0> d           2.809  -3.886  -1.836  0.00  0.00    -0.646 OA
ATOM     20  O2  <0> d           2.201  -5.763  -1.081  0.00  0.00    -0.646 OA
ENDBRANCH  12  18
ENDBRANCH   1  12
TORSDOF 4
