REMARK  10 active torsions:
REMARK  status: ('A' for Active; 'I' for Inactive)
REMARK    1  A    between atoms: C2_2  and  C3_3 
REMARK    2  A    between atoms: C3_3  and  C4_4 
REMARK    3  A    between atoms: C3_3  and  N3_21 
REMARK    4  A    between atoms: C4_4  and  C5_5 
REMARK    5  A    between atoms: C4_4  and  N1_11 
REMARK    6  A    between atoms: N1_11  and  C9_12 
REMARK    7  A    between atoms: N1_11  and  C13_17 
REMARK    8  A    between atoms: C9_12  and  C10_13 
REMARK    9  A    between atoms: C10_13  and  N2_14 
REMARK   10  A    between atoms: C13_17  and  C14_18 
ROOT
ATOM      1  C4  <0> d           0.776  -1.634  -1.574  0.00  0.00     0.293 C 
ENDROOT
BRANCH   1   2
ATOM      2  C3  <0> d           1.027  -2.925  -2.357  0.00  0.00     0.221 C 
BRANCH   2   3
ATOM      3  C2  <0> d          -0.092  -3.125  -3.382  0.00  0.00     0.031 C 
ATOM      4  C1  <0> d           0.137  -4.436  -4.137  0.00  0.00     0.007 C 
ENDBRANCH   2   3
BRANCH   2   5
ATOM      5  N3  <0> d           2.317  -2.832  -3.053  0.00  0.00    -0.073 N 
ATOM      6  H29 <0> d           2.483  -3.683  -3.569  0.00  0.00     0.274 HD
ATOM      7  H30 <0> d           2.300  -2.050  -3.690  0.00  0.00     0.274 HD
ATOM      8  H31 <0> d           3.055  -2.700  -2.377  0.00  0.00     0.274 HD
ENDBRANCH   2   5
ENDBRANCH   1   2
BRANCH   1   9
ATOM      9  C5  <0> d           0.896  -0.452  -2.502  0.00  0.00     0.019 A 
ATOM     10  S1  <0> d          -0.077  -0.051  -3.943  0.00  0.00    -0.103 SA
ATOM     11  C8  <0> d           0.747   1.469  -4.388  0.00  0.00     0.069 A 
ATOM     12  C7  <0> d           1.700   1.563  -3.428  0.00  0.00     0.018 A 
ATOM     13  C6  <0> d           1.776   0.578  -2.461  0.00  0.00     0.036 A 
ATOM     14 Br1  <0> d           2.906   3.020  -3.412  0.00  0.00    -0.051 Br
ENDBRANCH   1   9
BRANCH   1  15
ATOM     15  N1  <0> d          -0.574  -1.667  -0.996  0.00  0.00     0.102 N 
BRANCH  15  16
ATOM     16  C9  <0> d          -1.569  -1.167  -1.954  0.00  0.00     0.301 C 
BRANCH  16  17
ATOM     17  C10 <0> d          -2.968  -1.599  -1.508  0.00  0.00     0.264 C 
BRANCH  17  18
ATOM     18  N2  <0> d          -3.958  -1.145  -2.494  0.00  0.00    -0.077 N 
ATOM     19  C11 <0> d          -3.728  -1.833  -3.771  0.00  0.00     0.269 C 
ATOM     20  C12 <0> d          -5.310  -1.453  -2.008  0.00  0.00     0.269 C 
ATOM     21  H32 <0> d          -3.868  -0.149  -2.627  0.00  0.00     0.279 HD
ENDBRANCH  17  18
ENDBRANCH  16  17
ENDBRANCH  15  16
BRANCH  15  22
ATOM     22  C13 <0> d          -0.627  -0.909   0.261  0.00  0.00     0.277 C 
BRANCH  22  23
ATOM     23  C14 <0> d           0.027  -1.727   1.377  0.00  0.00     0.006 C 
ATOM     24  C15 <0> d           0.093  -0.886   2.654  0.00  0.00     0.011 C 
ATOM     25  C16 <0> d          -0.801  -2.986   1.639  0.00  0.00     0.011 C 
ENDBRANCH  22  23
ENDBRANCH  15  22
ENDBRANCH   1  15
TORSDOF 10
