REMARK  7 active torsions:
REMARK  status: ('A' for Active; 'I' for Inactive)
REMARK    1  A    between atoms: N1_2  and  C3_4 
REMARK    2  A    between atoms: C3_4  and  C4_5 
REMARK    3  A    between atoms: C8_9  and  C10_11 
REMARK    4  A    between atoms: C10_11  and  N2_12 
REMARK       I    between atoms: N2_12  and  C11_13 
REMARK    5  A    between atoms: C11_13  and  C12_15 
REMARK       I    between atoms: C12_15  and  N3_17 
REMARK    6  A    between atoms: N3_17  and  C13_18 
REMARK    7  A    between atoms: C17_22  and  S1_24 
ROOT
ATOM      1  N2  <0> d          -1.427  -1.167  -5.554  0.00  0.00    -0.349 N 
ATOM      2  C11 <0> d          -1.174  -1.857  -6.683  0.00  0.00     0.309 C 
ATOM      3  O1  <0> d          -1.910  -2.761  -7.020  0.00  0.00    -0.262 OA
ATOM      4  H15 <0> d          -0.839  -0.445  -5.284  0.00  0.00     0.163 HD
ENDROOT
BRANCH   1   5
ATOM      5  C10 <0> d          -2.592  -1.508  -4.733  0.00  0.00     0.161 C 
BRANCH   5   6
ATOM      6  C8  <0> d          -2.648  -0.594  -3.536  0.00  0.00    -0.040 A 
ATOM      7  C7  <0> d          -3.340   0.600  -3.610  0.00  0.00     0.009 A 
ATOM      8  C6  <0> d          -3.391   1.439  -2.512  0.00  0.00     0.001 A 
ATOM      9  C5  <0> d          -2.751   1.083  -1.340  0.00  0.00     0.009 A 
ATOM     10  C4  <0> d          -2.060  -0.112  -1.265  0.00  0.00    -0.032 A 
ATOM     11  C9  <0> d          -2.004  -0.948  -2.365  0.00  0.00     0.017 A 
BRANCH  10  12
ATOM     12  C3  <0> d          -1.362  -0.500   0.013  0.00  0.00     0.272 C 
BRANCH  12  13
ATOM     13  N1  <0> d           0.013   0.017  -0.003  0.00  0.00    -0.075 N 
ATOM     14  C1  <0> d          -0.017   1.486   0.001  0.00  0.00     0.269 C 
ATOM     15  C2  <0> d           0.730  -0.461   1.186  0.00  0.00     0.269 C 
ATOM     16  H24 <0> d           0.485  -0.307  -0.834  0.00  0.00     0.279 HD
ENDBRANCH  12  13
ENDBRANCH  10  12
ENDBRANCH   5   6
ENDBRANCH   1   5
BRANCH   2  17
ATOM     17  C12 <0> d           0.013  -1.510  -7.520  0.00  0.00     0.313 C 
ATOM     18  O2  <0> d           0.750  -0.606  -7.183  0.00  0.00    -0.262 OA
ATOM     19  N3  <0> d           0.267  -2.200  -8.650  0.00  0.00    -0.319 N 
ATOM     20  H16 <0> d          -0.282  -2.965  -8.884  0.00  0.00     0.169 HD
BRANCH  19  21
ATOM     21  C13 <0> d           1.320  -1.814  -9.483  0.00  0.00     0.036 A 
ATOM     22  C18 <0> d           2.486  -1.298  -8.935  0.00  0.00     0.048 A 
ATOM     23  C17 <0> d           3.532  -0.922  -9.766  0.00  0.00     0.002 A 
ATOM     24  C16 <0> d           3.404  -1.052 -11.144  0.00  0.00     0.018 A 
ATOM     25  C15 <0> d           2.239  -1.559 -11.687  0.00  0.00     0.004 A 
ATOM     26  C14 <0> d           1.198  -1.940 -10.862  0.00  0.00     0.029 A 
BRANCH  23  27
ATOM     27  S1  <0> d           5.019  -0.275  -9.076  0.00  0.00    -0.134 SA
ATOM     28  C19 <0> d           6.060   0.071 -10.520  0.00  0.00     0.095 C 
ENDBRANCH  23  27
ENDBRANCH  19  21
ENDBRANCH   2  17
TORSDOF 7
