REMARK  3 active torsions:
REMARK  status: ('A' for Active; 'I' for Inactive)
REMARK    1  A    between atoms: C7_7  and  N1_8 
REMARK    2  A    between atoms: N1_8  and  C9_10 
REMARK    3  A    between atoms: C9_10  and  C10_11 
ROOT
ATOM      1  N1  <0> d           2.132  -0.123   1.392  0.00  0.00    -0.070 N 
ATOM      2  C8  <0> d           2.731  -0.776   2.564  0.00  0.00     0.270 C 
ATOM      3  H29 <0> d           2.686  -0.328   0.574  0.00  0.00     0.279 HD
ENDROOT
BRANCH   1   4
ATOM      4  C7  <0> d           0.765  -0.623   1.198  0.00  0.00     0.191 C 
ATOM      5  C2  <0> d           0.814  -2.106   0.822  0.00  0.00     0.012 C 
ATOM      6  C1  <0> d           1.609  -2.278  -0.474  0.00  0.00     0.012 C 
ATOM      7  C3  <0> d          -0.610  -2.627   0.619  0.00  0.00     0.006 C 
ATOM      8  C4  <0> d          -1.406  -2.455   1.915  0.00  0.00     0.000 C 
ATOM      9  C5  <0> d          -1.454  -0.973   2.291  0.00  0.00     0.002 C 
ATOM     10  C6  <0> d          -0.030  -0.451   2.493  0.00  0.00     0.033 C 
ENDBRANCH   1   4
BRANCH   1  11
ATOM     11  C9  <0> d           2.096   1.330   1.607  0.00  0.00     0.241 C 
BRANCH  11  12
ATOM     12  C10 <0> d           1.615   2.023   0.331  0.00  0.00     0.037 C 
ATOM     13  C14 <0> d           1.438   3.519   0.597  0.00  0.00     0.238 C 
ATOM     14  N2  <0> d           0.981   4.187  -0.628  0.00  0.00    -0.075 N 
ATOM     15  C13 <0> d           2.002   4.063  -1.675  0.00  0.00     0.232 C 
ATOM     16  H26 <0> d           0.814   5.163  -0.435  0.00  0.00     0.277 HD
ATOM     17  H30 <0> d           0.123   3.757  -0.943  0.00  0.00     0.277 HD
ATOM     18  C12 <0> d           2.199   2.587  -2.028  0.00  0.00     0.028 C 
ATOM     19  C11 <0> d           2.652   1.825  -0.779  0.00  0.00     0.009 C 
ENDBRANCH  11  12
ENDBRANCH   1  11
TORSDOF 3
