REMARK  6 active torsions:
REMARK  status: ('A' for Active; 'I' for Inactive)
REMARK    1  A    between atoms: C6_6  and  N1_9 
REMARK    2  A    between atoms: C11_12  and  N2_15 
REMARK    3  A    between atoms: N2_15  and  C14_16 
REMARK    4  A    between atoms: C14_16  and  C15_17 
REMARK    5  A    between atoms: C15_17  and  C16_18 
REMARK    6  A    between atoms: C17_21  and  C18_24 
ROOT
ATOM      1  N2  <0> d           0.061  -2.745   6.587  0.00  0.00    -0.070 N 
ATOM      2  H20 <0> d           0.126  -1.739   6.614  0.00  0.00     0.277 HD
ATOM      3  H29 <0> d          -0.795  -3.039   7.033  0.00  0.00     0.277 HD
ENDROOT
BRANCH   1   4
ATOM      4  C11 <0> d           0.065  -3.200   5.190  0.00  0.00     0.189 C 
ATOM      5  C10 <0> d          -1.196  -2.693   4.485  0.00  0.00     0.053 C 
ATOM      6  C9  <0> d          -1.205  -3.198   3.039  0.00  0.00     0.125 C 
ATOM      7  N1  <0> d           0.051  -2.796   2.390  0.00  0.00    -0.380 N 
ATOM      8  C13 <0> d           1.324  -3.159   3.030  0.00  0.00     0.125 C 
ATOM      9  C12 <0> d           1.304  -2.650   4.479  0.00  0.00     0.053 C 
BRANCH   7  10
ATOM     10  C6  <0> d           0.036  -2.089   1.186  0.00  0.00     0.036 A 
ATOM     11  C5  <0> d           0.039  -2.773  -0.023  0.00  0.00     0.030 A 
ATOM     12  C4  <0> d           0.024  -2.071  -1.212  0.00  0.00     0.003 A 
ATOM     13  C3  <0> d           0.006  -0.688  -1.200  0.00  0.00     0.007 A 
ATOM     14  C2  <0> d           0.002  -0.004   0.002  0.00  0.00    -0.054 A 
ATOM     15  C1  <0> d          -0.018   1.503   0.010  0.00  0.00     0.049 C 
ATOM     16  C7  <0> d           0.023  -0.700   1.194  0.00  0.00    -0.029 A 
ATOM     17  C8  <0> d           0.025   0.046   2.504  0.00  0.00     0.051 C 
ENDBRANCH   7  10
ENDBRANCH   1   4
BRANCH   1  18
ATOM     18  C14 <0> d           1.208  -3.329   7.295  0.00  0.00     0.240 C 
BRANCH  18  19
ATOM     19  C15 <0> d           1.204  -2.856   8.750  0.00  0.00     0.110 C 
BRANCH  19  20
ATOM     20  C16 <0> d           2.380  -3.455   9.477  0.00  0.00     0.150 A 
ATOM     21  N3  <0> d           3.588  -2.906   9.572  0.00  0.00    -0.212 NA
ATOM     22  C17 <0> d           4.380  -3.690  10.274  0.00  0.00     0.157 A 
ATOM     23  N4  <0> d           3.664  -4.777  10.643  0.00  0.00    -0.259 N 
ATOM     24  H1  <0> d           3.978  -5.530  11.168  0.00  0.00     0.191 HD
ATOM     25  N5  <0> d           2.374  -4.595  10.118  0.00  0.00    -0.158 NA
BRANCH  22  26
ATOM     26  C18 <0> d           5.800  -3.429  10.600  0.00  0.00     0.029 A 
ATOM     27  C22 <0> d           6.426  -2.264  10.158  0.00  0.00     0.131 A 
ATOM     28  N6  <0> d           7.688  -2.029  10.453  0.00  0.00    -0.272 NA
ATOM     29  C21 <0> d           8.408  -2.878  11.160  0.00  0.00     0.116 A 
ATOM     30  C20 <0> d           7.861  -4.058  11.631  0.00  0.00     0.020 A 
ATOM     31  C19 <0> d           6.537  -4.349  11.353  0.00  0.00     0.018 A 
ENDBRANCH  22  26
ENDBRANCH  19  20
ENDBRANCH  18  19
ENDBRANCH   1  18
TORSDOF 6
