REMARK  4 active torsions:
REMARK  status: ('A' for Active; 'I' for Inactive)
REMARK    1  A    between atoms: C2_2  and  N1_3 
REMARK    2  A    between atoms: C10_12  and  C11_13 
REMARK    3  A    between atoms: N2_19  and  C17_23 
REMARK    4  A    between atoms: C20_26  and  C22_28 
REMARK       I    between atoms: C22_28  and  N3_30 
ROOT
ATOM      1  C11 <0> d           4.264  -0.880  -0.284  0.00  0.00    -0.054 C 
ATOM      2  C12 <0> d           5.119  -0.805   0.799  0.00  0.00     0.015 C 
ATOM      3  C13 <0> d           6.455  -1.165   0.692  0.00  0.00    -0.034 C 
ATOM      4  C14 <0> d           7.282  -1.077   1.803  0.00  0.00     0.082 A 
ATOM      5  C15 <0> d           6.976  -0.659   3.119  0.00  0.00     0.266 A 
ATOM      6  O1  <0> d           5.847  -0.308   3.417  0.00  0.00    -0.266 OA
ATOM      7  N2  <0> d           7.944  -0.660   4.019  0.00  0.00    -0.298 N 
ATOM      8  C16 <0> d           9.196  -1.051   3.690  0.00  0.00     0.148 A 
ATOM      9  S2  <0> d          10.592  -1.133   4.678  0.00  0.00    -0.052 SA
ATOM     10  S3  <0> d           9.019  -1.466   1.962  0.00  0.00    -0.054 SA
ATOM     11  C19 <0> d           7.018  -1.651  -0.618  0.00  0.00     0.054 C 
ATOM     12  C20 <0> d           5.911  -2.341  -1.420  0.00  0.00     0.086 C 
ATOM     13  C21 <0> d           4.756  -1.361  -1.623  0.00  0.00     0.053 C 
ENDROOT
BRANCH   1  14
ATOM     14  C10 <0> d           2.931  -0.511  -0.133  0.00  0.00     0.044 C 
ATOM     15  C9  <0> d           2.099  -0.451  -1.240  0.00  0.00     0.077 A 
ATOM     16  N1  <0> d           0.744  -0.254  -1.287  0.00  0.00    -0.340 N 
ATOM     17  S1  <0> d           2.521  -0.615  -2.968  0.00  0.00    -0.070 SA
ATOM     18  C3  <0> d           0.089  -0.221  -2.504  0.00  0.00     0.052 A 
ATOM     19  C8  <0> d           0.890  -0.404  -3.640  0.00  0.00     0.034 A 
ATOM     20  C4  <0> d          -1.285  -0.025  -2.730  0.00  0.00     0.031 A 
ATOM     21  C7  <0> d           0.378  -0.397  -4.917  0.00  0.00     0.021 A 
ATOM     22  C6  <0> d          -0.979  -0.202  -5.108  0.00  0.00     0.002 A 
ATOM     23  C5  <0> d          -1.796  -0.018  -4.006  0.00  0.00     0.002 A 
BRANCH  16  24
ATOM     24  C2  <0> d          -0.011  -0.072  -0.045  0.00  0.00     0.125 C 
ATOM     25  C1  <0> d          -0.063   1.416   0.307  0.00  0.00     0.027 C 
ENDBRANCH  16  24
ENDBRANCH   1  14
BRANCH  12  26
ATOM     26  C22 <0> d           6.452  -2.774  -2.758  0.00  0.00     0.220 C 
ATOM     27  O2  <0> d           7.609  -2.553  -3.045  0.00  0.00    -0.273 OA
ATOM     28  N3  <0> d           5.649  -3.407  -3.637  0.00  0.00    -0.370 N 
ATOM     29  H22 <0> d           4.723  -3.584  -3.407  0.00  0.00     0.159 HD
ATOM     30  H23 <0> d           5.997  -3.686  -4.498  0.00  0.00     0.159 HD
ENDBRANCH  12  26
BRANCH   7  31
ATOM     31  C17 <0> d           7.657  -0.233   5.391  0.00  0.00     0.129 C 
ATOM     32  C18 <0> d           7.226  -1.442   6.222  0.00  0.00     0.027 C 
ENDBRANCH   7  31
TORSDOF 4
