REMARK  7 active torsions:
REMARK  status: ('A' for Active; 'I' for Inactive)
REMARK    1  A    between atoms: C4_4  and  C7_7 
REMARK    2  A    between atoms: C7_7  and  C8_8 
REMARK    3  A    between atoms: C7_7  and  C9_10 
REMARK    4  A    between atoms: C8_8  and  N1_9 
REMARK    5  A    between atoms: C10_13  and  C11_15 
REMARK    6  A    between atoms: C11_15  and  O2_16 
REMARK    7  A    between atoms: O2_16  and  C12_17 
ROOT
ATOM      1  C9  <0> d          -0.742   1.585  -1.213  0.00  0.00     0.179 A 
ATOM      2  N2  <0> d          -0.950   2.831  -1.531  0.00  0.00    -0.126 NA
ATOM      3  N3  <0> d          -1.603   2.886  -2.638  0.00  0.00    -0.124 NA
ATOM      4  C10 <0> d          -1.835   1.677  -3.063  0.00  0.00     0.193 A 
ATOM      5  O1  <0> d          -1.291   0.827  -2.176  0.00  0.00    -0.275 OA
ENDROOT
BRANCH   1   6
ATOM      6  C7  <0> d          -0.013   1.086   0.008  0.00  0.00     0.123 C 
BRANCH   6   7
ATOM      7  C4  <0> d          -0.718   1.572   1.248  0.00  0.00    -0.044 A 
ATOM      8  C3  <0> d          -1.222   0.662   2.158  0.00  0.00     0.008 A 
ATOM      9  C2  <0> d          -1.870   1.107   3.295  0.00  0.00     0.001 A 
ATOM     10  C1  <0> d          -2.012   2.463   3.523  0.00  0.00     0.000 A 
ATOM     11  C6  <0> d          -1.507   3.374   2.613  0.00  0.00     0.001 A 
ATOM     12  C5  <0> d          -0.856   2.928   1.478  0.00  0.00     0.008 A 
ENDBRANCH   6   7
BRANCH   6  13
ATOM     13  C8  <0> d           1.423   1.615  -0.003  0.00  0.00     0.247 C 
BRANCH  13  14
ATOM     14  N1  <0> d           2.168   1.034   1.121  0.00  0.00    -0.078 N 
ATOM     15  H9  <0> d           3.200   1.414   1.114  0.00  0.00     0.274 HD
ATOM     16  H10 <0> d           2.180  -0.062   1.025  0.00  0.00     0.274 HD
ATOM     17  H18 <0> d           1.681   1.313   2.068  0.00  0.00     0.274 HD
ENDBRANCH  13  14
ENDBRANCH   6  13
ENDBRANCH   1   6
BRANCH   4  18
ATOM     18  C11 <0> d          -2.571   1.301  -4.323  0.00  0.00     0.264 C 
BRANCH  18  19
ATOM     19  O2  <0> d          -1.644   1.200  -5.406  0.00  0.00    -0.343 OA
BRANCH  19  20
ATOM     20  C12 <0> d          -2.149   0.867  -6.622  0.00  0.00     0.069 A 
ATOM     21  C17 <0> d          -1.305   0.751  -7.717  0.00  0.00     0.037 A 
ATOM     22  C16 <0> d          -1.821   0.412  -8.953  0.00  0.00     0.003 A 
ATOM     23  C15 <0> d          -3.178   0.187  -9.099  0.00  0.00     0.000 A 
ATOM     24  C14 <0> d          -4.021   0.302  -8.009  0.00  0.00     0.003 A 
ATOM     25  C13 <0> d          -3.509   0.635  -6.770  0.00  0.00     0.037 A 
ENDBRANCH  19  20
ENDBRANCH  18  19
ENDBRANCH   4  18
TORSDOF 7
