REMARK  5 active torsions:
REMARK  status: ('A' for Active; 'I' for Inactive)
REMARK    1  A    between atoms: C3_4  and  C10_14 
REMARK    2  A    between atoms: C3_4  and  N3_18 
REMARK    3  A    between atoms: N2_7  and  C5_8 
REMARK    4  A    between atoms: C5_8  and  C6_9 
REMARK       I    between atoms: N3_18  and  C11_19 
REMARK    5  A    between atoms: C11_19  and  C12_21 
ROOT
ATOM      1  C1  <0> d          -2.720  -1.929  -1.587  0.00  0.00     0.091 C 
ATOM      2  C2  <0> d          -1.462  -1.221  -1.158  0.00  0.00     0.103 A 
ATOM      3  N1  <0> d          -1.367  -0.539  -0.071  0.00  0.00    -0.227 NA
ATOM      4  C3  <0> d           0.002  -0.004   0.002  0.00  0.00     0.310 A 
ATOM      5  C4  <0> d           0.662  -0.521  -1.261  0.00  0.00     0.286 A 
ATOM      6  O1  <0> d           1.802  -0.333  -1.630  0.00  0.00    -0.268 OA
ATOM      7  N2  <0> d          -0.302  -1.237  -1.885  0.00  0.00    -0.300 N 
ENDROOT
BRANCH   4   8
ATOM      8  C10 <0> d          -0.019   1.526   0.010  0.00  0.00     0.443 C 
ATOM      9  F1  <0> d           1.294   2.010   0.001  0.00  0.00    -0.166 F 
ATOM     10  F2  <0> d          -0.695   1.989  -1.123  0.00  0.00    -0.166 F 
ATOM     11  F3  <0> d          -0.673   1.977   1.161  0.00  0.00    -0.166 F 
ENDBRANCH   4   8
BRANCH   4  12
ATOM     12  N3  <0> d           0.692  -0.515   1.189  0.00  0.00    -0.317 N 
ATOM     13  C11 <0> d           1.984  -0.199   1.406  0.00  0.00     0.223 C 
ATOM     14  O3  <0> d           2.576   0.507   0.617  0.00  0.00    -0.273 OA
ATOM     15  H13 <0> d           0.155  -1.155   1.905  0.00  0.00     0.165 HD
BRANCH  13  16
ATOM     16  C12 <0> d           2.694  -0.725   2.627  0.00  0.00     0.070 C 
ATOM     17  C13 <0> d           4.139  -0.222   2.632  0.00  0.00     0.019 C 
ATOM     18  C14 <0> d           1.977  -0.230   3.885  0.00  0.00     0.019 C 
ENDBRANCH  13  16
ENDBRANCH   4  12
BRANCH   7  19
ATOM     19  C5  <0> d          -0.129  -1.933  -3.162  0.00  0.00     0.165 C 
BRANCH  19  20
ATOM     20  C6  <0> d          -0.494  -0.991  -4.311  0.00  0.00     0.140 C 
ATOM     21  O2  <0> d           0.490   0.059  -4.432  0.00  0.00    -0.384 OA
ATOM     22  C9  <0> d           0.346   0.561  -5.779  0.00  0.00     0.168 C 
ATOM     23  C8  <0> d           0.127  -0.697  -6.648  0.00  0.00     0.029 C 
ATOM     24  C7  <0> d          -0.439  -1.742  -5.660  0.00  0.00     0.035 C 
ENDBRANCH  19  20
ENDBRANCH   7  19
TORSDOF 5
