REMARK  3 active torsions:
REMARK  status: ('A' for Active; 'I' for Inactive)
REMARK    1  A    between atoms: C7_7  and  C8_8 
REMARK       I    between atoms: C8_8  and  N1_10 
REMARK    2  A    between atoms: N1_10  and  N2_11 
REMARK       I    between atoms: N2_11  and  C9_12 
REMARK    3  A    between atoms: C9_12  and  C10_14 
ROOT
ATOM      1  N2  <0> d           0.572   0.035   4.839  0.00  0.00    -0.265 N 
ATOM      2  C9  <0> d           0.795  -0.642   5.982  0.00  0.00     0.260 C 
ATOM      3  O2  <0> d           0.902  -1.850   5.961  0.00  0.00    -0.269 OA
ATOM      4  H10 <0> d           0.486   1.001   4.856  0.00  0.00     0.190 HD
ENDROOT
BRANCH   1   5
ATOM      5  N1  <0> d           0.465  -0.656   3.625  0.00  0.00    -0.263 N 
ATOM      6  C8  <0> d           0.242   0.021   2.481  0.00  0.00     0.270 C 
ATOM      7  O1  <0> d           0.134   1.232   2.503  0.00  0.00    -0.266 OA
ATOM      8  H9  <0> d           0.550  -1.622   3.607  0.00  0.00     0.190 HD
BRANCH   6   9
ATOM      9  C7  <0> d           0.128  -0.708   1.200  0.00  0.00     0.039 A 
ATOM     10  C2  <0> d          -0.235  -0.028   0.036  0.00  0.00    -0.046 A 
ATOM     11  C1  <0> d          -0.512   1.452   0.082  0.00  0.00     0.049 C 
ATOM     12  C3  <0> d          -0.334  -0.714  -1.157  0.00  0.00     0.007 A 
ATOM     13  C4  <0> d          -0.080  -2.073  -1.200  0.00  0.00     0.001 A 
ATOM     14  C5  <0> d           0.275  -2.754  -0.049  0.00  0.00     0.001 A 
ATOM     15  C6  <0> d           0.378  -2.080   1.150  0.00  0.00     0.017 A 
ENDBRANCH   6   9
ENDBRANCH   1   5
BRANCH   2  16
ATOM     16  C10 <0> d           0.910   0.101   7.288  0.00  0.00     0.192 C 
ATOM     17  N3  <0> d           1.228  -0.865   8.344  0.00  0.00    -0.320 N 
ATOM     18  C12 <0> d           0.127  -1.097   9.310  0.00  0.00     0.081 C 
ATOM     19  C13 <0> d           2.290  -1.614   8.750  0.00  0.00     0.222 C 
ATOM     20  S1  <0> d          -0.690   0.553   9.305  0.00  0.00    -0.135 SA
ATOM     21  C15 <0> d           0.835  -1.334  10.653  0.00  0.00     0.051 C 
ATOM     22  C16 <0> d          -0.816  -2.238   8.919  0.00  0.00     0.051 C 
ATOM     23  C11 <0> d          -0.395   0.901   7.512  0.00  0.00     0.111 C 
ATOM     24  C14 <0> d           2.096  -2.079  10.174  0.00  0.00     0.106 C 
ATOM     25  O3  <0> d           3.256  -1.871   8.064  0.00  0.00    -0.273 OA
ENDBRANCH   2  16
TORSDOF 3
