REMARK  2 active torsions:
REMARK  status: ('A' for Active; 'I' for Inactive)
REMARK    1  A    between atoms: C7_8  and  C8_10 
REMARK    2  A    between atoms: C11_16  and  C12_18 
ROOT
ATOM      1  C1  <0> d          -0.017   1.364   0.009  0.00  0.00     0.054 A 
ATOM      2  C2  <0> d           1.190   2.096   0.002  0.00  0.00     0.076 A 
ATOM      3  C3  <0> d           2.381   1.336  -0.013  0.00  0.00     0.037 A 
ATOM      4  C4  <0> d           2.387  -0.034  -0.021  0.00  0.00     0.052 A 
ATOM      5  C5  <0> d           1.185  -0.759  -0.014  0.00  0.00     0.047 A 
ATOM      6  C6  <0> d           0.002  -0.004   0.002  0.00  0.00     0.031 A 
ATOM      7  S1  <0> d          -1.310  -1.207   0.008  0.00  0.00    -0.100 SA
ATOM      8  C7  <0> d          -0.274  -2.725  -0.010  0.00  0.00     0.179 A 
ATOM      9  N1  <0> d           1.077  -2.149  -0.021  0.00  0.00    -0.373 N 
ATOM     10  S2  <0> d           3.622   2.606  -0.018  0.00  0.00    -0.070 SA
ATOM     11  C11 <0> d           2.596   3.940  -0.001  0.00  0.00     0.106 A 
ATOM     12  N4  <0> d           1.400   3.428   0.007  0.00  0.00    -0.242 NA
ATOM     13  H6  <0> d           1.865  -2.715  -0.032  0.00  0.00     0.161 HD
ENDROOT
BRANCH   8  14
ATOM     14  C8  <0> d          -0.530  -3.550  -1.272  0.00  0.00     0.188 A 
ATOM     15  N3  <0> d          -0.335  -2.730  -2.480  0.00  0.00    -0.181 NA
ATOM     16  N2  <0> d          -1.415  -2.689  -3.082  0.00  0.00    -0.167 NA
ATOM     17  C10 <0> d          -2.415  -3.378  -2.489  0.00  0.00     0.138 A 
ATOM     18  C9  <0> d          -1.991  -3.955  -1.362  0.00  0.00     0.026 A 
ENDBRANCH   8  14
BRANCH  11  19
ATOM     19  C12 <0> d           2.978   5.398   0.005  0.00  0.00     0.214 A 
ATOM     20  N6  <0> d           2.098   6.169  -0.890  0.00  0.00    -0.177 NA
ATOM     21  N5  <0> d           1.499   7.001  -0.197  0.00  0.00    -0.167 NA
ATOM     22  C14 <0> d           1.810   6.966   1.118  0.00  0.00     0.139 A 
ATOM     23  C13 <0> d           2.714   6.016   1.366  0.00  0.00     0.030 A 
ENDBRANCH  11  19
TORSDOF 2
