REMARK  6 active torsions:
REMARK  status: ('A' for Active; 'I' for Inactive)
REMARK    1  A    between atoms: C5_5  and  C8_8 
REMARK    2  A    between atoms: C9_11  and  S1_16 
REMARK    3  A    between atoms: N3_12  and  C10_13 
REMARK    4  A    between atoms: C10_13  and  C11_14 
REMARK    5  A    between atoms: S1_16  and  C13_17 
REMARK    6  A    between atoms: C13_17  and  C14_18 
ROOT
ATOM      1  C8  <0> d           0.440  -3.979   0.190  0.00  0.00     0.311 C 
ATOM      2  N1  <0> d           1.233  -4.397  -0.996  0.00  0.00    -0.225 NA
ATOM      3  N2  <0> d           1.535  -5.809  -0.712  0.00  0.00    -0.221 NA
ATOM      4  C9  <0> d           1.782  -5.849   0.747  0.00  0.00     0.340 C 
ATOM      5  N3  <0> d           1.080  -4.682   1.326  0.00  0.00    -0.020 N 
ATOM      6  H11 <0> d           2.080  -3.854  -1.073  0.00  0.00     0.143 HD
ATOM      7  H12 <0> d           2.348  -6.114  -1.225  0.00  0.00     0.143 HD
ATOM      8  H24 <0> d           1.741  -4.072   1.783  0.00  0.00     0.285 HD
ENDROOT
BRANCH   4   9
ATOM      9  S1  <0> d           1.117  -7.384   1.448  0.00  0.00    -0.112 SA
BRANCH   9  10
ATOM     10  C13 <0> d           2.302  -8.654   0.926  0.00  0.00     0.155 C 
BRANCH  10  11
ATOM     11  C14 <0> d           1.931  -9.975   1.551  0.00  0.00     0.116 A 
ATOM     12  N5  <0> d           0.887 -10.019   2.322  0.00  0.00    -0.234 NA
ATOM     13  C21 <0> d           0.489 -11.173   2.914  0.00  0.00     0.074 A 
ATOM     14  C16 <0> d           1.238 -12.350   2.692  0.00  0.00     0.061 A 
ATOM     15  C20 <0> d          -0.636 -11.223   3.739  0.00  0.00     0.032 A 
ATOM     16  C15 <0> d           2.417 -12.264   1.818  0.00  0.00     0.259 A 
ATOM     17  C17 <0> d           0.852 -13.546   3.293  0.00  0.00     0.019 A 
ATOM     18  N4  <0> d           2.708 -11.056   1.282  0.00  0.00    -0.310 N 
ATOM     19  O1  <0> d           3.105 -13.241   1.586  0.00  0.00    -0.267 OA
ATOM     20  H3  <0> d           3.478 -10.961   0.700  0.00  0.00     0.170 HD
ATOM     21  C18 <0> d          -0.262 -13.570   4.103  0.00  0.00     0.001 A 
ATOM     22  C19 <0> d          -1.000 -12.415   4.324  0.00  0.00     0.002 A 
ENDBRANCH  10  11
ENDBRANCH   9  10
ENDBRANCH   4   9
BRANCH   5  23
ATOM     23  C10 <0> d           0.058  -5.129   2.282  0.00  0.00     0.266 C 
BRANCH  23  24
ATOM     24  C11 <0> d           0.729  -5.658   3.524  0.00  0.00    -0.009 C 
ATOM     25  C12 <0> d           0.402  -5.181   4.699  0.00  0.00     0.008 C 
ENDBRANCH  23  24
ENDBRANCH   5  23
BRANCH   1  26
ATOM     26  C5  <0> d           0.522  -2.486   0.380  0.00  0.00    -0.012 A 
ATOM     27  C4  <0> d           0.622  -1.654  -0.719  0.00  0.00     0.011 A 
ATOM     28  C3  <0> d           0.697  -0.285  -0.545  0.00  0.00     0.007 A 
ATOM     29  C2  <0> d           0.670   0.252   0.729  0.00  0.00    -0.062 A 
ATOM     30  C1  <0> d           0.751   1.745   0.919  0.00  0.00     0.048 C 
ATOM     31  C7  <0> d           0.575  -0.580   1.828  0.00  0.00     0.007 A 
ATOM     32  C6  <0> d           0.496  -1.949   1.654  0.00  0.00     0.011 A 
ENDBRANCH   1  26
TORSDOF 6
