REMARK  4 active torsions:
REMARK  status: ('A' for Active; 'I' for Inactive)
REMARK    1  A    between atoms: C3_4  and  C5_7 
REMARK    2  A    between atoms: C5_7  and  N2_8 
REMARK    3  A    between atoms: N2_8  and  C6_9 
REMARK    4  A    between atoms: C6_9  and  C7_10 
ROOT
ATOM      1  N2  <0> d          -2.448  -3.317   1.375  0.00  0.00    -0.067 N 
ATOM      2  H8  <0> d          -1.691  -3.709   1.915  0.00  0.00     0.277 HD
ATOM      3  H20 <0> d          -2.733  -2.439   1.783  0.00  0.00     0.277 HD
ENDROOT
BRANCH   1   4
ATOM      4  C5  <0> d          -1.999  -3.093  -0.006  0.00  0.00     0.291 C 
BRANCH   4   5
ATOM      5  C3  <0> d          -0.834  -2.137  -0.006  0.00  0.00     0.067 A 
ATOM      6  N1  <0> d          -1.013  -0.832   0.002  0.00  0.00    -0.249 NA
ATOM      7  C2  <0> d           0.002  -0.004   0.002  0.00  0.00     0.071 A 
ATOM      8  C1  <0> d          -0.018   1.503   0.010  0.00  0.00     0.078 C 
ATOM      9  S1  <0> d           1.335  -1.032  -0.017  0.00  0.00    -0.085 SA
ATOM     10  C4  <0> d           0.449  -2.582  -0.014  0.00  0.00     0.080 A 
ENDBRANCH   4   5
ENDBRANCH   1   4
BRANCH   1  11
ATOM     11  C6  <0> d          -3.584  -4.249   1.375  0.00  0.00     0.266 C 
BRANCH  11  12
ATOM     12  C7  <0> d          -4.051  -4.482   2.813  0.00  0.00     0.175 C 
ATOM     13  O1  <0> d          -2.980  -5.040   3.579  0.00  0.00    -0.381 OA
ATOM     14  C10 <0> d          -3.331  -5.325   4.936  0.00  0.00     0.198 C 
ATOM     15  C9  <0> d          -4.506  -6.306   4.959  0.00  0.00     0.298 C 
ATOM     16  N3  <0> d          -5.629  -5.735   4.203  0.00  0.00     0.088 N 
ATOM     17  C8  <0> d          -5.234  -5.454   2.815  0.00  0.00     0.305 C 
ATOM     18  C11 <0> d          -6.800  -6.622   4.248  0.00  0.00     0.310 C 
ENDBRANCH  11  12
ENDBRANCH   1  11
TORSDOF 4
