REMARK  3 active torsions:
REMARK  status: ('A' for Active; 'I' for Inactive)
REMARK    1  A    between atoms: C4_4  and  C13_14 
REMARK    2  A    between atoms: N1_6  and  C6_7 
REMARK    3  A    between atoms: C18_24  and  C19_26 
ROOT
ATOM      1  C13 <0> d           0.042  -3.340  -1.427  0.00  0.00     0.034 C 
ATOM      2  C14 <0> d          -0.649  -3.368  -2.621  0.00  0.00     0.082 C 
ATOM      3  C15 <0> d          -0.760  -4.610  -3.435  0.00  0.00     0.162 C 
ATOM      4  N2  <0> d          -0.815  -5.808  -2.913  0.00  0.00    -0.281 NA
ATOM      5  N3  <0> d          -0.801  -4.368  -4.824  0.00  0.00    -0.189 N 
ATOM      6  C16 <0> d          -1.227  -3.125  -5.241  0.00  0.00     0.201 A 
ATOM      7  N4  <0> d          -1.515  -2.089  -4.495  0.00  0.00    -0.182 NA
ATOM      8  C17 <0> d          -1.327  -2.164  -3.159  0.00  0.00     0.283 C 
ATOM      9  O1  <0> d          -1.698  -1.268  -2.418  0.00  0.00    -0.265 OA
ATOM     10  S1  <0> d          -1.254  -3.308  -7.005  0.00  0.00    -0.026 SA
ATOM     11  C18 <0> d          -0.607  -4.973  -7.079  0.00  0.00     0.155 A 
ATOM     12  N5  <0> d          -0.461  -5.272  -5.808  0.00  0.00    -0.153 NA
ATOM     13  H14 <0> d          -0.886  -6.585  -3.489  0.00  0.00     0.188 HD
ENDROOT
BRANCH   1  14
ATOM     14  C4  <0> d           0.265  -2.106  -0.765  0.00  0.00    -0.011 A 
ATOM     15  C3  <0> d           0.488  -0.794  -1.389  0.00  0.00     0.038 A 
ATOM     16  C2  <0> d           0.651   0.082  -0.384  0.00  0.00     0.014 A 
ATOM     17  C1  <0> d           0.908   1.558  -0.546  0.00  0.00     0.068 C 
ATOM     18  N1  <0> d           0.553  -0.578   0.809  0.00  0.00    -0.319 N 
ATOM     19  C5  <0> d           0.316  -1.889   0.602  0.00  0.00     0.023 A 
ATOM     20  C12 <0> d           0.143  -2.937   1.671  0.00  0.00     0.069 C 
BRANCH  18  21
ATOM     21  C6  <0> d           0.677   0.023   2.069  0.00  0.00     0.039 A 
ATOM     22  C11 <0> d          -0.259   0.960   2.488  0.00  0.00     0.030 A 
ATOM     23  C10 <0> d          -0.137   1.546   3.732  0.00  0.00     0.002 A 
ATOM     24  C9  <0> d           0.921   1.210   4.556  0.00  0.00     0.000 A 
ATOM     25  C8  <0> d           1.858   0.282   4.139  0.00  0.00     0.002 A 
ATOM     26  C7  <0> d           1.738  -0.312   2.898  0.00  0.00     0.030 A 
ENDBRANCH  18  21
ENDBRANCH   1  14
BRANCH  11  27
ATOM     27  C19 <0> d          -0.313  -5.798  -8.262  0.00  0.00     0.112 A 
ATOM     28  O2  <0> d           0.176  -7.054  -8.250  0.00  0.00    -0.320 OA
ATOM     29  C22 <0> d           0.314  -7.492  -9.511  0.00  0.00     0.142 A 
ATOM     30  C21 <0> d          -0.079  -6.515 -10.354  0.00  0.00     0.027 A 
ATOM     31  C20 <0> d          -0.483  -5.424  -9.561  0.00  0.00     0.042 A 
ENDBRANCH  11  27
TORSDOF 3
