REMARK  5 active torsions:
REMARK  status: ('A' for Active; 'I' for Inactive)
REMARK    1  A    between atoms: C2_2  and  N1_3 
REMARK    2  A    between atoms: C4_5  and  C7_9 
REMARK    3  A    between atoms: C7_9  and  N3_10 
REMARK       I    between atoms: N3_10  and  C8_11 
REMARK    4  A    between atoms: C8_11  and  C9_13 
REMARK    5  A    between atoms: N4_15  and  C11_18 
ROOT
ATOM      1  C9  <0> d           1.024   0.699  -7.745  0.00  0.00     0.172 A 
ATOM      2  C10 <0> d           0.897   0.731  -9.105  0.00  0.00     0.070 A 
ATOM      3  N4  <0> d           1.170   1.996  -9.493  0.00  0.00    -0.218 N 
ATOM      4  N5  <0> d           1.465   2.721  -8.329  0.00  0.00    -0.060 NA
ATOM      5  N6  <0> d           1.364   1.928  -7.320  0.00  0.00    -0.124 NA
ATOM      6  C19 <0> d           0.523  -0.422 -10.000  0.00  0.00     0.073 C 
ENDROOT
BRANCH   1   7
ATOM      7  C8  <0> d           0.818  -0.483  -6.888  0.00  0.00     0.274 C 
ATOM      8  N3  <0> d           0.969  -0.382  -5.552  0.00  0.00    -0.351 N 
ATOM      9  H11 <0> d           1.214   0.468  -5.155  0.00  0.00     0.163 HD
ATOM     10  O1  <0> d           0.510  -1.549  -7.385  0.00  0.00    -0.266 OA
BRANCH   8  11
ATOM     11  C7  <0> d           0.764  -1.556  -4.700  0.00  0.00     0.165 C 
BRANCH  11  12
ATOM     12  C4  <0> d           0.994  -1.178  -3.260  0.00  0.00     0.009 A 
ATOM     13  C3  <0> d           0.056  -0.721  -2.398  0.00  0.00     0.036 A 
ATOM     14  N1  <0> d           0.661  -0.500  -1.212  0.00  0.00    -0.274 N 
ATOM     15  C20 <0> d          -1.402  -0.498  -2.707  0.00  0.00     0.070 C 
ATOM     16  N2  <0> d           2.016  -0.827  -1.351  0.00  0.00    -0.177 NA
ATOM     17  C5  <0> d           2.213  -1.239  -2.577  0.00  0.00     0.061 A 
ATOM     18  C6  <0> d           3.528  -1.695  -3.156  0.00  0.00     0.073 C 
BRANCH  14  19
ATOM     19  C2  <0> d           0.016   0.000   0.005  0.00  0.00     0.146 C 
ATOM     20  C1  <0> d           0.077   1.529   0.024  0.00  0.00     0.028 C 
ENDBRANCH  14  19
ENDBRANCH  11  12
ENDBRANCH   8  11
ENDBRANCH   1   7
BRANCH   3  21
ATOM     21  C11 <0> d           1.162   2.488 -10.806  0.00  0.00     0.063 A 
ATOM     22  C16 <0> d           2.164   3.349 -11.231  0.00  0.00     0.071 A 
ATOM     23  C15 <0> d           2.159   3.831 -12.531  0.00  0.00     0.104 A 
ATOM     24  C14 <0> d           1.143   3.458 -13.404  0.00  0.00     0.102 A 
ATOM     25  O2  <0> d           3.148   4.676 -12.933  0.00  0.00    -0.346 OA
ATOM     26  C13 <0> d           0.139   2.603 -12.973  0.00  0.00     0.042 A 
ATOM     27  O3  <0> d           1.121   3.922 -14.684  0.00  0.00    -0.346 OA
ATOM     28  C12 <0> d           0.147   2.120 -11.680  0.00  0.00     0.034 A 
ATOM     29  C18 <0> d           1.929   5.069 -14.967  0.00  0.00     0.202 C 
ATOM     30  C17 <0> d           3.313   4.847 -14.345  0.00  0.00     0.202 C 
ENDBRANCH   3  21
TORSDOF 5
