REMARK  5 active torsions:
REMARK  status: ('A' for Active; 'I' for Inactive)
REMARK    1  A    between atoms: C7_11  and  S2_12 
REMARK    2  A    between atoms: S2_12  and  C8_13 
REMARK    3  A    between atoms: C8_13  and  C9_14 
REMARK       I    between atoms: C9_14  and  N3_16 
REMARK    4  A    between atoms: N3_16  and  C10_17 
REMARK    5  A    between atoms: C15_22  and  N4_23 
ROOT
ATOM      1  S2  <0> d          -2.950   1.436  -0.283  0.00  0.00    -0.082 SA
ENDROOT
BRANCH   1   2
ATOM      2  C7  <0> d          -2.073   1.713   1.220  0.00  0.00     0.172 A 
ATOM      3  N1  <0> d          -0.726   1.498   1.262  0.00  0.00    -0.297 N 
ATOM      4  C1  <0> d          -0.033   1.040   0.056  0.00  0.00     0.161 C 
ATOM      5  C2  <0> d          -0.021   1.704   2.391  0.00  0.00     0.263 A 
ATOM      6  O1  <0> d           1.182   1.511   2.413  0.00  0.00    -0.267 OA
ATOM      7  C3  <0> d          -0.707   2.151   3.563  0.00  0.00     0.075 A 
ATOM      8  C6  <0> d          -2.090   2.342   3.432  0.00  0.00     0.117 A 
ATOM      9  C4  <0> d          -0.139   2.436   4.891  0.00  0.00    -0.026 A 
ATOM     10  S1  <0> d          -2.584   2.885   5.047  0.00  0.00    -0.073 SA
ATOM     11  N2  <0> d          -2.728   2.121   2.288  0.00  0.00    -0.216 NA
ATOM     12  C5  <0> d          -0.993   2.849   5.841  0.00  0.00    -0.008 A 
ATOM     13  C16 <0> d          -0.301   3.114   7.152  0.00  0.00     0.047 C 
ATOM     14  C17 <0> d           1.195   3.220   6.785  0.00  0.00     0.010 C 
ATOM     15  C18 <0> d           1.264   2.371   5.501  0.00  0.00     0.041 C 
ENDBRANCH   1   2
BRANCH   1  16
ATOM     16  C8  <0> d          -4.626   1.869   0.246  0.00  0.00     0.185 C 
BRANCH  16  17
ATOM     17  C9  <0> d          -5.577   1.702  -0.911  0.00  0.00     0.231 C 
ATOM     18  O2  <0> d          -5.162   1.327  -1.987  0.00  0.00    -0.272 OA
ATOM     19  N3  <0> d          -6.888   1.969  -0.749  0.00  0.00    -0.324 N 
ATOM     20  H6  <0> d          -7.230   2.206   0.127  0.00  0.00     0.169 HD
BRANCH  19  21
ATOM     21  C10 <0> d          -7.755   1.903  -1.845  0.00  0.00     0.068 A 
ATOM     22  C15 <0> d          -8.814   2.795  -1.949  0.00  0.00     0.129 A 
ATOM     23  C14 <0> d          -9.669   2.728  -3.032  0.00  0.00     0.038 A 
ATOM     24  C13 <0> d          -9.471   1.773  -4.012  0.00  0.00     0.003 A 
ATOM     25  C12 <0> d          -8.417   0.884  -3.913  0.00  0.00     0.002 A 
ATOM     26  C11 <0> d          -7.556   0.949  -2.835  0.00  0.00     0.032 A 
BRANCH  22  27
ATOM     27  N4  <0> d          -9.027   3.818  -0.900  0.00  0.00    -0.113 N 
ATOM     28  O3  <0> d         -10.011   4.534  -0.938  0.00  0.00    -0.532 OA
ATOM     29  O4  <0> d          -8.218   3.942   0.002  0.00  0.00    -0.532 OA
ENDBRANCH  22  27
ENDBRANCH  19  21
ENDBRANCH  16  17
ENDBRANCH   1  16
TORSDOF 5
