REMARK  7 active torsions:
REMARK  status: ('A' for Active; 'I' for Inactive)
REMARK    1  A    between atoms: C3_3  and  C11_16 
REMARK    2  A    between atoms: C4_5  and  C5_7 
REMARK    3  A    between atoms: C5_7  and  C7_9 
REMARK    4  A    between atoms: C7_9  and  N2_10 
REMARK       I    between atoms: C11_16  and  N4_18 
REMARK    5  A    between atoms: N4_18  and  C12_19 
REMARK    6  A    between atoms: C12_19  and  C13_20 
REMARK    7  A    between atoms: C13_20  and  N5_21 
ROOT
ATOM      1  C1  <0> d          -0.018   1.503   0.010  0.00  0.00     0.072 C 
ATOM      2  C2  <0> d           0.002  -0.004   0.002  0.00  0.00     0.054 A 
ATOM      3  C3  <0> d           0.006  -0.722  -1.174  0.00  0.00     0.098 A 
ATOM      4  S1  <0> d           0.032  -2.390  -0.537  0.00  0.00    -0.067 SA
ATOM      5  C4  <0> d           0.035  -2.012   1.103  0.00  0.00     0.081 A 
ATOM      6  N1  <0> d           0.022  -0.699   1.113  0.00  0.00    -0.249 NA
ENDROOT
BRANCH   3   7
ATOM      7  C11 <0> d          -0.008  -0.248  -2.562  0.00  0.00     0.260 C 
ATOM      8  O1  <0> d          -0.025   0.946  -2.797  0.00  0.00    -0.267 OA
ATOM      9  N4  <0> d          -0.001  -1.134  -3.577  0.00  0.00    -0.355 N 
ATOM     10  H12 <0> d           0.013  -2.086  -3.389  0.00  0.00     0.162 HD
BRANCH   9  11
ATOM     11  C12 <0> d          -0.014  -0.661  -4.963  0.00  0.00     0.144 C 
BRANCH  11  12
ATOM     12  C13 <0> d          -0.003  -1.861  -5.912  0.00  0.00     0.170 C 
BRANCH  12  13
ATOM     13  N5  <0> d          -0.016  -1.387  -7.298  0.00  0.00    -0.278 N 
ATOM     14  N6  <0> d          -0.960  -0.519  -7.864  0.00  0.00    -0.184 NA
ATOM     15  C16 <0> d          -0.639  -0.327  -9.117  0.00  0.00     0.159 A 
ATOM     16  C15 <0> d           0.512  -1.073  -9.394  0.00  0.00     0.047 A 
ATOM     17  C14 <0> d           0.875  -1.715  -8.258  0.00  0.00     0.133 A 
ATOM     18 Br1  <0> d           1.405  -1.165 -11.058  0.00  0.00    -0.048 Br
ENDBRANCH  12  13
ENDBRANCH  11  12
ENDBRANCH   9  11
ENDBRANCH   3   7
BRANCH   5  19
ATOM     19  C5  <0> d           0.053  -2.955   2.278  0.00  0.00     0.061 C 
ATOM     20  C6  <0> d           1.303  -2.694   3.121  0.00  0.00     0.018 C 
BRANCH  19  21
ATOM     21  C7  <0> d          -1.195  -2.728   3.134  0.00  0.00     0.161 C 
BRANCH  21  22
ATOM     22  N2  <0> d          -1.238  -3.723   4.208  0.00  0.00    -0.279 N 
ATOM     23  N3  <0> d          -1.188  -5.113   4.046  0.00  0.00    -0.183 NA
ATOM     24  C10 <0> d          -1.247  -5.665   5.231  0.00  0.00     0.164 A 
ATOM     25  C9  <0> d          -1.347  -4.646   6.184  0.00  0.00     0.070 A 
ATOM     26  C8  <0> d          -1.339  -3.461   5.529  0.00  0.00     0.137 A 
ATOM     27 Cl1  <0> d          -1.460  -4.862   7.903  0.00  0.00    -0.081 Cl
ENDBRANCH  21  22
ENDBRANCH  19  21
ENDBRANCH   5  19
TORSDOF 7
