REMARK  5 active torsions:
REMARK  status: ('A' for Active; 'I' for Inactive)
REMARK    1  A    between atoms: C3_3  and  C17_22 
REMARK    2  A    between atoms: C5_5  and  N1_7 
REMARK       I    between atoms: N1_7  and  C7_8 
REMARK    3  A    between atoms: C7_8  and  C8_10 
REMARK    4  A    between atoms: N2_13  and  C13_16 
REMARK    5  A    between atoms: C13_16  and  C14_17 
ROOT
ATOM      1  N1  <0> d           0.324  -1.859  -0.101  0.00  0.00    -0.327 N 
ATOM      2  C7  <0> d          -0.747  -2.678  -0.132  0.00  0.00     0.226 C 
ATOM      3  O1  <0> d          -1.854  -2.221  -0.319  0.00  0.00    -0.273 OA
ATOM      4  H7  <0> d           1.216  -2.230  -0.018  0.00  0.00     0.169 HD
ENDROOT
BRANCH   2   5
ATOM      5  C8  <0> d          -0.567  -4.161   0.066  0.00  0.00     0.081 C 
ATOM      6  C12 <0> d          -1.928  -4.857  -0.015  0.00  0.00     0.042 C 
ATOM      7  C11 <0> d          -1.730  -6.369   0.107  0.00  0.00     0.236 C 
ATOM      8  N2  <0> d          -0.870  -6.843  -0.985  0.00  0.00    -0.068 N 
ATOM      9  C10 <0> d           0.460  -6.234  -0.872  0.00  0.00     0.236 C 
ATOM     10  H24 <0> d          -1.282  -6.588  -1.870  0.00  0.00     0.280 HD
ATOM     11  C9  <0> d           0.346  -4.716  -1.031  0.00  0.00     0.042 C 
BRANCH   8  12
ATOM     12  C13 <0> d          -0.746  -8.305  -0.909  0.00  0.00     0.272 C 
BRANCH  12  13
ATOM     13  C14 <0> d          -0.116  -8.831  -2.200  0.00  0.00     0.194 C 
ATOM     14  S1  <0> d          -1.043  -8.240  -3.684  0.00  0.00    -0.135 SA
ATOM     15  C16 <0> d           0.456  -7.811  -4.677  0.00  0.00     0.122 C 
ATOM     16  C15 <0> d           1.494  -7.740  -3.565  0.00  0.00     0.095 C 
ATOM     17  N3  <0> d           1.205  -8.215  -2.439  0.00  0.00    -0.288 NA
ENDBRANCH  12  13
ENDBRANCH   8  12
ENDBRANCH   2   5
BRANCH   1  18
ATOM     18  C5  <0> d           0.147  -0.473  -0.188  0.00  0.00     0.035 A 
ATOM     19  C4  <0> d           0.983   0.378   0.519  0.00  0.00     0.043 A 
ATOM     20  C3  <0> d           0.803   1.757   0.429  0.00  0.00    -0.006 A 
ATOM     21  C2  <0> d          -0.216   2.273  -0.373  0.00  0.00     0.014 A 
ATOM     22  C1  <0> d          -1.043   1.417  -1.073  0.00  0.00     0.003 A 
ATOM     23  C6  <0> d          -0.865   0.050  -0.984  0.00  0.00     0.029 A 
BRANCH  20  24
ATOM     24  C17 <0> d           1.691   2.672   1.180  0.00  0.00     0.061 A 
ATOM     25  N5  <0> d           2.721   2.309   1.996  0.00  0.00    -0.278 N 
ATOM     26  N4  <0> d           3.297   3.481   2.503  0.00  0.00    -0.187 NA
ATOM     27  H2  <0> d           3.005   1.401   2.190  0.00  0.00     0.189 HD
ATOM     28  C19 <0> d           2.642   4.507   2.022  0.00  0.00     0.141 A 
ATOM     29  C18 <0> d           1.628   4.037   1.189  0.00  0.00     0.053 A 
ENDBRANCH  20  24
ENDBRANCH   1  18
TORSDOF 5
