REMARK  5 active torsions:
REMARK  status: ('A' for Active; 'I' for Inactive)
REMARK    1  A    between atoms: C5_5  and  C16_18 
REMARK    2  A    between atoms: C6_6  and  N1_8 
REMARK    3  A    between atoms: N1_8  and  C9_10 
REMARK    4  A    between atoms: C9_10  and  C10_11 
REMARK    5  A    between atoms: C16_18  and  N2_19 
ROOT
ATOM      1  C1  <0> d          -0.457   1.400   0.262  0.00  0.00     0.010 C 
ATOM      2  C2  <0> d          -0.241  -0.109   0.133  0.00  0.00    -0.017 C 
ATOM      3  C3  <0> d          -1.598  -0.815   0.070  0.00  0.00     0.005 C 
ATOM      4  C4  <0> d          -1.382  -2.324  -0.060  0.00  0.00     0.009 C 
ATOM      5  C5  <0> d          -0.598  -2.833   1.151  0.00  0.00     0.044 C 
ATOM      6  C6  <0> d           0.758  -2.127   1.214  0.00  0.00     0.229 C 
ATOM      7  C7  <0> d           0.543  -0.618   1.344  0.00  0.00     0.040 C 
ENDROOT
BRANCH   6   8
ATOM      8  N1  <0> d           1.511  -2.616   2.377  0.00  0.00     0.093 N 
ATOM      9  C8  <0> d           1.657  -4.077   2.334  0.00  0.00     0.310 C 
BRANCH   8  10
ATOM     10  C9  <0> d           2.822  -1.959   2.470  0.00  0.00     0.312 C 
BRANCH  10  11
ATOM     11  C10 <0> d           3.479  -2.330   3.774  0.00  0.00    -0.013 A 
ATOM     12  C15 <0> d           3.037  -1.765   4.956  0.00  0.00     0.019 A 
ATOM     13  C14 <0> d           3.637  -2.110   6.154  0.00  0.00     0.019 A 
ATOM     14 Br1  <0> d           1.608  -0.527   4.937  0.00  0.00    -0.051 Br
ATOM     15  C13 <0> d           4.685  -3.011   6.168  0.00  0.00     0.001 A 
ATOM     16  C12 <0> d           5.130  -3.572   4.985  0.00  0.00     0.001 A 
ATOM     17  C11 <0> d           4.527  -3.232   3.788  0.00  0.00     0.010 A 
ENDBRANCH  10  11
ENDBRANCH   8  10
ENDBRANCH   6   8
BRANCH   5  18
ATOM     18  C16 <0> d          -1.385  -2.538   2.429  0.00  0.00     0.236 C 
BRANCH  18  19
ATOM     19  N2  <0> d          -2.635  -3.310   2.423  0.00  0.00    -0.079 N 
ATOM     20  H24 <0> d          -2.422  -4.295   2.379  0.00  0.00     0.274 HD
ATOM     21  H25 <0> d          -3.155  -3.116   3.266  0.00  0.00     0.274 HD
ATOM     22  H26 <0> d          -3.188  -3.049   1.620  0.00  0.00     0.274 HD
ENDBRANCH  18  19
ENDBRANCH   5  18
TORSDOF 5
