REMARK  3 active torsions:
REMARK  status: ('A' for Active; 'I' for Inactive)
REMARK    1  A    between atoms: C2_2  and  C3_3 
REMARK    2  A    between atoms: C3_3  and  C4_4 
REMARK    3  A    between atoms: C7_10  and  C8_11 
ROOT
ATOM      1  C4  <0> d           1.995  -2.449  -0.369  0.00  0.00     0.099 A 
ATOM      2  N1  <0> d           1.352  -3.395  -0.991  0.00  0.00    -0.161 NA
ATOM      3  N2  <0> d           1.138  -4.589  -0.330  0.00  0.00    -0.189 N 
ATOM      4  C5  <0> d           0.544  -5.740  -0.894  0.00  0.00     0.162 C 
ATOM      5  N3  <0> d           0.515  -5.978  -2.177  0.00  0.00    -0.281 NA
ATOM      6  C6  <0> d          -0.045  -6.657   0.123  0.00  0.00     0.082 C 
ATOM      7  C7  <0> d          -1.177  -7.412  -0.140  0.00  0.00     0.030 C 
ATOM      8  C16 <0> d           0.649  -6.715   1.435  0.00  0.00     0.283 C 
ATOM      9  O1  <0> d           0.558  -7.701   2.149  0.00  0.00    -0.265 OA
ATOM     10  N5  <0> d           1.383  -5.654   1.813  0.00  0.00    -0.182 NA
ATOM     11  C17 <0> d           1.567  -4.658   0.973  0.00  0.00     0.201 A 
ATOM     12  S1  <0> d           2.344  -3.199   1.212  0.00  0.00    -0.033 SA
ATOM     13  H8  <0> d           0.914  -5.347  -2.796  0.00  0.00     0.188 HD
ENDROOT
BRANCH   7  14
ATOM     14  C8  <0> d          -2.042  -7.038  -1.174  0.00  0.00    -0.027 A 
ATOM     15  C15 <0> d          -2.009  -5.757  -1.978  0.00  0.00     0.159 A 
ATOM     16  N4  <0> d          -3.115  -5.849  -2.936  0.00  0.00    -0.385 N 
ATOM     17  C14 <0> d          -3.744  -6.983  -2.764  0.00  0.00     0.039 A 
ATOM     18  H16 <0> d          -3.346  -5.173  -3.592  0.00  0.00     0.160 HD
ATOM     19  C9  <0> d          -3.116  -7.765  -1.676  0.00  0.00    -0.002 A 
ATOM     20  C13 <0> d          -4.909  -7.569  -3.441  0.00  0.00     0.030 A 
ATOM     21  C10 <0> d          -3.662  -9.024  -1.344  0.00  0.00     0.014 A 
ATOM     22  C11 <0> d          -4.738  -9.500  -2.014  0.00  0.00     0.001 A 
ATOM     23  C12 <0> d          -5.355  -8.784  -3.048  0.00  0.00     0.002 A 
ENDBRANCH   7  14
BRANCH   1  24
ATOM     24  C3  <0> d           2.359  -1.072  -0.862  0.00  0.00     0.069 C 
BRANCH  24  25
ATOM     25  C2  <0> d           1.841  -0.888  -2.290  0.00  0.00     0.002 C 
ATOM     26  C1  <0> d           2.211   0.509  -2.790  0.00  0.00     0.005 C 
ENDBRANCH  24  25
ENDBRANCH   1  24
TORSDOF 3
