REMARK  6 active torsions:
REMARK  status: ('A' for Active; 'I' for Inactive)
REMARK    1  A    between atoms: C6_6  and  C8_8 
REMARK    2  A    between atoms: C6_6  and  N2_19 
REMARK    3  A    between atoms: C8_8  and  N1_9 
REMARK    4  A    between atoms: N1_9  and  C9_10 
REMARK    5  A    between atoms: C9_10  and  C10_11 
REMARK    6  A    between atoms: C10_11  and  O1_18 
ROOT
ATOM      1  N1  <0> d          -0.670  -4.043   1.050  0.00  0.00    -0.070 N 
ATOM      2  H15 <0> d          -0.097  -4.347   0.277  0.00  0.00     0.277 HD
ATOM      3  H37 <0> d          -0.289  -4.401   1.913  0.00  0.00     0.277 HD
ENDROOT
BRANCH   1   4
ATOM      4  C8  <0> d          -0.691  -2.575   1.097  0.00  0.00     0.271 C 
BRANCH   4   5
ATOM      5  C6  <0> d           0.743  -2.047   1.185  0.00  0.00     0.150 C 
ATOM      6  C5  <0> d           1.493  -2.391  -0.103  0.00  0.00     0.041 C 
ATOM      7  C4  <0> d           0.784  -1.745  -1.295  0.00  0.00     0.003 C 
ATOM      8  C3  <0> d           0.758  -0.226  -1.110  0.00  0.00     0.004 C 
ATOM      9  C2  <0> d           0.008   0.118   0.178  0.00  0.00    -0.016 C 
ATOM     10  C1  <0> d          -0.018   1.637   0.363  0.00  0.00     0.010 C 
ATOM     11  C7  <0> d           0.717  -0.529   1.370  0.00  0.00     0.045 C 
BRANCH   5  12
ATOM     12  N2  <0> d           1.423  -2.668   2.329  0.00  0.00    -0.068 N 
ATOM     13  C17 <0> d           2.771  -2.100   2.464  0.00  0.00     0.270 C 
ATOM     14  C18 <0> d           0.657  -2.407   3.555  0.00  0.00     0.270 C 
ATOM     15  H38 <0> d           1.491  -3.664   2.180  0.00  0.00     0.280 HD
ENDBRANCH   5  12
ENDBRANCH   4   5
ENDBRANCH   1   4
BRANCH   1  16
ATOM     16  C9  <0> d          -2.039  -4.546   0.873  0.00  0.00     0.269 C 
BRANCH  16  17
ATOM     17  C10 <0> d          -2.017  -6.075   0.824  0.00  0.00     0.082 C 
ATOM     18  C16 <0> d          -3.453  -6.608   0.637  0.00  0.00     0.039 C 
ATOM     19  C15 <0> d          -3.477  -7.973   0.132  0.00  0.00     0.003 C 
ATOM     20  C14 <0> d          -2.807  -8.970   1.100  0.00  0.00     0.000 C 
ATOM     21  C13 <0> d          -1.316  -8.880   0.922  0.00  0.00     0.000 C 
ATOM     22  C12 <0> d          -0.660  -7.909   1.923  0.00  0.00     0.003 C 
ATOM     23  C11 <0> d          -1.472  -6.615   2.119  0.00  0.00     0.039 C 
BRANCH  17  24
ATOM     24  O1  <0> d          -1.199  -6.510  -0.264  0.00  0.00    -0.388 OA
ATOM     25  H30 <0> d          -1.538  -6.261  -1.135  0.00  0.00     0.210 HD
ENDBRANCH  17  24
ENDBRANCH  16  17
ENDBRANCH   1  16
TORSDOF 6
