REMARK  3 active torsions:
REMARK  status: ('A' for Active; 'I' for Inactive)
REMARK    1  A    between atoms: C3_4  and  C5_7 
REMARK    2  A    between atoms: C5_7  and  N3_8 
REMARK    3  A    between atoms: N3_8  and  C6_9 
ROOT
ATOM      1  C6  <0> d           1.478  -4.864  -2.719  0.00  0.00     0.348 A 
ATOM      2  C7  <0> d           2.804  -5.572  -2.567  0.00  0.00     0.028 A 
ATOM      3  C8  <0> d           3.407  -5.547  -3.819  0.00  0.00     0.045 A 
ATOM      4  C9  <0> d           4.659  -6.137  -3.977  0.00  0.00     0.030 A 
ATOM      5  C10 <0> d           5.284  -6.735  -2.901  0.00  0.00     0.004 A 
ATOM      6  C11 <0> d           4.675  -6.754  -1.661  0.00  0.00     0.020 A 
ATOM      7  C12 <0> d           3.430  -6.170  -1.495  0.00  0.00     0.022 A 
ATOM      8 Br1  <0> d           2.590  -6.193   0.199  0.00  0.00    -0.050 Br
ATOM      9  N4  <0> d           2.586  -4.891  -4.736  0.00  0.00    -0.324 N 
ATOM     10  C13 <0> d           1.438  -4.461  -4.178  0.00  0.00     0.260 A 
ATOM     11  O1  <0> d           0.541  -3.865  -4.736  0.00  0.00    -0.270 OA
ATOM     12  H13 <0> d           2.814  -4.761  -5.670  0.00  0.00     0.169 HD
ENDROOT
BRANCH   1  13
ATOM     13  N3  <0> d           1.428  -3.676  -1.856  0.00  0.00     0.105 N 
ATOM     14  H9  <0> d           1.932  -2.906  -2.270  0.00  0.00     0.317 HD
BRANCH  13  15
ATOM     15  C5  <0> d           0.039  -3.298  -1.561  0.00  0.00     0.312 C 
BRANCH  15  16
ATOM     16  C3  <0> d           0.027  -2.079  -0.676  0.00  0.00     0.006 A 
ATOM     17  C2  <0> d           0.008  -0.792  -1.094  0.00  0.00     0.122 A 
ATOM     18  N1  <0> d           0.002  -0.004   0.002  0.00  0.00    -0.285 N 
ATOM     19  C1  <0> d          -0.018   1.461   0.010  0.00  0.00     0.179 C 
ATOM     20  N2  <0> d           0.025  -0.834   1.130  0.00  0.00    -0.185 NA
ATOM     21  C4  <0> d           0.034  -2.078   0.723  0.00  0.00     0.149 A 
ENDBRANCH  15  16
ENDBRANCH  13  15
ENDBRANCH   1  13
TORSDOF 3
