REMARK  5 active torsions:
REMARK  status: ('A' for Active; 'I' for Inactive)
REMARK    1  A    between atoms: C3_3  and  C13_19 
REMARK    2  A    between atoms: N1_5  and  C5_7 
REMARK    3  A    between atoms: C5_7  and  C6_8 
REMARK    4  A    between atoms: C9_11  and  N3_15 
REMARK    5  A    between atoms: C13_19  and  N4_21 
ROOT
ATOM      1  C1  <0> d           0.271   1.544  -0.061  0.00  0.00     0.073 C 
ATOM      2  C2  <0> d           0.162   0.041  -0.024  0.00  0.00     0.061 A 
ATOM      3  C3  <0> d          -0.058  -0.792  -1.126  0.00  0.00     0.021 A 
ATOM      4  C4  <0> d          -0.090  -2.070  -0.681  0.00  0.00     0.037 A 
ATOM      5  N1  <0> d           0.103  -2.046   0.654  0.00  0.00    -0.269 N 
ATOM      6  N2  <0> d           0.264  -0.710   1.043  0.00  0.00    -0.176 NA
ATOM      7  C12 <0> d          -0.304  -3.300  -1.526  0.00  0.00     0.070 C 
ENDROOT
BRANCH   5   8
ATOM      8  C5  <0> d           0.142  -3.212   1.540  0.00  0.00     0.191 C 
BRANCH   8   9
ATOM      9  C6  <0> d           1.558  -3.717   1.643  0.00  0.00    -0.017 A 
ATOM     10  C11 <0> d           2.428  -3.156   2.562  0.00  0.00     0.044 A 
ATOM     11  C10 <0> d           3.726  -3.624   2.660  0.00  0.00     0.060 A 
ATOM     12 Cl1  <0> d           1.888  -1.869   3.595  0.00  0.00    -0.084 Cl
ATOM     13  C9  <0> d           4.157  -4.645   1.833  0.00  0.00     0.104 A 
ATOM     14  C8  <0> d           3.289  -5.201   0.912  0.00  0.00     0.037 A 
ATOM     15  C7  <0> d           1.990  -4.737   0.817  0.00  0.00     0.013 A 
BRANCH  13  16
ATOM     16  N3  <0> d           5.547  -5.143   1.935  0.00  0.00    -0.116 N 
ATOM     17  O1  <0> d           5.923  -6.035   1.212  0.00  0.00    -0.532 OA
ATOM     18  O2  <0> d           6.306  -4.656   2.741  0.00  0.00    -0.532 OA
ENDBRANCH  13  16
ENDBRANCH   8   9
ENDBRANCH   5   8
BRANCH   3  19
ATOM     19  C13 <0> d          -0.230  -0.346  -2.555  0.00  0.00     0.216 C 
ATOM     20  C14 <0> d          -1.700  -0.478  -2.957  0.00  0.00     0.045 C 
BRANCH  19  21
ATOM     21  N4  <0> d           0.596  -1.186  -3.433  0.00  0.00    -0.071 N 
ATOM     22  H16 <0> d           0.238  -2.130  -3.429  0.00  0.00     0.275 HD
ATOM     23  H17 <0> d           0.568  -0.820  -4.372  0.00  0.00     0.275 HD
ATOM     24  H18 <0> d           1.548  -1.186  -3.100  0.00  0.00     0.275 HD
ENDBRANCH  19  21
ENDBRANCH   3  19
TORSDOF 5
