REMARK  3 active torsions:
REMARK  status: ('A' for Active; 'I' for Inactive)
REMARK    1  A    between atoms: C5_5  and  N4_21 
REMARK    2  A    between atoms: C7_7  and  N1_8 
REMARK       I    between atoms: N1_8  and  C8_9 
REMARK    3  A    between atoms: C8_9  and  C9_11 
ROOT
ATOM      1  C1  <0> d           0.542   1.416  -0.245  0.00  0.00     0.050 C 
ATOM      2  C2  <0> d           0.242  -0.055  -0.115  0.00  0.00    -0.035 A 
ATOM      3  C3  <0> d          -0.028  -0.806  -1.242  0.00  0.00     0.011 A 
ATOM      4  C4  <0> d          -0.304  -2.155  -1.127  0.00  0.00     0.031 A 
ATOM      5  C5  <0> d          -0.312  -2.760   0.123  0.00  0.00     0.047 A 
ATOM      6  C6  <0> d          -0.042  -2.009   1.257  0.00  0.00     0.060 A 
ATOM      7  C7  <0> d           0.241  -0.655   1.138  0.00  0.00     0.043 A 
ENDROOT
BRANCH   7   8
ATOM      8  N1  <0> d           0.519   0.105   2.278  0.00  0.00    -0.321 N 
ATOM      9  C8  <0> d           0.931  -0.502   3.409  0.00  0.00     0.276 C 
ATOM     10  O1  <0> d           1.152  -1.700   3.411  0.00  0.00    -0.266 OA
ATOM     11  H7  <0> d           0.417   1.069   2.256  0.00  0.00     0.169 HD
BRANCH   9  12
ATOM     12  C9  <0> d           1.105   0.252   4.595  0.00  0.00     0.150 A 
ATOM     13  N3  <0> d           1.029   1.628   4.721  0.00  0.00    -0.299 N 
ATOM     14  C11 <0> d           1.259   1.921   6.035  0.00  0.00     0.136 A 
ATOM     15  C12 <0> d           0.781   2.618   3.823  0.00  0.00     0.099 A 
ATOM     16  N2  <0> d           1.477   0.783   6.693  0.00  0.00    -0.216 NA
ATOM     17  C15 <0> d           1.237   3.261   6.462  0.00  0.00     0.051 A 
ATOM     18  C10 <0> d           1.393  -0.242   5.859  0.00  0.00     0.161 A 
ATOM     19 Cl1  <0> d           1.605  -1.913   6.276  0.00  0.00    -0.060 Cl
ATOM     20  C14 <0> d           0.997   4.248   5.553  0.00  0.00     0.005 A 
ATOM     21  C13 <0> d           0.761   3.913   4.213  0.00  0.00     0.018 A 
ENDBRANCH   9  12
ENDBRANCH   7   8
BRANCH   5  22
ATOM     22  N4  <0> d          -0.594  -4.128   0.239  0.00  0.00    -0.252 N 
ATOM     23  C19 <0> d           0.228  -5.079  -0.224  0.00  0.00     0.231 A 
ATOM     24  C18 <0> d          -0.370  -6.438   0.066  0.00  0.00     0.113 A 
ATOM     25  O3  <0> d           1.285  -4.881  -0.784  0.00  0.00    -0.273 OA
ATOM     26  C17 <0> d          -1.698  -6.105   0.775  0.00  0.00     0.113 A 
ATOM     27  C16 <0> d          -1.709  -4.592   0.816  0.00  0.00     0.231 A 
ATOM     28  O2  <0> d          -2.588  -3.909   1.296  0.00  0.00    -0.273 OA
ENDBRANCH   5  22
TORSDOF 3
