REMARK  2 active torsions:
REMARK  status: ('A' for Active; 'I' for Inactive)
REMARK    1  A    between atoms: C9_10  and  N1_11 
REMARK    2  A    between atoms: N1_11  and  C10_12 
ROOT
ATOM      1  C1  <0> d          -0.154   1.262   0.998  0.00  0.00     0.076 C 
ATOM      2  C2  <0> d          -0.090  -0.208   0.674  0.00  0.00     0.050 A 
ATOM      3  C3  <0> d          -1.149  -1.024   0.505  0.00  0.00     0.044 A 
ATOM      4  C4  <0> d          -0.632  -2.301   0.220  0.00  0.00     0.004 A 
ATOM      5  C5  <0> d           0.713  -2.197   0.231  0.00  0.00     0.062 A 
ATOM      6  O1  <0> d           1.034  -0.926   0.500  0.00  0.00    -0.319 OA
ATOM      7  C6  <0> d           1.648  -3.353  -0.029  0.00  0.00     0.074 C 
ATOM      8  C7  <0> d           0.858  -4.659   0.121  0.00  0.00    -0.040 C 
ATOM      9  C8  <0> d          -0.428  -4.577  -0.705  0.00  0.00     0.047 C 
ATOM     10  C9  <0> d          -1.389  -3.574  -0.055  0.00  0.00     0.222 C 
ATOM     11  C14 <0> d           1.709  -5.829  -0.375  0.00  0.00     0.015 C 
ATOM     12  C15 <0> d           0.505  -4.874   1.594  0.00  0.00     0.015 C 
ENDROOT
BRANCH  10  13
ATOM     13  N1  <0> d          -2.507  -3.297  -0.967  0.00  0.00    -0.062 N 
ATOM     14  H11 <0> d          -3.085  -4.121  -1.050  0.00  0.00     0.278 HD
ATOM     15  H24 <0> d          -3.059  -2.536  -0.601  0.00  0.00     0.278 HD
BRANCH  13  16
ATOM     16  C10 <0> d          -1.982  -2.932  -2.289  0.00  0.00     0.201 C 
ATOM     17  C13 <0> d          -3.154  -2.813  -3.305  0.00  0.00     0.173 C 
ATOM     18  S1  <0> d          -2.359  -1.795  -4.619  0.00  0.00     0.146 S 
ATOM     19  C12 <0> d          -1.008  -1.028  -3.634  0.00  0.00     0.142 C 
ATOM     20  O2  <0> d          -1.788  -2.659  -5.592  0.00  0.00    -0.228 OA
ATOM     21  O3  <0> d          -3.265  -0.780  -5.030  0.00  0.00    -0.228 OA
ATOM     22  C11 <0> d          -1.279  -1.567  -2.209  0.00  0.00     0.049 C 
ENDBRANCH  13  16
ENDBRANCH  10  13
TORSDOF 2
