REMARK  4 active torsions:
REMARK  status: ('A' for Active; 'I' for Inactive)
REMARK    1  A    between atoms: C3_3  and  C16_24 
REMARK    2  A    between atoms: N2_9  and  C8_12 
REMARK    3  A    between atoms: C8_12  and  C9_13 
REMARK       I    between atoms: C9_13  and  N3_15 
REMARK    4  A    between atoms: N3_15  and  C10_16 
ROOT
ATOM      1  C1  <0> d          -7.966   9.572  -2.578  0.00  0.00     0.078 C 
ATOM      2  C2  <0> d          -6.679   9.169  -1.905  0.00  0.00     0.070 A 
ATOM      3  C3  <0> d          -5.555   8.745  -2.547  0.00  0.00     0.090 A 
ATOM      4  C4  <0> d          -4.574   8.469  -1.485  0.00  0.00     0.105 A 
ATOM      5  C5  <0> d          -5.221   8.763  -0.285  0.00  0.00     0.187 A 
ATOM      6  O1  <0> d          -6.465   9.173  -0.583  0.00  0.00    -0.295 OA
ATOM      7  N1  <0> d          -4.555   8.601   0.868  0.00  0.00    -0.218 NA
ATOM      8  C6  <0> d          -3.322   8.178   0.886  0.00  0.00     0.215 A 
ATOM      9  N2  <0> d          -2.641   7.877  -0.248  0.00  0.00    -0.299 N 
ATOM     10  C7  <0> d          -3.237   8.017  -1.454  0.00  0.00     0.264 A 
ATOM     11  O2  <0> d          -2.639   7.756  -2.484  0.00  0.00    -0.267 OA
ENDROOT
BRANCH   9  12
ATOM     12  C8  <0> d          -1.256   7.406  -0.166  0.00  0.00     0.236 C 
BRANCH  12  13
ATOM     13  C9  <0> d          -1.242   5.903  -0.059  0.00  0.00     0.240 C 
ATOM     14  O3  <0> d          -2.286   5.286  -0.052  0.00  0.00    -0.271 OA
ATOM     15  N3  <0> d          -0.069   5.245   0.028  0.00  0.00    -0.326 N 
ATOM     16  H7  <0> d           0.761   5.741   0.099  0.00  0.00     0.169 HD
BRANCH  15  17
ATOM     17  C10 <0> d          -0.050   3.846   0.016  0.00  0.00     0.040 A 
ATOM     18  C15 <0> d           0.908   3.157   0.749  0.00  0.00     0.072 A 
ATOM     19  C14 <0> d           0.922   1.774   0.740  0.00  0.00     0.121 A 
ATOM     20  C13 <0> d          -0.012   1.076  -0.007  0.00  0.00     0.084 A 
ATOM     21  F1  <0> d           1.850   1.104   1.458  0.00  0.00    -0.206 F 
ATOM     22  C12 <0> d          -0.968   1.760  -0.739  0.00  0.00     0.121 A 
ATOM     23  C11 <0> d          -0.988   3.144  -0.728  0.00  0.00     0.072 A 
ATOM     24  F2  <0> d          -1.881   1.077  -1.463  0.00  0.00    -0.206 F 
ENDBRANCH  15  17
ENDBRANCH  12  13
ENDBRANCH   9  12
BRANCH   3  25
ATOM     25  C16 <0> d          -5.363   8.594  -3.998  0.00  0.00     0.213 C 
ATOM     26  O4  <0> d          -5.625   7.538  -4.539  0.00  0.00    -0.644 OA
ATOM     27  O5  <0> d          -4.896   9.627  -4.727  0.00  0.00    -0.644 OA
ENDBRANCH   3  25
TORSDOF 4
