REMARK  4 active torsions:
REMARK  status: ('A' for Active; 'I' for Inactive)
REMARK    1  A    between atoms: C4_4  and  C7_7 
REMARK    2  A    between atoms: N1_11  and  C11_15 
REMARK    3  A    between atoms: C11_15  and  C12_16 
REMARK       I    between atoms: C12_16  and  N2_18 
REMARK    4  A    between atoms: N2_18  and  C13_19 
ROOT
ATOM      1  C7  <0> d           3.690  -0.678  -0.038  0.00  0.00     0.036 C 
ATOM      2  C8  <0> d           3.716  -2.030   0.057  0.00  0.00     0.079 A 
ATOM      3  C9  <0> d           4.872  -2.946   0.167  0.00  0.00     0.268 A 
ATOM      4  O1  <0> d           6.016  -2.532   0.184  0.00  0.00    -0.266 OA
ATOM      5  N1  <0> d           4.599  -4.237   0.245  0.00  0.00    -0.265 N 
ATOM      6  C10 <0> d           3.329  -4.691   0.225  0.00  0.00     0.294 A 
ATOM      7  O2  <0> d           2.938  -5.841   0.289  0.00  0.00    -0.259 OA
ATOM      8  S1  <0> d           2.362  -3.197   0.091  0.00  0.00    -0.023 SA
ENDROOT
BRANCH   5   9
ATOM      9  C11 <0> d           5.701  -5.196   0.356  0.00  0.00     0.238 C 
BRANCH   9  10
ATOM     10  C12 <0> d           6.021  -5.427   1.810  0.00  0.00     0.236 C 
ATOM     11  O3  <0> d           5.392  -4.847   2.670  0.00  0.00    -0.272 OA
ATOM     12  N2  <0> d           7.008  -6.278   2.156  0.00  0.00    -0.354 N 
ATOM     13  H10 <0> d           7.512  -6.741   1.469  0.00  0.00     0.162 HD
BRANCH  12  14
ATOM     14  C13 <0> d           7.320  -6.502   3.570  0.00  0.00     0.099 C 
ATOM     15  C16 <0> d           7.982  -7.898   3.746  0.00  0.00     0.165 C 
ATOM     16  S2  <0> d           8.799  -7.679   5.383  0.00  0.00     0.146 S 
ATOM     17  C15 <0> d           8.893  -5.843   5.434  0.00  0.00     0.142 C 
ATOM     18  O4  <0> d           7.916  -8.125   6.404  0.00  0.00    -0.228 OA
ATOM     19  O5  <0> d          10.116  -8.208   5.318  0.00  0.00    -0.228 OA
ATOM     20  C14 <0> d           8.315  -5.435   4.057  0.00  0.00     0.041 C 
ENDBRANCH  12  14
ENDBRANCH   9  10
ENDBRANCH   5   9
BRANCH   1  21
ATOM     21  C4  <0> d           2.425   0.015  -0.321  0.00  0.00    -0.035 A 
ATOM     22  C3  <0> d           2.354   1.410  -0.241  0.00  0.00     0.011 A 
ATOM     23  C2  <0> d           1.164   2.052  -0.509  0.00  0.00     0.001 A 
ATOM     24  C1  <0> d           0.041   1.320  -0.857  0.00  0.00     0.000 A 
ATOM     25  C6  <0> d           0.103  -0.060  -0.938  0.00  0.00     0.001 A 
ATOM     26  C5  <0> d           1.286  -0.718  -0.673  0.00  0.00     0.011 A 
ENDBRANCH   1  21
TORSDOF 4
