REMARK  1 active torsions:
REMARK  status: ('A' for Active; 'I' for Inactive)
REMARK    1  A    between atoms: C6_6  and  C7_8 
ROOT
ATOM      1  C1  <0> d          -2.551  -3.632   0.006  0.00  0.00     0.073 C 
ATOM      2  C2  <0> d          -1.050  -3.491  -0.007  0.00  0.00     0.059 A 
ATOM      3  C3  <0> d          -0.478  -2.220  -0.006  0.00  0.00     0.068 A 
ATOM      4  C4  <0> d           0.925  -2.113  -0.019  0.00  0.00     0.007 A 
ATOM      5  C5  <0> d           1.688  -3.278  -0.032  0.00  0.00     0.050 A 
ATOM      6  C6  <0> d           1.032  -4.504  -0.033  0.00  0.00     0.101 A 
ATOM      7  N1  <0> d          -0.297  -4.566  -0.021  0.00  0.00    -0.248 NA
ATOM      8  C10 <0> d           1.235  -0.675  -0.013  0.00  0.00     0.003 A 
ATOM      9  C11 <0> d           2.423   0.053  -0.020  0.00  0.00     0.014 A 
ATOM     10  C12 <0> d           2.384   1.430  -0.011  0.00  0.00     0.001 A 
ATOM     11  C13 <0> d           1.166   2.094   0.002  0.00  0.00     0.002 A 
ATOM     12  C14 <0> d          -0.017   1.388   0.010  0.00  0.00     0.030 A 
ATOM     13  C15 <0> d           0.002  -0.004   0.002  0.00  0.00     0.043 A 
ATOM     14  N3  <0> d          -1.009  -0.948   0.006  0.00  0.00    -0.353 N 
ATOM     15  H1  <0> d          -1.957  -0.744   0.016  0.00  0.00     0.166 HD
ENDROOT
BRANCH   6  16
ATOM     16  C7  <0> d           1.823  -5.756  -0.047  0.00  0.00     0.126 A 
ATOM     17  N2  <0> d           1.247  -7.001  -0.044  0.00  0.00    -0.373 N 
ATOM     18  C9  <0> d           2.322  -8.008  -0.064  0.00  0.00     0.141 A 
ATOM     19  H10 <0> d           0.295  -7.186  -0.032  0.00  0.00     0.161 HD
ATOM     20  C8  <0> d           3.606  -7.155  -0.071  0.00  0.00     0.141 A 
ATOM     21  N4  <0> d           3.117  -5.767  -0.059  0.00  0.00    -0.373 N 
ATOM     22  H15 <0> d           3.714  -4.931  -0.060  0.00  0.00     0.161 HD
ENDBRANCH   6  16
TORSDOF 1
