REMARK  6 active torsions:
REMARK  status: ('A' for Active; 'I' for Inactive)
REMARK    1  A    between atoms: C2_2  and  N1_3 
REMARK    2  A    between atoms: C4_6  and  C5_7 
REMARK    3  A    between atoms: C5_7  and  C6_8 
REMARK    4  A    between atoms: N2_10  and  C14_17 
REMARK    5  A    between atoms: C14_17  and  C15_18 
REMARK       I    between atoms: C15_18  and  N3_20 
REMARK    6  A    between atoms: N3_20  and  C16_21 
ROOT
ATOM      1  C6  <0> d           0.834  -1.784  -5.836  0.00  0.00    -0.007 A 
ATOM      2  C7  <0> d           2.200  -2.015  -5.857  0.00  0.00     0.104 A 
ATOM      3  N2  <0> d           2.582  -2.340  -7.105  0.00  0.00    -0.346 N 
ATOM      4  C8  <0> d           1.500  -2.341  -7.965  0.00  0.00     0.045 A 
ATOM      5  C9  <0> d           0.361  -2.002  -7.219  0.00  0.00     0.002 A 
ATOM      6  C10 <0> d          -0.883  -1.931  -7.837  0.00  0.00     0.014 A 
ATOM      7  C11 <0> d          -0.993  -2.199  -9.185  0.00  0.00     0.001 A 
ATOM      8  C12 <0> d           0.131  -2.538  -9.923  0.00  0.00     0.002 A 
ATOM      9  C13 <0> d           1.371  -2.604  -9.324  0.00  0.00     0.030 A 
ENDROOT
BRANCH   1  10
ATOM     10  C5  <0> d           0.053  -1.422  -4.722  0.00  0.00     0.035 C 
BRANCH  10  11
ATOM     11  C4  <0> d           0.188  -2.116  -3.522  0.00  0.00     0.089 A 
ATOM     12  C3  <0> d          -0.443  -1.631  -2.284  0.00  0.00     0.266 A 
ATOM     13  N1  <0> d          -0.268  -2.357  -1.158  0.00  0.00    -0.264 N 
ATOM     14  O1  <0> d          -1.101  -0.607  -2.274  0.00  0.00    -0.267 OA
ATOM     15  C20 <0> d           0.466  -3.482  -1.181  0.00  0.00     0.353 A 
ATOM     16  N4  <0> d           1.042  -3.946  -2.286  0.00  0.00    -0.165 NA
ATOM     17  O4  <0> d           0.605  -4.107  -0.144  0.00  0.00    -0.244 OA
ATOM     18  C19 <0> d           0.942  -3.322  -3.447  0.00  0.00     0.220 A 
ATOM     19  O3  <0> d           1.546  -3.821  -4.547  0.00  0.00    -0.169 OA
BRANCH  13  20
ATOM     20  C2  <0> d          -0.877  -1.911   0.097  0.00  0.00     0.133 C 
ATOM     21  C1  <0> d           0.095  -0.990   0.837  0.00  0.00     0.027 C 
ENDBRANCH  13  20
ENDBRANCH  10  11
ENDBRANCH   1  10
BRANCH   3  22
ATOM     22  C14 <0> d           3.958  -2.651  -7.499  0.00  0.00     0.231 C 
BRANCH  22  23
ATOM     23  C15 <0> d           4.619  -1.408  -8.037  0.00  0.00     0.236 C 
ATOM     24  O2  <0> d           4.001  -0.365  -8.086  0.00  0.00    -0.272 OA
ATOM     25  N3  <0> d           5.897  -1.454  -8.463  0.00  0.00    -0.355 N 
ATOM     26  H14 <0> d           6.391  -2.288  -8.424  0.00  0.00     0.162 HD
BRANCH  25  27
ATOM     27  C16 <0> d           6.539  -0.246  -8.986  0.00  0.00     0.084 A 
ATOM     28  C18 <0> d           8.065  -0.167  -8.906  0.00  0.00     0.027 A 
ATOM     29  C17 <0> d           7.380  -0.387 -10.257  0.00  0.00     0.027 A 
ENDBRANCH  25  27
ENDBRANCH  22  23
ENDBRANCH   3  22
TORSDOF 6
