REMARK  5 active torsions:
REMARK  status: ('A' for Active; 'I' for Inactive)
REMARK    1  A    between atoms: C6_6  and  C8_8 
REMARK    2  A    between atoms: C8_8  and  C9_9 
REMARK       I    between atoms: C9_9  and  N1_11 
REMARK    3  A    between atoms: C11_13  and  C18_21 
REMARK       I    between atoms: C18_21  and  N3_23 
REMARK    4  A    between atoms: N3_23  and  C19_24 
REMARK    5  A    between atoms: C19_24  and  C20_25 
ROOT
ATOM      1  C9  <0> d           1.640  -3.057   2.948  0.00  0.00     0.224 C 
ATOM      2  O1  <0> d           2.572  -2.707   2.256  0.00  0.00    -0.273 OA
ATOM      3  N1  <0> d           1.865  -3.756   4.078  0.00  0.00    -0.350 N 
ATOM      4  C10 <0> d           0.864  -4.273   5.041  0.00  0.00     0.140 C 
ATOM      5  C11 <0> d           1.397  -5.665   5.449  0.00  0.00     0.106 C 
ATOM      6  C12 <0> d           2.911  -5.598   5.185  0.00  0.00    -0.007 C 
ATOM      7  C13 <0> d           3.169  -4.188   4.636  0.00  0.00     0.136 C 
ATOM      8  C14 <0> d           3.313  -6.643   4.149  0.00  0.00     0.039 C 
ATOM      9  C15 <0> d           4.830  -6.596   3.945  0.00  0.00     0.233 C 
ATOM     10  N2  <0> d           5.505  -6.858   5.222  0.00  0.00    -0.075 N 
ATOM     11  C16 <0> d           5.186  -5.797   6.184  0.00  0.00     0.233 C 
ATOM     12  C17 <0> d           3.684  -5.811   6.483  0.00  0.00     0.039 C 
ATOM     13  H19 <0> d           5.196  -7.747   5.588  0.00  0.00     0.277 HD
ATOM     14  H34 <0> d           6.503  -6.887   5.073  0.00  0.00     0.277 HD
ENDROOT
BRANCH   5  15
ATOM     15  C18 <0> d           1.128  -5.922   6.910  0.00  0.00     0.224 C 
ATOM     16  O2  <0> d           1.099  -4.996   7.693  0.00  0.00    -0.273 OA
ATOM     17  N3  <0> d           0.920  -7.180   7.345  0.00  0.00    -0.355 N 
ATOM     18  H24 <0> d           0.943  -7.920   6.719  0.00  0.00     0.162 HD
BRANCH  17  19
ATOM     19  C19 <0> d           0.658  -7.430   8.765  0.00  0.00     0.181 C 
BRANCH  19  20
ATOM     20  C20 <0> d           0.461  -8.908   8.987  0.00  0.00     0.044 A 
ATOM     21  N5  <0> d           1.433  -9.802   9.184  0.00  0.00    -0.343 N 
ATOM     22  C26 <0> d           0.893 -11.002   9.345  0.00  0.00     0.112 A 
ATOM     23  H35 <0> d           2.382  -9.605   9.208  0.00  0.00     0.167 HD
ATOM     24  N4  <0> d          -0.468 -10.873   9.239  0.00  0.00    -0.311 N 
ATOM     25  C25 <0> d           1.457 -12.272   9.581  0.00  0.00     0.049 A 
ATOM     26  C21 <0> d          -0.728  -9.549   9.014  0.00  0.00     0.125 A 
ATOM     27  C22 <0> d          -1.277 -11.966   9.361  0.00  0.00     0.014 A 
ATOM     28  C23 <0> d          -0.752 -13.188   9.586  0.00  0.00     0.025 A 
ATOM     29  C27 <0> d          -2.771 -11.805   9.242  0.00  0.00     0.068 C 
ATOM     30  C24 <0> d           0.639 -13.352   9.700  0.00  0.00     0.006 A 
ENDBRANCH  19  20
ENDBRANCH  17  19
ENDBRANCH   5  15
BRANCH   1  31
ATOM     31  C8  <0> d           0.230  -2.711   2.544  0.00  0.00     0.141 C 
BRANCH  31  32
ATOM     32  C6  <0> d           0.254  -1.933   1.254  0.00  0.00    -0.049 A 
ATOM     33  C5  <0> d           0.191  -2.599   0.044  0.00  0.00     0.007 A 
ATOM     34  C4  <0> d           0.212  -1.885  -1.139  0.00  0.00     0.001 A 
ATOM     35  C3  <0> d           0.296  -0.506  -1.113  0.00  0.00     0.007 A 
ATOM     36  C2  <0> d           0.358   0.160   0.097  0.00  0.00    -0.061 A 
ATOM     37  C1  <0> d           0.450   1.664   0.125  0.00  0.00     0.048 C 
ATOM     38  C7  <0> d           0.342  -0.553   1.280  0.00  0.00     0.014 A 
ENDBRANCH  31  32
ENDBRANCH   1  31
TORSDOF 5
