REMARK  7 active torsions:
REMARK  status: ('A' for Active; 'I' for Inactive)
REMARK    1  A    between atoms: C4_4  and  C7_8 
REMARK       I    between atoms: C7_8  and  N1_10 
REMARK    2  A    between atoms: N1_10  and  C8_11 
REMARK    3  A    between atoms: C8_11  and  C9_12 
REMARK    4  A    between atoms: C9_12  and  C10_13 
REMARK    5  A    between atoms: C9_12  and  C15_19 
REMARK    6  A    between atoms: C10_13  and  C11_14 
REMARK    7  A    between atoms: C15_19  and  O2_20 
ROOT
ATOM      1  C7  <0> d           0.751   5.146   1.787  0.00  0.00     0.254 C 
ATOM      2  O1  <0> d           1.099   6.012   1.007  0.00  0.00    -0.268 OA
ATOM      3  N1  <0> d           0.861   3.847   1.444  0.00  0.00    -0.356 N 
ATOM      4  H5  <0> d           0.546   3.064   2.150  0.00  0.00     0.162 HD
ENDROOT
BRANCH   3   5
ATOM      5  C8  <0> d           1.400   3.478   0.133  0.00  0.00     0.130 C 
BRANCH   5   6
ATOM      6  C9  <0> d           1.418   1.954  -0.001  0.00  0.00     0.031 C 
BRANCH   6   7
ATOM      7  C10 <0> d           2.095   1.566  -1.317  0.00  0.00     0.047 C 
BRANCH   7   8
ATOM      8  C11 <0> d           2.223   0.066  -1.393  0.00  0.00    -0.051 A 
ATOM      9  C14 <0> d           3.328  -0.555  -0.913  0.00  0.00     0.056 A 
ATOM     10  S1  <0> d           2.961  -2.270  -1.246  0.00  0.00    -0.113 SA
ATOM     11  C13 <0> d           1.363  -2.042  -2.009  0.00  0.00     0.050 A 
ATOM     12  C12 <0> d           1.217  -0.696  -1.957  0.00  0.00     0.014 A 
ENDBRANCH   7   8
ENDBRANCH   6   7
BRANCH   6  13
ATOM     13  C15 <0> d          -0.017   1.425   0.010  0.00  0.00     0.170 C 
BRANCH  13  14
ATOM     14  O2  <0> d           0.002  -0.004   0.002  0.00  0.00    -0.400 OA
ATOM     15  H15 <0> d          -0.943  -0.567   0.008  0.00  0.00     0.209 HD
ENDBRANCH  13  14
ENDBRANCH   6  13
ENDBRANCH   5   6
ENDBRANCH   3   5
BRANCH   1  16
ATOM     16  C4  <0> d           0.207   5.518   3.109  0.00  0.00     0.071 A 
ATOM     17  C3  <0> d           0.091   6.864   3.467  0.00  0.00     0.132 A 
ATOM     18  C2  <0> d          -0.419   7.204   4.707  0.00  0.00     0.044 A 
ATOM     19  F1  <0> d           0.477   7.831   2.606  0.00  0.00    -0.205 F 
ATOM     20  C1  <0> d          -0.814   6.215   5.589  0.00  0.00     0.022 A 
ATOM     21  C6  <0> d          -0.702   4.880   5.239  0.00  0.00     0.012 A 
ATOM     22  C5  <0> d          -0.199   4.526   4.004  0.00  0.00     0.039 A 
ATOM     23 Br1  <0> d          -1.246   3.538   6.455  0.00  0.00    -0.051 Br
ENDBRANCH   1  16
TORSDOF 7
