REMARK  5 active torsions:
REMARK  status: ('A' for Active; 'I' for Inactive)
REMARK    1  A    between atoms: C6_6  and  O1_8 
REMARK    2  A    between atoms: O1_8  and  C8_9 
REMARK    3  A    between atoms: C8_9  and  C9_10 
REMARK    4  A    between atoms: C8_9  and  C10_12 
REMARK    5  A    between atoms: C9_10  and  N1_11 
ROOT
ATOM      1  C8  <0> d           0.157  -2.008   3.560  0.00  0.00     0.194 C 
ENDROOT
BRANCH   1   2
ATOM      2  O1  <0> d           0.051  -2.775   2.359  0.00  0.00    -0.339 OA
BRANCH   2   3
ATOM      3  C6  <0> d           0.086  -2.092   1.185  0.00  0.00     0.070 A 
ATOM      4  C5  <0> d           0.104  -2.780  -0.020  0.00  0.00     0.043 A 
ATOM      5  C4  <0> d           0.139  -2.083  -1.212  0.00  0.00    -0.059 A 
ATOM      6  C3  <0> d           0.155  -0.700  -1.205  0.00  0.00     0.013 A 
ATOM      7  C14 <0> d           0.158  -2.829  -2.521  0.00  0.00     0.048 C 
ATOM      8  C2  <0> d           0.137  -0.012  -0.006  0.00  0.00    -0.059 A 
ATOM      9  C1  <0> d           0.156   1.495  -0.003  0.00  0.00     0.048 C 
ATOM     10  C7  <0> d           0.108  -0.705   1.189  0.00  0.00     0.043 A 
ENDBRANCH   2   3
ENDBRANCH   1   2
BRANCH   1  11
ATOM     11  C9  <0> d          -1.241  -1.752   4.126  0.00  0.00     0.267 C 
BRANCH  11  12
ATOM     12  N1  <0> d          -2.040  -1.011   3.141  0.00  0.00    -0.077 N 
ATOM     13  H10 <0> d          -1.592  -0.130   2.938  0.00  0.00     0.274 HD
ATOM     14  H11 <0> d          -2.115  -1.553   2.293  0.00  0.00     0.274 HD
ATOM     15  H17 <0> d          -2.962  -0.842   3.514  0.00  0.00     0.274 HD
ENDBRANCH  11  12
ENDBRANCH   1  11
BRANCH   1  16
ATOM     16  C10 <0> d           0.977  -2.768   4.570  0.00  0.00     0.015 A 
ATOM     17  S1  <0> d           1.056  -4.528   4.859  0.00  0.00    -0.102 SA
ATOM     18  C13 <0> d           2.244  -4.511   6.192  0.00  0.00     0.069 A 
ATOM     19  C12 <0> d           2.491  -3.185   6.331  0.00  0.00     0.018 A 
ATOM     20  C11 <0> d           1.842  -2.292   5.500  0.00  0.00     0.037 A 
ATOM     21 Br1  <0> d           3.706  -2.568   7.642  0.00  0.00    -0.051 Br
ENDBRANCH   1  16
TORSDOF 5
