REMARK  5 active torsions:
REMARK  status: ('A' for Active; 'I' for Inactive)
REMARK    1  A    between atoms: C2_2  and  C3_3 
REMARK    2  A    between atoms: C6_6  and  N1_9 
REMARK    3  A    between atoms: N4_21  and  C18_24 
REMARK    4  A    between atoms: C18_24  and  N6_35 
REMARK    5  A    between atoms: C23_29  and  C24_30 
REMARK       I    between atoms: C24_30  and  N5_32 
ROOT
ATOM      1  N1  <0> d           4.770   1.849  -3.986  0.00  0.00    -0.107 N 
ATOM      2  C9  <0> d           5.450   1.014  -4.797  0.00  0.00     0.279 A 
ATOM      3  O1  <0> d           5.591   1.278  -5.976  0.00  0.00    -0.266 OA
ATOM      4  C10 <0> d           6.019  -0.224  -4.234  0.00  0.00     0.061 A 
ATOM      5  C11 <0> d           6.729  -1.120  -5.031  0.00  0.00     0.019 A 
ATOM      6  C12 <0> d           7.247  -2.268  -4.470  0.00  0.00     0.001 A 
ATOM      7  C13 <0> d           7.064  -2.534  -3.123  0.00  0.00     0.002 A 
ATOM      8  C14 <0> d           6.362  -1.654  -2.322  0.00  0.00     0.032 A 
ATOM      9  C15 <0> d           5.834  -0.494  -2.870  0.00  0.00     0.075 A 
ATOM     10  N2  <0> d           5.121   0.409  -2.084  0.00  0.00    -0.116 N 
ATOM     11  C16 <0> d           4.601   1.558  -2.638  0.00  0.00     0.740 A 
ATOM     12  N3  <0> d           3.985   2.225  -1.700  0.00  0.00     0.024 NA
ATOM     13  N4  <0> d           4.100   1.505  -0.504  0.00  0.00    -0.201 N 
ATOM     14  C17 <0> d           4.811   0.391  -0.770  0.00  0.00     0.219 A 
ATOM     15  S1  <0> d           5.240  -0.827   0.353  0.00  0.00    -0.038 SA
ENDROOT
BRANCH  13  16
ATOM     16  C18 <0> d           3.553   1.894   0.798  0.00  0.00     0.389 C 
BRANCH  16  17
ATOM     17  N6  <0> d           2.184   1.364   0.965  0.00  0.00    -0.041 N 
ATOM     18  C19 <0> d           2.231  -0.099   1.178  0.00  0.00     0.238 C 
ATOM     19  C20 <0> d           0.816  -0.605   1.466  0.00  0.00     0.028 C 
ATOM     20  C21 <0> d          -0.087  -0.286   0.271  0.00  0.00     0.004 C 
ATOM     21  C22 <0> d          -0.069   1.224   0.016  0.00  0.00     0.043 C 
ATOM     22  C23 <0> d           1.372   1.677  -0.230  0.00  0.00     0.281 C 
ATOM     23  H27 <0> d           1.753   1.806   1.786  0.00  0.00     0.282 HD
BRANCH  22  24
ATOM     24  C24 <0> d           1.398   3.166  -0.462  0.00  0.00     0.246 C 
ATOM     25  O2  <0> d           1.555   3.923   0.472  0.00  0.00    -0.271 OA
ATOM     26  N5  <0> d           1.246   3.656  -1.708  0.00  0.00    -0.368 N 
ATOM     27  H25 <0> d           1.121   3.050  -2.456  0.00  0.00     0.159 HD
ATOM     28  H26 <0> d           1.263   4.614  -1.858  0.00  0.00     0.159 HD
ENDBRANCH  22  24
ENDBRANCH  16  17
ENDBRANCH  13  16
BRANCH   1  29
ATOM     29  C6  <0> d           4.225   3.027  -4.510  0.00  0.00     0.060 A 
ATOM     30  C5  <0> d           4.737   4.260  -4.127  0.00  0.00     0.031 A 
ATOM     31  C4  <0> d           4.198   5.421  -4.646  0.00  0.00     0.009 A 
ATOM     32  C3  <0> d           3.149   5.356  -5.545  0.00  0.00    -0.058 A 
ATOM     33  C8  <0> d           2.637   4.130  -5.928  0.00  0.00     0.009 A 
ATOM     34  C7  <0> d           3.176   2.965  -5.417  0.00  0.00     0.031 A 
BRANCH  32  35
ATOM     35  C2  <0> d           2.563   6.625  -6.109  0.00  0.00     0.034 C 
ATOM     36  C1  <0> d           3.304   7.003  -7.392  0.00  0.00     0.010 C 
ENDBRANCH  32  35
ENDBRANCH   1  29
TORSDOF 5
