REMARK  2 active torsions:
REMARK  status: ('A' for Active; 'I' for Inactive)
REMARK    1  A    between atoms: C8_8  and  C10_12 
REMARK    2  A    between atoms: C8_8  and  O3_23 
ROOT
ATOM      1  C1  <0> d          -0.018   1.503   0.010  0.00  0.00     0.048 C 
ATOM      2  C2  <0> d           0.002  -0.004   0.002  0.00  0.00    -0.061 A 
ATOM      3  C3  <0> d           0.006  -0.691  -1.198  0.00  0.00     0.009 A 
ATOM      4  C4  <0> d           0.025  -2.070  -1.213  0.00  0.00     0.031 A 
ATOM      5  C5  <0> d           0.040  -2.782  -0.015  0.00  0.00     0.044 A 
ATOM      6  C6  <0> d           0.037  -2.081   1.184  0.00  0.00     0.014 A 
ATOM      7  C7  <0> d           0.023  -0.704   1.196  0.00  0.00     0.019 A 
ATOM      8  C8  <0> d           0.056  -3.118   2.283  0.00  0.00     0.184 A 
ATOM      9  C9  <0> d           0.071  -4.439   1.543  0.00  0.00     0.263 A 
ATOM     10  O1  <0> d           0.088  -5.544   2.042  0.00  0.00    -0.269 OA
ATOM     11  N1  <0> d           0.060  -4.156   0.229  0.00  0.00    -0.324 N 
ATOM     12  H8  <0> d           0.066  -4.829  -0.469  0.00  0.00     0.169 HD
ENDROOT
BRANCH   8  13
ATOM     13  C10 <0> d           1.316  -2.969   3.138  0.00  0.00     0.162 A 
ATOM     14  C17 <0> d           2.558  -3.107   2.282  0.00  0.00     0.234 A 
ATOM     15  N2  <0> d           3.238  -4.173   2.745  0.00  0.00    -0.326 N 
ATOM     16  O2  <0> d           2.876  -2.392   1.355  0.00  0.00    -0.272 OA
ATOM     17  C16 <0> d           2.598  -4.779   3.828  0.00  0.00     0.042 A 
ATOM     18  H12 <0> d           4.077  -4.483   2.370  0.00  0.00     0.169 HD
ATOM     19  C11 <0> d           1.421  -4.106   4.129  0.00  0.00    -0.013 A 
ATOM     20  C15 <0> d           2.956  -5.888   4.592  0.00  0.00     0.031 A 
ATOM     21  C12 <0> d           0.616  -4.522   5.165  0.00  0.00     0.029 A 
ATOM     22  C13 <0> d           0.977  -5.625   5.920  0.00  0.00     0.011 A 
ATOM     23  C14 <0> d           2.148  -6.304   5.630  0.00  0.00     0.021 A 
ATOM     24 Br1  <0> d          -0.125  -6.201   7.344  0.00  0.00    -0.051 Br
ENDBRANCH   8  13
BRANCH   8  25
ATOM     25  O3  <0> d          -1.116  -3.011   3.094  0.00  0.00    -0.374 OA
ATOM     26  H13 <0> d          -1.943  -3.128   2.606  0.00  0.00     0.211 HD
ENDBRANCH   8  25
TORSDOF 2
