REMARK  5 active torsions:
REMARK  status: ('A' for Active; 'I' for Inactive)
REMARK    1  A    between atoms: C2_2  and  C3_3 
REMARK    2  A    between atoms: C2_2  and  O1_17 
REMARK    3  A    between atoms: C7_10  and  N5_12 
REMARK    4  A    between atoms: C8_13  and  N6_14 
REMARK    5  A    between atoms: O1_17  and  C11_18 
ROOT
ATOM      1  C3  <0> d           2.430   1.278   0.208  0.00  0.00     0.085 A 
ATOM      2  C4  <0> d           1.206   1.864   0.259  0.00  0.00     0.050 A 
ATOM      3  C5  <0> d           0.076   1.068   0.481  0.00  0.00     0.138 A 
ATOM      4  N1  <0> d           0.200  -0.231   0.638  0.00  0.00    -0.073 NA
ATOM      5  C6  <0> d           1.403  -0.816   0.590  0.00  0.00     0.765 A 
ATOM      6  N2  <0> d           2.526  -0.067   0.375  0.00  0.00    -0.045 N 
ATOM      7  N3  <0> d           3.608  -0.957   0.380  0.00  0.00     0.042 NA
ATOM      8  C7  <0> d           3.112  -2.164   0.591  0.00  0.00     0.760 A 
ATOM      9  N4  <0> d           1.786  -2.081   0.717  0.00  0.00     0.134 NA
ENDROOT
BRANCH   1  10
ATOM     10  C2  <0> d           3.665   2.108  -0.030  0.00  0.00     0.177 C 
ATOM     11  C1  <0> d           4.160   2.680   1.300  0.00  0.00     0.046 C 
BRANCH  10  12
ATOM     12  O1  <0> d           4.686   1.290  -0.606  0.00  0.00    -0.337 OA
BRANCH  12  13
ATOM     13  C11 <0> d           5.636   1.919  -1.348  0.00  0.00     0.108 A 
ATOM     14  C16 <0> d           6.595   1.176  -2.024  0.00  0.00     0.149 A 
ATOM     15  C15 <0> d           7.558   1.819  -2.781  0.00  0.00     0.045 A 
ATOM     16  F1  <0> d           6.585  -0.172  -1.946  0.00  0.00    -0.203 F 
ATOM     17  C14 <0> d           7.570   3.200  -2.857  0.00  0.00     0.003 A 
ATOM     18  C13 <0> d           6.619   3.941  -2.181  0.00  0.00     0.003 A 
ATOM     19  C12 <0> d           5.652   3.303  -1.426  0.00  0.00     0.040 A 
ENDBRANCH  12  13
ENDBRANCH  10  12
ENDBRANCH   1  10
BRANCH   8  20
ATOM     20  N5  <0> d           3.845  -3.320   0.668  0.00  0.00    -0.182 N 
ATOM     21  C8  <0> d           3.247  -4.458   0.880  0.00  0.00     0.195 C 
ATOM     22  H18 <0> d           4.938  -3.287   0.551  0.00  0.00     0.185 HD
BRANCH  21  23
ATOM     23  N6  <0> d           3.977  -5.610   0.957  0.00  0.00    -0.385 N 
ATOM     24  C9  <0> d           5.433  -5.566   0.801  0.00  0.00     0.149 C 
ATOM     25  C10 <0> d           3.304  -6.889   1.196  0.00  0.00     0.149 C 
ENDBRANCH  21  23
ENDBRANCH   8  20
TORSDOF 5
