REMARK  6 active torsions:
REMARK  status: ('A' for Active; 'I' for Inactive)
REMARK    1  A    between atoms: C2_2  and  C3_3 
REMARK    2  A    between atoms: C6_6  and  C9_9 
REMARK    3  A    between atoms: C9_9  and  C10_10 
REMARK    4  A    between atoms: C9_9  and  N2_14 
REMARK    5  A    between atoms: C10_10  and  N1_11 
REMARK    6  A    between atoms: N1_11  and  O1_12 
ROOT
ATOM      1  C9  <0> d           2.707  -1.868  -4.752  0.00  0.00     0.271 C 
ENDROOT
BRANCH   1   2
ATOM      2  C6  <0> d           1.905  -1.415  -3.559  0.00  0.00    -0.024 A 
ATOM      3  C5  <0> d           0.563  -1.117  -3.701  0.00  0.00     0.010 A 
ATOM      4  C4  <0> d          -0.172  -0.702  -2.606  0.00  0.00     0.007 A 
ATOM      5  C3  <0> d           0.435  -0.586  -1.370  0.00  0.00    -0.059 A 
ATOM      6  C8  <0> d           1.778  -0.879  -1.229  0.00  0.00     0.007 A 
ATOM      7  C7  <0> d           2.513  -1.298  -2.323  0.00  0.00     0.010 A 
BRANCH   5   8
ATOM      8  C2  <0> d          -0.367  -0.134  -0.177  0.00  0.00     0.034 C 
ATOM      9  C1  <0> d          -0.308   1.392  -0.071  0.00  0.00     0.010 C 
ENDBRANCH   5   8
ENDBRANCH   1   2
BRANCH   1  10
ATOM     10  C10 <0> d           2.949  -3.376  -4.661  0.00  0.00     0.158 C 
BRANCH  10  11
ATOM     11  N1  <0> d           3.782  -3.808  -5.792  0.00  0.00    -0.204 NA
ATOM     12  H14 <0> d           3.361  -3.548  -6.671  0.00  0.00     0.153 HD
BRANCH  11  13
ATOM     13  O1  <0> d           4.035  -5.247  -5.737  0.00  0.00    -0.311 OA
ATOM     14  C11 <0> d           4.841  -5.737  -6.810  0.00  0.00     0.229 C 
ENDBRANCH  11  13
ENDBRANCH  10  11
ENDBRANCH   1  10
BRANCH   1  15
ATOM     15  N2  <0> d           3.996  -1.165  -4.771  0.00  0.00     0.103 N 
ATOM     16  C15 <0> d           5.022  -1.926  -4.045  0.00  0.00     0.319 C 
ATOM     17  C14 <0> d           6.326  -1.125  -4.020  0.00  0.00     0.314 C 
ATOM     18  N3  <0> d           6.756  -0.851  -5.398  0.00  0.00     0.101 N 
ATOM     19  I1  <0> d           7.855  -2.265  -3.001  0.00  0.00    -0.050 I 
ATOM     20  C13 <0> d           5.730  -0.090  -6.125  0.00  0.00     0.301 C 
ATOM     21  H22 <0> d           6.983  -1.706  -5.883  0.00  0.00     0.317 HD
ATOM     22  C12 <0> d           4.426  -0.891  -6.150  0.00  0.00     0.303 C 
ENDBRANCH   1  15
TORSDOF 6
