REMARK  6 active torsions:
REMARK  status: ('A' for Active; 'I' for Inactive)
REMARK    1  A    between atoms: C6_6  and  C10_12 
REMARK    2  A    between atoms: C7_7  and  C9_9 
REMARK    3  A    between atoms: C7_7  and  O1_11 
REMARK    4  A    between atoms: C9_9  and  N1_10 
REMARK    5  A    between atoms: C10_12  and  S1_13 
REMARK    6  A    between atoms: S1_13  and  N2_16 
ROOT
ATOM      1  C10 <0> d           0.275  -0.170   2.280  0.00  0.00     0.176 C 
ENDROOT
BRANCH   1   2
ATOM      2  C6  <0> d          -0.088   1.308   2.437  0.00  0.00     0.014 C 
ATOM      3  C2  <0> d           1.101   2.311   2.652  0.00  0.00    -0.033 C 
ATOM      4  C1  <0> d           2.043   2.349   1.447  0.00  0.00     0.016 C 
ATOM      5  C3  <0> d           0.213   3.602   2.746  0.00  0.00    -0.003 C 
ATOM      6  C24 <0> d           1.855   2.036   3.954  0.00  0.00     0.016 C 
ATOM      7  C8  <0> d          -0.606   3.486   1.425  0.00  0.00     0.045 C 
ATOM      8  C4  <0> d          -0.789   3.181   3.865  0.00  0.00     0.006 C 
ATOM      9  C7  <0> d          -0.805   1.967   1.220  0.00  0.00     0.091 C 
ATOM     10  C5  <0> d          -0.988   1.662   3.660  0.00  0.00     0.015 C 
BRANCH   9  11
ATOM     11  C9  <0> d          -0.156   1.516  -0.090  0.00  0.00     0.268 C 
BRANCH  11  12
ATOM     12  N1  <0> d          -0.656   2.345  -1.195  0.00  0.00    -0.076 N 
ATOM     13  H13 <0> d          -0.190   2.020  -2.137  0.00  0.00     0.274 HD
ATOM     14  H14 <0> d          -0.406   3.399  -1.006  0.00  0.00     0.274 HD
ATOM     15  H35 <0> d          -1.748   2.235  -1.270  0.00  0.00     0.274 HD
ENDBRANCH  11  12
ENDBRANCH   9  11
BRANCH   9  16
ATOM     16  O1  <0> d          -2.197   1.643   1.223  0.00  0.00    -0.387 OA
ATOM     17  H15 <0> d          -2.853   2.029   0.429  0.00  0.00     0.210 HD
ENDBRANCH   9  16
ENDBRANCH   1   2
BRANCH   1  18
ATOM     18  S1  <0> d          -1.238  -1.140   2.029  0.00  0.00     0.229 S 
ATOM     19  O2  <0> d          -2.024  -1.135   3.212  0.00  0.00    -0.206 OA
ATOM     20  O3  <0> d          -1.819  -0.824   0.771  0.00  0.00    -0.206 OA
BRANCH  18  21
ATOM     21  N2  <0> d          -0.718  -2.705   1.873  0.00  0.00    -0.311 N 
ATOM     22  C15 <0> d          -0.589  -3.571   3.054  0.00  0.00     0.136 C 
ATOM     23  C14 <0> d          -1.389  -4.856   2.812  0.00  0.00     0.039 C 
ATOM     24  C13 <0> d          -0.935  -5.495   1.501  0.00  0.00     0.008 A 
ATOM     25  C12 <0> d          -1.181  -4.540   0.333  0.00  0.00     0.039 C 
ATOM     26  C19 <0> d          -1.665  -6.793   1.273  0.00  0.00    -0.035 A 
ATOM     27  C16 <0> d           0.527  -5.855   1.577  0.00  0.00    -0.011 A 
ATOM     28  C11 <0> d          -0.385  -3.255   0.552  0.00  0.00     0.136 C 
ATOM     29  C18 <0> d          -0.684  -7.787   1.226  0.00  0.00    -0.029 A 
ATOM     30  C20 <0> d          -2.993  -7.117   1.123  0.00  0.00     0.009 A 
ATOM     31  C17 <0> d           0.638  -7.163   1.417  0.00  0.00     0.009 A 
ATOM     32  C23 <0> d          -1.068  -9.115   1.022  0.00  0.00     0.012 A 
ATOM     33  C22 <0> d          -2.403  -9.429   0.872  0.00  0.00     0.001 A 
ATOM     34  C21 <0> d          -3.365  -8.436   0.922  0.00  0.00     0.001 A 
ENDBRANCH  18  21
ENDBRANCH   1  18
TORSDOF 6
