REMARK  8 active torsions:
REMARK  status: ('A' for Active; 'I' for Inactive)
REMARK    1  A    between atoms: C2_2  and  S1_4 
REMARK    2  A    between atoms: S1_4  and  C4_7 
REMARK    3  A    between atoms: C7_10  and  C10_15 
REMARK    4  A    between atoms: C8_11  and  O3_14 
REMARK    5  A    between atoms: C10_15  and  C11_16 
REMARK    6  A    between atoms: C10_15  and  N1_19 
REMARK    7  A    between atoms: C11_16  and  C12_17 
REMARK    8  A    between atoms: N1_19  and  C13_20 
ROOT
ATOM      1  C4  <0> d          -1.452  -2.385   0.045  0.00  0.00     0.084 A 
ATOM      2  C5  <0> d          -1.838  -2.987   1.229  0.00  0.00     0.026 A 
ATOM      3  C6  <0> d          -1.738  -4.358   1.375  0.00  0.00     0.013 A 
ATOM      4  C7  <0> d          -1.252  -5.131   0.338  0.00  0.00    -0.000 A 
ATOM      5  C8  <0> d          -0.865  -4.531  -0.851  0.00  0.00     0.097 A 
ATOM      6  C9  <0> d          -0.971  -3.154  -0.998  0.00  0.00     0.089 A 
ATOM      7 Cl1  <0> d          -0.494  -2.400  -2.486  0.00  0.00    -0.080 Cl
ENDROOT
BRANCH   4   8
ATOM      8  C10 <0> d          -1.143  -6.625   0.498  0.00  0.00     0.126 C 
BRANCH   8   9
ATOM      9  C11 <0> d          -1.288  -6.991   1.977  0.00  0.00     0.099 C 
BRANCH   9  10
ATOM     10  C12 <0> d          -1.057  -8.470   2.153  0.00  0.00     0.233 C 
ATOM     11  O4  <0> d          -0.221  -8.862   2.932  0.00  0.00    -0.307 OA
ENDBRANCH   9  10
ENDBRANCH   8   9
BRANCH   8  12
ATOM     12  N1  <0> d          -2.205  -7.278  -0.273  0.00  0.00    -0.359 N 
ATOM     13  H15 <0> d          -1.978  -7.933  -0.952  0.00  0.00     0.162 HD
BRANCH  12  14
ATOM     14  C13 <0> d          -3.495  -6.969  -0.038  0.00  0.00     0.349 C 
ATOM     15  O5  <0> d          -3.775  -6.086   0.744  0.00  0.00    -0.284 OA
ENDBRANCH  12  14
ENDBRANCH   8  12
ENDBRANCH   4   8
BRANCH   5  16
ATOM     16  O3  <0> d          -0.387  -5.290  -1.873  0.00  0.00    -0.358 OA
ATOM     17  H11 <0> d          -1.069  -5.603  -2.483  0.00  0.00     0.217 HD
ENDBRANCH   5  16
BRANCH   1  18
ATOM     18  S1  <0> d          -1.581  -0.637  -0.137  0.00  0.00     0.180 S 
ATOM     19  O1  <0> d          -2.124  -0.183   1.095  0.00  0.00    -0.222 OA
ATOM     20  O2  <0> d          -2.290  -0.450  -1.354  0.00  0.00    -0.222 OA
BRANCH  18  21
ATOM     21  C2  <0> d           0.130  -0.060  -0.316  0.00  0.00     0.105 C 
ATOM     22  C1  <0> d           0.150   1.469  -0.357  0.00  0.00     0.026 C 
ATOM     23  C3  <0> d           0.960  -0.549   0.873  0.00  0.00     0.026 C 
ENDBRANCH  18  21
ENDBRANCH   1  18
TORSDOF 8
