REMARK  2 active torsions:
REMARK  status: ('A' for Active; 'I' for Inactive)
REMARK    1  A    between atoms: C2_2  and  C4_4 
REMARK    2  A    between atoms: N1_9  and  C9_12 
ROOT
ATOM      1  C4  <0> d          -1.433  -0.534   0.013  0.00  0.00     0.239 C 
ATOM      2  C5  <0> d          -1.437  -2.077  -0.034  0.00  0.00     0.128 A 
ATOM      3  C6  <0> d          -2.650  -2.445  -0.934  0.00  0.00     0.147 A 
ATOM      4  C7  <0> d          -3.594  -3.140   0.021  0.00  0.00     0.235 A 
ATOM      5  O1  <0> d          -4.679  -3.592  -0.273  0.00  0.00    -0.272 OA
ATOM      6  N1  <0> d          -3.044  -3.179   1.240  0.00  0.00    -0.279 N 
ATOM      7  C8  <0> d          -1.818  -2.613   1.328  0.00  0.00     0.234 A 
ATOM      8  O2  <0> d          -1.133  -2.541   2.325  0.00  0.00    -0.272 OA
ATOM      9  C13 <0> d          -3.232  -1.095  -1.370  0.00  0.00     0.279 A 
ATOM     10  N2  <0> d          -2.150  -0.111  -1.219  0.00  0.00     0.114 N 
ATOM     11  C14 <0> d          -4.417  -0.708  -0.531  0.00  0.00     0.019 A 
ATOM     12  C15 <0> d          -4.595  -0.496   0.818  0.00  0.00     0.013 A 
ATOM     13  C16 <0> d          -5.840  -0.138   1.304  0.00  0.00     0.002 A 
ATOM     14  C17 <0> d          -6.904   0.007   0.433  0.00  0.00     0.026 A 
ATOM     15  C18 <0> d          -6.731  -0.205  -0.920  0.00  0.00     0.061 A 
ATOM     16  C19 <0> d          -5.480  -0.567  -1.418  0.00  0.00     0.066 A 
ATOM     17  N3  <0> d          -5.059  -0.832  -2.724  0.00  0.00    -0.323 N 
ATOM     18  C20 <0> d          -3.751  -1.150  -2.781  0.00  0.00     0.267 A 
ATOM     19  O3  <0> d          -3.116  -1.426  -3.776  0.00  0.00    -0.270 OA
ATOM     20 Cl1  <0> d          -8.074  -0.022  -2.004  0.00  0.00    -0.082 Cl
ATOM     21  H20 <0> d          -2.515   0.825  -1.122  0.00  0.00     0.318 HD
ATOM     22  H24 <0> d          -5.641  -0.792  -3.499  0.00  0.00     0.169 HD
ENDROOT
BRANCH   1  23
ATOM     23  C2  <0> d           0.002  -0.004   0.002  0.00  0.00     0.011 C 
ATOM     24  C1  <0> d          -0.019   1.526   0.010  0.00  0.00     0.012 C 
ATOM     25  C3  <0> d           0.742  -0.511   1.242  0.00  0.00     0.012 C 
ENDBRANCH   1  23
BRANCH   6  26
ATOM     26  C9  <0> d          -3.713  -3.790   2.391  0.00  0.00     0.032 C 
ATOM     27  C10 <0> d          -3.978  -5.269   2.100  0.00  0.00     0.038 C 
ATOM     28  C11 <0> d          -2.818  -3.666   3.626  0.00  0.00     0.038 C 
ATOM     29  C12 <0> d          -5.041  -3.075   2.649  0.00  0.00     0.038 C 
ENDBRANCH   6  26
TORSDOF 2
