REMARK  4 active torsions:
REMARK  status: ('A' for Active; 'I' for Inactive)
REMARK    1  A    between atoms: C7_10  and  S1_12 
REMARK    2  A    between atoms: S1_12  and  C8_13 
REMARK    3  A    between atoms: C8_13  and  C9_14 
REMARK       I    between atoms: C9_14  and  N3_16 
REMARK    4  A    between atoms: N3_16  and  C10_17 
ROOT
ATOM      1  C10 <0> d           7.449  -0.743   7.289  0.00  0.00     0.173 C 
ATOM      2  C11 <0> d           8.896  -0.331   6.934  0.00  0.00     0.155 C 
ATOM      3  C12 <0> d           9.897  -1.388   7.362  0.00  0.00    -0.047 C 
ATOM      4  C13 <0> d           9.439  -2.606   7.587  0.00  0.00    -0.016 C 
ATOM      5  S2  <0> d           7.676  -2.569   7.314  0.00  0.00    -0.107 SA
ATOM      6  C14 <0> d          10.536  -3.567   7.982  0.00  0.00     0.046 C 
ATOM      7  C15 <0> d          11.841  -2.856   7.566  0.00  0.00     0.009 C 
ATOM      8  C16 <0> d          11.410  -1.378   7.613  0.00  0.00     0.037 C 
ATOM      9  C17 <0> d           8.997  -0.136   5.479  0.00  0.00     0.071 C 
ATOM     10  N4  <0> d           9.076   0.014   4.356  0.00  0.00    -0.196 NA
ENDROOT
BRANCH   1  11
ATOM     11  N3  <0> d           6.503  -0.332   6.250  0.00  0.00    -0.345 N 
ATOM     12  C9  <0> d           5.618  -1.221   5.755  0.00  0.00     0.228 C 
ATOM     13  O2  <0> d           5.606  -2.360   6.170  0.00  0.00    -0.273 OA
ATOM     14  H12 <0> d           6.512   0.579   5.917  0.00  0.00     0.163 HD
BRANCH  12  15
ATOM     15  C8  <0> d           4.644  -0.799   4.685  0.00  0.00     0.185 C 
BRANCH  15  16
ATOM     16  S1  <0> d           3.596  -2.208   4.231  0.00  0.00    -0.083 SA
BRANCH  16  17
ATOM     17  C7  <0> d           2.527  -1.561   2.989  0.00  0.00     0.169 A 
ATOM     18  N1  <0> d           1.593  -2.372   2.418  0.00  0.00    -0.302 N 
ATOM     19  C6  <0> d           0.779  -1.878   1.464  0.00  0.00     0.255 A 
ATOM     20  H1  <0> d           1.515  -3.298   2.696  0.00  0.00     0.171 HD
ATOM     21  C5  <0> d           0.913  -0.527   1.079  0.00  0.00     0.035 A 
ATOM     22  O1  <0> d          -0.062  -2.590   0.940  0.00  0.00    -0.268 OA
ATOM     23  C4  <0> d           1.857   0.238   1.686  0.00  0.00     0.049 A 
ATOM     24  C18 <0> d           0.002  -0.004   0.002  0.00  0.00     0.046 C 
ATOM     25  C3  <0> d           2.066   1.691   1.347  0.00  0.00     0.060 C 
ATOM     26  N2  <0> d           2.642  -0.302   2.625  0.00  0.00    -0.228 NA
ATOM     27  C2  <0> d           1.430   2.025  -0.001  0.00  0.00     0.006 C 
ATOM     28  C1  <0> d          -0.019   1.524   0.010  0.00  0.00     0.005 C 
ENDBRANCH  16  17
ENDBRANCH  15  16
ENDBRANCH  12  15
ENDBRANCH   1  11
TORSDOF 4
