REMARK  3 active torsions:
REMARK  status: ('A' for Active; 'I' for Inactive)
REMARK    1  A    between atoms: C4_4  and  N1_7 
REMARK    2  A    between atoms: C11_12  and  N6_21 
REMARK    3  A    between atoms: C14_16  and  N5_20 
ROOT
ATOM      1  N1  <0> d           3.003  -0.394  -2.441  0.00  0.00     0.097 N 
ATOM      2  C7  <0> d           2.277   0.063  -3.636  0.00  0.00     0.278 C 
ATOM      3  C8  <0> d           3.160  -0.183  -4.860  0.00  0.00     0.070 C 
ATOM      4  C9  <0> d           3.678  -1.595  -4.848  0.00  0.00    -0.027 A 
ATOM      5  C10 <0> d           3.654  -2.365  -3.732  0.00  0.00     0.023 A 
ATOM      6  C11 <0> d           4.161  -3.679  -3.772  0.00  0.00     0.136 A 
ATOM      7  N2  <0> d           4.662  -4.215  -4.861  0.00  0.00    -0.209 NA
ATOM      8  C12 <0> d           4.718  -3.523  -6.012  0.00  0.00     0.185 A 
ATOM      9  C13 <0> d           4.208  -2.145  -6.035  0.00  0.00     0.065 A 
ATOM     10  C14 <0> d           4.388  -1.679  -7.334  0.00  0.00     0.130 A 
ATOM     11  N3  <0> d           4.952  -2.670  -8.045  0.00  0.00    -0.260 N 
ATOM     12  N4  <0> d           5.150  -3.789  -7.229  0.00  0.00    -0.152 NA
ATOM     13  H1  <0> d           5.188  -2.617  -8.984  0.00  0.00     0.191 HD
ATOM     14  C19 <0> d           3.090  -1.858  -2.430  0.00  0.00     0.316 C 
ENDROOT
BRANCH   1  15
ATOM     15  C4  <0> d           2.366   0.104  -1.215  0.00  0.00     0.223 C 
ATOM     16  C3  <0> d           2.406   1.634  -1.205  0.00  0.00     0.036 C 
ATOM     17  C2  <0> d           1.743   2.153   0.072  0.00  0.00     0.002 C 
ATOM     18  C1  <0> d           0.288   1.680   0.120  0.00  0.00     0.000 C 
ATOM     19  C6  <0> d           0.248   0.151   0.110  0.00  0.00     0.002 C 
ATOM     20  C5  <0> d           0.912  -0.368  -1.167  0.00  0.00     0.036 C 
ENDBRANCH   1  15
BRANCH   6  21
ATOM     21  N6  <0> d           4.129  -4.438  -2.612  0.00  0.00    -0.365 N 
ATOM     22  C18 <0> d           5.215  -4.536  -1.620  0.00  0.00     0.124 C 
ATOM     23  C17 <0> d           4.507  -4.942  -0.300  0.00  0.00     0.021 C 
ATOM     24  C16 <0> d           3.414  -5.912  -0.821  0.00  0.00     0.021 C 
ATOM     25  C15 <0> d           3.010  -5.284  -2.172  0.00  0.00     0.124 C 
ENDBRANCH   6  21
BRANCH  10  26
ATOM     26  N5  <0> d           4.048  -0.424  -7.808  0.00  0.00    -0.384 N 
ATOM     27  H17 <0> d           3.643   0.226  -7.213  0.00  0.00     0.157 HD
ATOM     28  H18 <0> d           4.215  -0.194  -8.736  0.00  0.00     0.157 HD
ENDBRANCH  10  26
TORSDOF 3
