REMARK  2 active torsions:
REMARK  status: ('A' for Active; 'I' for Inactive)
REMARK    1  A    between atoms: C7_8  and  N3_10 
REMARK    2  A    between atoms: N3_10  and  C8_11 
ROOT
ATOM      1  C1  <0> d           7.221   0.918  -0.448  0.00  0.00     0.015 C 
ATOM      2  C2  <0> d           5.911   1.697  -0.584  0.00  0.00    -0.036 C 
ATOM      3  C3  <0> d           4.760   0.857  -0.035  0.00  0.00     0.070 C 
ATOM      4  C4  <0> d           3.476   1.637  -0.024  0.00  0.00     0.069 A 
ATOM      5  C5  <0> d           3.468   3.037  -0.020  0.00  0.00     0.053 A 
ATOM      6  C6  <0> d           2.240   3.710  -0.002  0.00  0.00     0.153 A 
ATOM      7  N1  <0> d           1.129   2.997   0.002  0.00  0.00    -0.074 NA
ATOM      8  C7  <0> d           1.173   1.671  -0.000  0.00  0.00     0.722 A 
ATOM      9  N2  <0> d           2.318   1.000  -0.015  0.00  0.00    -0.067 NA
ATOM     10  C13 <0> d           4.733   3.785  -0.038  0.00  0.00     0.163 C 
ATOM     11  O1  <0> d           4.754   4.981  -0.241  0.00  0.00    -0.292 OA
ATOM     12  C14 <0> d           6.010   3.007   0.208  0.00  0.00     0.093 C 
ATOM     13  C15 <0> d           5.655   2.010  -2.059  0.00  0.00     0.015 C 
ENDROOT
BRANCH   8  14
ATOM     14  N3  <0> d          -0.011   0.966   0.007  0.00  0.00    -0.218 N 
ATOM     15  H7  <0> d           0.002  -0.004   0.002  0.00  0.00     0.178 HD
BRANCH  14  16
ATOM     16  C8  <0> d          -1.290   1.681   0.017  0.00  0.00     0.099 C 
ATOM     17  C12 <0> d          -2.396   0.792  -0.577  0.00  0.00     0.026 C 
ATOM     18  C11 <0> d          -3.448   0.596   0.533  0.00  0.00     0.002 C 
ATOM     19  C10 <0> d          -3.247   1.815   1.467  0.00  0.00     0.002 C 
ATOM     20  C9  <0> d          -1.708   1.995   1.468  0.00  0.00     0.026 C 
ENDBRANCH  14  16
ENDBRANCH   8  14
TORSDOF 2
