REMARK  3 active torsions:
REMARK  status: ('A' for Active; 'I' for Inactive)
REMARK    1  A    between atoms: C13_21  and  C15_23 
REMARK    2  A    between atoms: C18_26  and  O4_30 
REMARK    3  A    between atoms: C19_27  and  O3_29 
ROOT
ATOM      1  C1  <0> d           0.018   1.405  -0.572  0.00  0.00     0.162 C 
ATOM      2  N1  <0> d           0.020  -0.031  -0.283  0.00  0.00    -0.294 N 
ATOM      3  C2  <0> d          -1.147  -0.708  -0.299  0.00  0.00     0.267 A 
ATOM      4  O1  <0> d          -2.195  -0.142  -0.551  0.00  0.00    -0.267 OA
ATOM      5  C3  <0> d          -1.119  -2.152  -0.005  0.00  0.00     0.123 A 
ATOM      6  C4  <0> d           0.195  -2.752   0.288  0.00  0.00     0.265 A 
ATOM      7  N2  <0> d           1.280  -1.951   0.269  0.00  0.00    -0.299 N 
ATOM      8  H1  <0> d           2.152  -2.330   0.459  0.00  0.00     0.171 HD
ATOM      9  C5  <0> d           1.181  -0.644  -0.013  0.00  0.00     0.183 A 
ATOM     10  S1  <0> d           2.613   0.294  -0.020  0.00  0.00    -0.040 SA
ATOM     11  O2  <0> d           0.298  -3.938   0.541  0.00  0.00    -0.267 OA
ATOM     12  C6  <0> d          -2.276  -2.911  -0.003  0.00  0.00     0.032 C 
ATOM     13  N3  <0> d          -3.370  -2.241   0.103  0.00  0.00    -0.357 N 
ATOM     14  C7  <0> d          -4.723  -2.373  -0.052  0.00  0.00     0.049 A 
ATOM     15  C8  <0> d          -5.431  -1.159  -0.063  0.00  0.00     0.031 A 
ATOM     16  C9  <0> d          -6.796  -1.119  -0.205  0.00  0.00     0.002 A 
ATOM     17  C10 <0> d          -7.505  -2.299  -0.343  0.00  0.00     0.002 A 
ATOM     18  C11 <0> d          -6.829  -3.496  -0.337  0.00  0.00     0.021 A 
ATOM     19  C12 <0> d          -5.435  -3.554  -0.194  0.00  0.00     0.028 A 
ATOM     20  S2  <0> d          -4.718  -5.147  -0.211  0.00  0.00    -0.118 SA
ATOM     21  C13 <0> d          -3.112  -5.033  -0.984  0.00  0.00     0.091 C 
ATOM     22  C14 <0> d          -2.070  -4.379  -0.130  0.00  0.00     0.078 C 
ATOM     23  H19 <0> d          -3.166  -1.337   0.391  0.00  0.00     0.166 HD
ENDROOT
BRANCH  21  24
ATOM     24  C15 <0> d          -2.645  -6.424  -1.329  0.00  0.00    -0.041 A 
ATOM     25  C20 <0> d          -2.378  -6.756  -2.644  0.00  0.00     0.047 A 
ATOM     26  C19 <0> d          -1.944  -8.033  -2.961  0.00  0.00     0.099 A 
ATOM     27  C18 <0> d          -1.786  -8.981  -1.955  0.00  0.00     0.101 A 
ATOM     28  C17 <0> d          -2.060  -8.643  -0.640  0.00  0.00     0.040 A 
ATOM     29  C16 <0> d          -2.488  -7.366  -0.329  0.00  0.00     0.011 A 
BRANCH  26  30
ATOM     30  O3  <0> d          -1.676  -8.360  -4.254  0.00  0.00    -0.358 OA
ATOM     31  H15 <0> d          -2.438  -8.710  -4.737  0.00  0.00     0.217 HD
ENDBRANCH  26  30
BRANCH  27  32
ATOM     32  O4  <0> d          -1.364 -10.237  -2.263  0.00  0.00    -0.353 OA
ATOM     33  C21 <0> d          -1.224 -11.158  -1.179  0.00  0.00     0.210 C 
ENDBRANCH  27  32
ENDBRANCH  21  24
TORSDOF 3
