REMARK  2 active torsions:
REMARK  status: ('A' for Active; 'I' for Inactive)
REMARK    1  A    between atoms: C2_2  and  C3_3 
REMARK    2  A    between atoms: C3_3  and  N1_5 
ROOT
ATOM      1  N1  <0> d           0.930  -0.800  -0.065  0.00  0.00    -0.283 N 
ATOM      2  C5  <0> d          -0.393  -0.649   0.067  0.00  0.00     0.234 A 
ATOM      3  O1  <0> d          -1.187  -1.550   0.234  0.00  0.00    -0.272 OA
ATOM      4  C6  <0> d          -0.743   0.819  -0.025  0.00  0.00     0.125 A 
ATOM      5  C7  <0> d          -1.531   1.077  -1.322  0.00  0.00     0.204 C 
ATOM      6  C8  <0> d          -2.214  -0.227  -1.771  0.00  0.00     0.036 C 
ATOM      7  C9  <0> d          -1.208  -0.916  -2.715  0.00  0.00     0.030 C 
ATOM      8  C10 <0> d           0.021   0.014  -2.741  0.00  0.00     0.237 C 
ATOM      9  C11 <0> d           0.551   2.106  -1.649  0.00  0.00     0.250 A 
ATOM     10  C12 <0> d           0.634   1.503  -0.242  0.00  0.00     0.144 A 
ATOM     11  C13 <0> d           1.604   0.343  -0.241  0.00  0.00     0.235 A 
ATOM     12  O2  <0> d           2.805   0.433  -0.380  0.00  0.00    -0.272 OA
ATOM     13  C14 <0> d           1.873   2.018  -2.361  0.00  0.00     0.017 A 
ATOM     14  C15 <0> d           2.688   0.967  -2.716  0.00  0.00     0.036 A 
ATOM     15  C16 <0> d           3.877   1.208  -3.382  0.00  0.00     0.034 A 
ATOM     16  C17 <0> d           4.243   2.507  -3.689  0.00  0.00     0.026 A 
ATOM     17  C18 <0> d           3.429   3.562  -3.335  0.00  0.00     0.032 A 
ATOM     18  C19 <0> d           2.230   3.328  -2.664  0.00  0.00     0.044 A 
ATOM     19  N2  <0> d           1.252   4.213  -2.206  0.00  0.00    -0.324 N 
ATOM     20  C20 <0> d           0.233   3.575  -1.599  0.00  0.00     0.264 A 
ATOM     21  O3  <0> d          -0.751   4.087  -1.107  0.00  0.00    -0.270 OA
ATOM     22 Cl1  <0> d           4.907  -0.116  -3.832  0.00  0.00    -0.084 Cl
ATOM     23  H22 <0> d           1.300   5.176  -2.313  0.00  0.00     0.169 HD
ATOM     24  N3  <0> d          -0.502   1.326  -2.306  0.00  0.00    -0.043 N 
ATOM     25  H23 <0> d          -0.880   1.842  -3.109  0.00  0.00     0.282 HD
ENDROOT
BRANCH   1  26
ATOM     26  C3  <0> d           1.587  -2.108  -0.021  0.00  0.00     0.091 C 
ATOM     27  C4  <0> d           2.354  -2.338  -1.325  0.00  0.00     0.033 C 
BRANCH  26  28
ATOM     28  C2  <0> d           2.561  -2.151   1.158  0.00  0.00     0.021 C 
ATOM     29  C1  <0> d           1.778  -2.052   2.469  0.00  0.00     0.007 C 
ENDBRANCH  26  28
ENDBRANCH   1  26
TORSDOF 2
