REMARK  6 active torsions:
REMARK  status: ('A' for Active; 'I' for Inactive)
REMARK    1  A    between atoms: C2_2  and  C10_11 
REMARK    2  A    between atoms: C4_4  and  O1_10 
REMARK    3  A    between atoms: C10_11  and  N1_12 
REMARK    4  A    between atoms: N1_12  and  C11_13 
REMARK    5  A    between atoms: N3_20  and  C16_23 
REMARK    6  A    between atoms: C21_28  and  O5_29 
ROOT
ATOM      1  C11 <0> d          -3.507  -0.266  -1.242  0.00  0.00     0.105 C 
ATOM      2  C12 <0> d          -4.226   0.299  -2.279  0.00  0.00     0.116 A 
ATOM      3  C13 <0> d          -3.573   1.134  -3.302  0.00  0.00     0.266 A 
ATOM      4  O2  <0> d          -2.376   1.349  -3.262  0.00  0.00    -0.267 OA
ATOM      5  N2  <0> d          -4.337   1.653  -4.285  0.00  0.00    -0.274 N 
ATOM      6  C14 <0> d          -5.657   1.423  -4.341  0.00  0.00     0.337 A 
ATOM      7  O3  <0> d          -6.289   1.920  -5.252  0.00  0.00    -0.246 OA
ATOM      8  N3  <0> d          -6.316   0.674  -3.446  0.00  0.00    -0.226 N 
ATOM      9  C15 <0> d          -5.678   0.088  -2.412  0.00  0.00     0.273 A 
ATOM     10  O4  <0> d          -6.287  -0.594  -1.608  0.00  0.00    -0.266 OA
ATOM     11  H22 <0> d          -3.923   2.205  -4.966  0.00  0.00     0.173 HD
ENDROOT
BRANCH   1  12
ATOM     12  N1  <0> d          -2.216   0.073  -1.054  0.00  0.00    -0.397 N 
ATOM     13  H20 <0> d          -1.815   0.772  -1.593  0.00  0.00     0.158 HD
BRANCH  12  14
ATOM     14  C10 <0> d          -1.419  -0.614  -0.034  0.00  0.00     0.128 C 
BRANCH  14  15
ATOM     15  C2  <0> d           0.014  -0.038  -0.026  0.00  0.00    -0.025 C 
ATOM     16  C1  <0> d          -0.097   1.456   0.295  0.00  0.00     0.017 C 
ATOM     17  C7  <0> d           0.806  -0.769   1.042  0.00  0.00     0.019 C 
ATOM     18  C6  <0> d           2.317  -0.668   0.938  0.00  0.00    -0.045 C 
ATOM     19  C5  <0> d           2.818  -0.838  -0.492  0.00  0.00     0.040 C 
ATOM     20  C8  <0> d           2.822   0.656   1.516  0.00  0.00     0.015 C 
ATOM     21  C9  <0> d           2.930  -1.804   1.786  0.00  0.00     0.015 C 
ATOM     22  C4  <0> d           2.085   0.110  -1.439  0.00  0.00     0.119 C 
ATOM     23  C3  <0> d           0.596  -0.229  -1.422  0.00  0.00     0.042 C 
BRANCH  22  24
ATOM     24  O1  <0> d           2.591  -0.072  -2.768  0.00  0.00    -0.396 OA
ATOM     25  H17 <0> d           3.534   0.124  -2.860  0.00  0.00     0.210 HD
ENDBRANCH  22  24
ENDBRANCH  14  15
ENDBRANCH  12  14
ENDBRANCH   1  12
BRANCH   8  26
ATOM     26  C16 <0> d          -7.699   0.492  -3.591  0.00  0.00     0.080 A 
ATOM     27  C21 <0> d          -8.588   1.381  -2.990  0.00  0.00     0.095 A 
ATOM     28  C20 <0> d          -9.953   1.200  -3.142  0.00  0.00     0.039 A 
ATOM     29  C19 <0> d         -10.431   0.132  -3.877  0.00  0.00     0.003 A 
ATOM     30  C18 <0> d          -9.550  -0.755  -4.469  0.00  0.00     0.002 A 
ATOM     31  C17 <0> d          -8.187  -0.577  -4.327  0.00  0.00     0.033 A 
BRANCH  27  32
ATOM     32  O5  <0> d          -8.116   2.428  -2.262  0.00  0.00    -0.354 OA
ATOM     33  C22 <0> d          -9.085   3.299  -1.675  0.00  0.00     0.210 C 
ENDBRANCH  27  32
ENDBRANCH   8  26
TORSDOF 6
