REMARK  2 active torsions:
REMARK  status: ('A' for Active; 'I' for Inactive)
REMARK    1  A    between atoms: C5_5  and  N1_7 
REMARK       I    between atoms: N1_7  and  C7_8 
REMARK    2  A    between atoms: C7_8  and  C8_10 
ROOT
ATOM      1  C8  <0> d           0.118  -4.237   0.190  0.00  0.00     0.124 A 
ATOM      2  C9  <0> d          -0.972  -5.044   0.299  0.00  0.00     0.078 A 
ATOM      3  C10 <0> d          -0.511  -6.382   0.371  0.00  0.00     0.016 A 
ATOM      4  C11 <0> d          -1.161  -7.618   0.489  0.00  0.00     0.034 A 
ATOM      5  C12 <0> d          -0.428  -8.769   0.536  0.00  0.00     0.011 A 
ATOM      6  C13 <0> d           0.959  -8.727   0.469  0.00  0.00     0.021 A 
ATOM      7  C14 <0> d           1.620  -7.525   0.353  0.00  0.00     0.032 A 
ATOM      8  C15 <0> d           0.895  -6.338   0.302  0.00  0.00     0.044 A 
ATOM      9  N2  <0> d           1.260  -5.017   0.185  0.00  0.00    -0.350 N 
ATOM     10  H1  <0> d           2.170  -4.687   0.114  0.00  0.00     0.166 HD
ATOM     11 Br1  <0> d          -1.310 -10.434   0.696  0.00  0.00    -0.051 Br
ATOM     12 Cl1  <0> d          -2.629  -4.528   0.340  0.00  0.00    -0.081 Cl
ENDROOT
BRANCH   1  13
ATOM     13  C7  <0> d           0.086  -2.772   0.088  0.00  0.00     0.274 C 
ATOM     14  N1  <0> d           1.237  -2.079  -0.021  0.00  0.00    -0.320 N 
ATOM     15  H6  <0> d           2.082  -2.550  -0.098  0.00  0.00     0.169 HD
ATOM     16  O1  <0> d          -0.979  -2.184   0.102  0.00  0.00    -0.266 OA
BRANCH  14  17
ATOM     17  C5  <0> d           1.214  -0.681  -0.024  0.00  0.00     0.057 A 
ATOM     18  C4  <0> d           2.250   0.034   0.564  0.00  0.00     0.060 A 
ATOM     19  C3  <0> d           2.224   1.416   0.559  0.00  0.00     0.026 A 
ATOM     20 Cl2  <0> d           3.577  -0.807   1.303  0.00  0.00    -0.082 Cl
ATOM     21  C2  <0> d           1.168   2.087  -0.030  0.00  0.00     0.002 A 
ATOM     22  C1  <0> d           0.135   1.378  -0.616  0.00  0.00     0.002 A 
ATOM     23  C6  <0> d           0.155  -0.003  -0.615  0.00  0.00     0.031 A 
ENDBRANCH  14  17
ENDBRANCH   1  13
TORSDOF 2
