REMARK  3 active torsions:
REMARK  status: ('A' for Active; 'I' for Inactive)
REMARK    1  A    between atoms: C2_2  and  C4_4 
REMARK    2  A    between atoms: C2_2  and  N1_6 
REMARK    3  A    between atoms: C4_4  and  O1_5 
ROOT
ATOM      1  N1  <0> d           0.688  -0.476  -1.203  0.00  0.00    -0.276 N 
ATOM      2  C5  <0> d           0.095  -1.268  -2.159  0.00  0.00     0.233 C 
ATOM      3  O2  <0> d          -1.089  -1.458  -2.333  0.00  0.00    -0.272 OA
ATOM      4  C6  <0> d           1.245  -1.844  -2.938  0.00  0.00     0.100 C 
ATOM      5  C7  <0> d           1.195  -2.029  -4.459  0.00  0.00     0.022 C 
ATOM      6  C8  <0> d           2.780  -2.033  -4.653  0.00  0.00     0.018 C 
ATOM      7  C9  <0> d           2.939  -0.543  -4.135  0.00  0.00     0.022 C 
ATOM      8  C10 <0> d           2.063  -0.489  -2.911  0.00  0.00     0.100 C 
ATOM      9  C11 <0> d           2.004  -0.171  -1.510  0.00  0.00     0.233 C 
ATOM     10  O3  <0> d           2.879   0.254  -0.787  0.00  0.00    -0.272 OA
ATOM     11  C12 <0> d           1.929   0.103  -5.136  0.00  0.00    -0.025 C 
ATOM     12  C13 <0> d           0.899  -0.750  -5.217  0.00  0.00    -0.025 C 
ENDROOT
BRANCH   1  13
ATOM     13  C2  <0> d           0.002  -0.004   0.002  0.00  0.00     0.057 C 
ATOM     14  C1  <0> d          -0.019   1.526   0.010  0.00  0.00     0.041 C 
ATOM     15  C3  <0> d           0.742  -0.511   1.242  0.00  0.00     0.041 C 
BRANCH  13  16
ATOM     16  C4  <0> d          -1.433  -0.534   0.013  0.00  0.00     0.194 C 
BRANCH  16  17
ATOM     17  O1  <0> d          -2.102  -0.073   1.189  0.00  0.00    -0.398 OA
ATOM     18  H13 <0> d          -3.019  -0.371   1.262  0.00  0.00     0.209 HD
ENDBRANCH  16  17
ENDBRANCH  13  16
ENDBRANCH   1  13
TORSDOF 3
