REMARK  4 active torsions:
REMARK  status: ('A' for Active; 'I' for Inactive)
REMARK    1  A    between atoms: C6_7  and  N6_15 
REMARK    2  A    between atoms: C9_11  and  N5_14 
REMARK    3  A    between atoms: N6_15  and  C10_16 
REMARK    4  A    between atoms: C13_19  and  O1_22 
ROOT
ATOM      1  C1  <0> d           0.079   1.231  -0.625  0.00  0.00     0.310 C 
ATOM      2  N1  <0> d           0.092  -0.226  -0.433  0.00  0.00     0.088 N 
ATOM      3  C2  <0> d          -1.264  -0.780  -0.524  0.00  0.00     0.273 C 
ATOM      4  C3  <0> d          -1.215  -2.310  -0.513  0.00  0.00     0.044 C 
ATOM      5  C4  <0> d          -0.656  -2.784   0.830  0.00  0.00     0.062 A 
ATOM      6  C5  <0> d           0.683  -2.081   0.992  0.00  0.00     0.001 A 
ATOM      7  C6  <0> d           1.786  -2.823   1.229  0.00  0.00     0.112 A 
ATOM      8  N2  <0> d           1.779  -4.151   1.275  0.00  0.00    -0.325 N 
ATOM      9  C7  <0> d           0.725  -4.905   1.060  0.00  0.00     0.160 A 
ATOM     10  C8  <0> d          -0.608  -4.289   0.822  0.00  0.00     0.043 A 
ATOM     11  C9  <0> d          -1.476  -5.306   0.644  0.00  0.00     0.126 A 
ATOM     12  N3  <0> d          -0.793  -6.460   0.774  0.00  0.00    -0.261 N 
ATOM     13  N4  <0> d           0.496  -6.243   1.007  0.00  0.00    -0.154 NA
ATOM     14  C17 <0> d           0.733  -0.584   0.845  0.00  0.00     0.310 C 
ATOM     15  H21 <0> d          -1.194  -7.339   0.693  0.00  0.00     0.191 HD
ATOM     16  H22 <0> d           2.615  -4.597   1.484  0.00  0.00     0.169 HD
ENDROOT
BRANCH   7  17
ATOM     17  N6  <0> d           2.997  -2.160   1.436  0.00  0.00    -0.342 N 
ATOM     18  H11 <0> d           3.076  -1.505   2.147  0.00  0.00     0.167 HD
BRANCH  17  19
ATOM     19  C10 <0> d           4.097  -2.440   0.616  0.00  0.00     0.033 A 
ATOM     20  C15 <0> d           5.338  -1.889   0.907  0.00  0.00     0.032 A 
ATOM     21  C14 <0> d           6.424  -2.171   0.102  0.00  0.00     0.039 A 
ATOM     22  C13 <0> d           6.272  -2.994  -1.004  0.00  0.00     0.068 A 
ATOM     23  C12 <0> d           5.032  -3.539  -1.300  0.00  0.00     0.039 A 
ATOM     24  C11 <0> d           3.946  -3.263  -0.492  0.00  0.00     0.032 A 
BRANCH  22  25
ATOM     25  O1  <0> d           7.341  -3.266  -1.800  0.00  0.00    -0.356 OA
ATOM     26  C16 <0> d           8.589  -2.671  -1.437  0.00  0.00     0.210 C 
ENDBRANCH  22  25
ENDBRANCH  17  19
ENDBRANCH   7  17
BRANCH  11  27
ATOM     27  N5  <0> d          -2.840  -5.184   0.372  0.00  0.00    -0.384 N 
ATOM     28  H9  <0> d          -3.243  -4.305   0.296  0.00  0.00     0.157 HD
ATOM     29  H10 <0> d          -3.385  -5.978   0.260  0.00  0.00     0.157 HD
ENDBRANCH  11  27
TORSDOF 4
