REMARK  6 active torsions:
REMARK  status: ('A' for Active; 'I' for Inactive)
REMARK    1  A    between atoms: C6_9  and  C7_10 
REMARK    2  A    between atoms: C7_10  and  N2_11 
REMARK       I    between atoms: N2_11  and  C8_12 
REMARK       I    between atoms: C8_12  and  N3_14 
REMARK    3  A    between atoms: N3_14  and  C9_15 
REMARK    4  A    between atoms: C9_15  and  C10_16 
REMARK    5  A    between atoms: C10_16  and  C11_17 
REMARK    6  A    between atoms: C11_17  and  N4_18 
ROOT
ATOM      1  N2  <0> d          -1.348   0.142   2.992  0.00  0.00    -0.339 N 
ATOM      2  C8  <0> d          -1.592   0.762   4.163  0.00  0.00     0.316 C 
ATOM      3  O2  <0> d          -0.671   1.228   4.807  0.00  0.00    -0.247 OA
ATOM      4  N3  <0> d          -2.855   0.865   4.622  0.00  0.00    -0.343 N 
ATOM      5  H8  <0> d          -2.083  -0.230   2.478  0.00  0.00     0.164 HD
ATOM      6  H9  <0> d          -3.589   0.493   4.108  0.00  0.00     0.164 HD
ENDROOT
BRANCH   1   7
ATOM      7  C7  <0> d           0.025   0.030   2.493  0.00  0.00     0.169 C 
BRANCH   7   8
ATOM      8  C6  <0> d           0.023  -0.700   1.175  0.00  0.00     0.034 A 
ATOM      9  C2  <0> d           0.002  -0.004   0.002  0.00  0.00    -0.047 A 
ATOM     10  C1  <0> d          -0.018   1.503   0.010  0.00  0.00     0.049 C 
ATOM     11  C3  <0> d           0.006  -0.706  -1.212  0.00  0.00     0.032 A 
ATOM     12  C4  <0> d           0.025  -2.059  -1.209  0.00  0.00     0.009 A 
ATOM     13  N1  <0> d           0.040  -2.750  -0.040  0.00  0.00    -0.327 N 
ATOM     14  C19 <0> d           0.029  -2.807  -2.517  0.00  0.00     0.068 C 
ATOM     15  H1  <0> d           0.054  -3.720  -0.057  0.00  0.00     0.169 HD
ATOM     16  C5  <0> d           0.037  -2.105   1.141  0.00  0.00     0.254 A 
ATOM     17  O1  <0> d           0.051  -2.740   2.183  0.00  0.00    -0.268 OA
ENDBRANCH   7   8
ENDBRANCH   1   7
BRANCH   4  18
ATOM     18  C9  <0> d          -3.119   1.538   5.896  0.00  0.00     0.126 C 
BRANCH  18  19
ATOM     19  C10 <0> d          -4.622   1.517   6.182  0.00  0.00     0.047 C 
BRANCH  19  20
ATOM     20  C11 <0> d          -4.898   2.221   7.512  0.00  0.00     0.236 C 
BRANCH  20  21
ATOM     21  N4  <0> d          -6.341   2.201   7.786  0.00  0.00    -0.070 N 
ATOM     22  C16 <0> d          -6.618   2.978   9.000  0.00  0.00     0.239 C 
ATOM     23  C15 <0> d          -8.127   3.028   9.245  0.00  0.00     0.008 C 
ATOM     24  C14 <0> d          -8.658   1.602   9.419  0.00  0.00     0.011 C 
ATOM     25  C17 <0> d          -8.413   3.837  10.512  0.00  0.00     0.011 C 
ATOM     26  C13 <0> d          -8.299   0.780   8.178  0.00  0.00     0.008 C 
ATOM     27  C12 <0> d          -6.783   0.813   7.972  0.00  0.00     0.239 C 
ATOM     28  C18 <0> d          -8.994   1.375   6.952  0.00  0.00     0.011 C 
ATOM     29  H33 <0> d          -6.836   2.608   7.007  0.00  0.00     0.279 HD
ENDBRANCH  20  21
ENDBRANCH  19  20
ENDBRANCH  18  19
ENDBRANCH   4  18
TORSDOF 6
