REMARK  4 active torsions:
REMARK  status: ('A' for Active; 'I' for Inactive)
REMARK    1  A    between atoms: N1_2  and  S1_4 
REMARK    2  A    between atoms: S1_4  and  N2_7 
REMARK    3  A    between atoms: N2_7  and  C3_8 
REMARK    4  A    between atoms: C8_13  and  O3_14 
ROOT
ATOM      1  C3  <0> d          -1.022  -1.925  -2.439  0.00  0.00     0.123 C 
ATOM      2  C4  <0> d          -0.057  -1.035  -3.223  0.00  0.00     0.028 C 
ATOM      3  C5  <0> d           0.814  -1.904  -4.133  0.00  0.00     0.002 C 
ATOM      4  C6  <0> d          -0.077  -2.673  -5.109  0.00  0.00     0.003 C 
ATOM      5  C7  <0> d          -1.043  -3.564  -4.325  0.00  0.00     0.034 C 
ATOM      6  C8  <0> d          -1.914  -2.695  -3.415  0.00  0.00     0.141 C 
ENDROOT
BRANCH   1   7
ATOM      7  N2  <0> d          -1.856  -1.094  -1.568  0.00  0.00    -0.295 N 
ATOM      8  H9  <0> d          -2.664  -0.684  -1.917  0.00  0.00     0.174 HD
BRANCH   7   9
ATOM      9  S1  <0> d          -1.421  -0.852   0.011  0.00  0.00     0.316 S 
ATOM     10  O1  <0> d          -1.127  -2.132   0.552  0.00  0.00    -0.183 OA
ATOM     11  O2  <0> d          -2.401   0.008   0.576  0.00  0.00    -0.183 OA
BRANCH   9  12
ATOM     12  N1  <0> d           0.002  -0.004   0.002  0.00  0.00    -0.303 N 
ATOM     13  C1  <0> d          -0.018   1.461   0.010  0.00  0.00     0.163 C 
ATOM     14  C2  <0> d           1.281  -0.719  -0.014  0.00  0.00     0.163 C 
ENDBRANCH   9  12
ENDBRANCH   7   9
ENDBRANCH   1   7
BRANCH   6  15
ATOM     15  O3  <0> d          -2.815  -3.527  -2.683  0.00  0.00    -0.393 OA
ATOM     16  H18 <0> d          -3.412  -4.046  -3.239  0.00  0.00     0.210 HD
ENDBRANCH   6  15
TORSDOF 4
