REMARK  5 active torsions:
REMARK  status: ('A' for Active; 'I' for Inactive)
REMARK    1  A    between atoms: C2_2  and  C4_4 
REMARK    2  A    between atoms: C7_7  and  C10_10 
REMARK    3  A    between atoms: N1_13  and  C13_17 
REMARK    4  A    between atoms: C13_17  and  C14_18 
REMARK    5  A    between atoms: C14_18  and  N3_19 
ROOT
ATOM      1  C10 <0> d          -5.419  -2.005   0.043  0.00  0.00     0.140 A 
ATOM      2  C11 <0> d          -5.481  -3.389  -0.572  0.00  0.00     0.260 A 
ATOM      3  O1  <0> d          -5.189  -3.699  -1.707  0.00  0.00    -0.270 OA
ATOM      4  N1  <0> d          -5.928  -4.202   0.405  0.00  0.00    -0.266 N 
ATOM      5  C12 <0> d          -6.154  -3.531   1.541  0.00  0.00     0.326 A 
ATOM      6  O2  <0> d          -6.561  -4.050   2.562  0.00  0.00    -0.247 OA
ATOM      7  N2  <0> d          -5.881  -2.219   1.425  0.00  0.00    -0.321 N 
ATOM      8  C22 <0> d          -6.353  -1.042  -0.693  0.00  0.00     0.054 C 
ATOM      9  H12 <0> d          -5.971  -1.546   2.118  0.00  0.00     0.165 HD
ENDROOT
BRANCH   4  10
ATOM     10  C13 <0> d          -6.140  -5.643   0.244  0.00  0.00     0.158 C 
BRANCH  10  11
ATOM     11  C14 <0> d          -4.855  -6.391   0.604  0.00  0.00     0.165 C 
BRANCH  11  12
ATOM     12  N3  <0> d          -5.067  -7.831   0.443  0.00  0.00    -0.235 N 
ATOM     13  S1  <0> d          -4.703  -8.764  -0.898  0.00  0.00     0.268 S 
ATOM     14  C21 <0> d          -5.239 -10.354  -0.327  0.00  0.00     0.095 A 
ATOM     15  O4  <0> d          -5.571  -8.366  -1.950  0.00  0.00    -0.200 OA
ATOM     16  O5  <0> d          -3.288  -8.807  -1.023  0.00  0.00    -0.200 OA
ATOM     17  C16 <0> d          -5.720 -10.095   0.964  0.00  0.00     0.056 A 
ATOM     18  C20 <0> d          -5.257 -11.608  -0.869  0.00  0.00     0.026 A 
ATOM     19  C15 <0> d          -5.599  -8.679   1.336  0.00  0.00     0.269 A 
ATOM     20  C17 <0> d          -6.231 -11.181   1.694  0.00  0.00     0.018 A 
ATOM     21  O3  <0> d          -5.972  -8.286   2.425  0.00  0.00    -0.266 OA
ATOM     22  C18 <0> d          -6.248 -12.442   1.144  0.00  0.00     0.001 A 
ATOM     23  C19 <0> d          -5.765 -12.668  -0.133  0.00  0.00     0.002 A 
ENDBRANCH  11  12
ENDBRANCH  10  11
ENDBRANCH   4  10
BRANCH   1  24
ATOM     24  C7  <0> d          -4.006  -1.482   0.032  0.00  0.00    -0.021 A 
ATOM     25  C6  <0> d          -3.556  -0.683   1.066  0.00  0.00     0.011 A 
ATOM     26  C5  <0> d          -2.259  -0.204   1.056  0.00  0.00     0.008 A 
ATOM     27  C4  <0> d          -1.412  -0.526   0.013  0.00  0.00    -0.055 A 
ATOM     28  C9  <0> d          -1.863  -1.321  -1.024  0.00  0.00     0.008 A 
ATOM     29  C8  <0> d          -3.159  -1.803  -1.012  0.00  0.00     0.011 A 
BRANCH  27  30
ATOM     30  C2  <0> d           0.002  -0.004   0.002  0.00  0.00     0.010 C 
ATOM     31  C1  <0> d          -0.019   1.526   0.010  0.00  0.00     0.015 C 
ATOM     32  C3  <0> d           0.742  -0.511   1.242  0.00  0.00     0.015 C 
ENDBRANCH  27  30
ENDBRANCH   1  24
TORSDOF 5
