REMARK  1 active torsions:
REMARK  status: ('A' for Active; 'I' for Inactive)
REMARK    1  A    between atoms: N1_9  and  C9_12 
ROOT
ATOM      1  C1  <0> d          -0.229   0.647  -2.338  0.00  0.00     0.001 C 
ATOM      2  C2  <0> d          -0.258   1.218  -0.904  0.00  0.00     0.001 C 
ATOM      3  C3  <0> d          -0.000  -0.012   0.004  0.00  0.00     0.020 C 
ATOM      4  C4  <0> d           1.012  -0.830  -0.815  0.00  0.00     0.050 A 
ATOM      5  C5  <0> d           0.594  -0.654  -2.277  0.00  0.00     0.020 C 
ATOM      6  C6  <0> d           2.443  -0.343  -0.574  0.00  0.00     0.122 A 
ATOM      7  C7  <0> d           3.140  -1.579  -0.037  0.00  0.00     0.228 A 
ATOM      8  O1  <0> d           4.305  -1.642   0.290  0.00  0.00    -0.273 OA
ATOM      9  N1  <0> d           2.261  -2.590   0.018  0.00  0.00    -0.283 N 
ATOM     10  C8  <0> d           1.024  -2.273  -0.400  0.00  0.00     0.236 A 
ATOM     11  O2  <0> d           0.076  -3.027  -0.436  0.00  0.00    -0.272 OA
ENDROOT
BRANCH   9  12
ATOM     12  C9  <0> d           2.619  -3.928   0.493  0.00  0.00     0.100 C 
ATOM     13  C15 <0> d           4.094  -4.201   0.182  0.00  0.00     0.059 C 
ATOM     14  C14 <0> d           4.270  -4.240  -1.344  0.00  0.00     0.188 C 
ATOM     15  C13 <0> d           3.537  -3.027  -1.962  0.00  0.00     0.035 C 
ATOM     16  N2  <0> d           3.497  -5.433  -1.832  0.00  0.00    -0.067 N 
ATOM     17  C12 <0> d           2.094  -3.517  -2.201  0.00  0.00     0.035 C 
ATOM     18  C11 <0> d           2.086  -4.982  -1.706  0.00  0.00     0.188 C 
ATOM     19  C10 <0> d           1.742  -4.970  -0.208  0.00  0.00     0.059 C 
ATOM     20  H22 <0> d           3.665  -6.241  -1.251  0.00  0.00     0.278 HD
ATOM     21  H23 <0> d           3.722  -5.632  -2.795  0.00  0.00     0.278 HD
ENDBRANCH   9  12
TORSDOF 1
