REMARK  3 active torsions:
REMARK  status: ('A' for Active; 'I' for Inactive)
REMARK    1  A    between atoms: C2_2  and  C3_3 
REMARK    2  A    between atoms: C5_5  and  C12_14 
REMARK    3  A    between atoms: C12_14  and  O2_16 
ROOT
ATOM      1  C3  <0> d           0.707  -0.490  -1.238  0.00  0.00    -0.031 A 
ATOM      2  C4  <0> d          -0.021  -0.817  -2.365  0.00  0.00     0.019 A 
ATOM      3  C5  <0> d           0.625  -1.263  -3.503  0.00  0.00    -0.029 A 
ATOM      4  C6  <0> d           2.003  -1.384  -3.517  0.00  0.00     0.019 A 
ATOM      5  C7  <0> d           2.737  -1.058  -2.394  0.00  0.00    -0.030 A 
ATOM      6  C8  <0> d           2.091  -0.604  -1.251  0.00  0.00     0.047 A 
ATOM      7  N1  <0> d           2.835  -0.269  -0.116  0.00  0.00    -0.326 N 
ATOM      8  C9  <0> d           4.153  -0.017  -0.214  0.00  0.00     0.222 C 
ATOM      9  O1  <0> d           4.787   0.258   0.782  0.00  0.00    -0.273 OA
ATOM     10  C10 <0> d           4.850  -0.071  -1.547  0.00  0.00     0.108 C 
ATOM     11  C11 <0> d           4.237  -1.188  -2.405  0.00  0.00     0.050 C 
ATOM     12  H9  <0> d           2.398  -0.217   0.749  0.00  0.00     0.169 HD
ENDROOT
BRANCH   3  13
ATOM     13  C12 <0> d          -0.173  -1.620  -4.730  0.00  0.00     0.147 C 
ATOM     14  C13 <0> d          -0.767  -3.020  -4.564  0.00  0.00     0.044 C 
BRANCH  13  15
ATOM     15  O2  <0> d          -1.229  -0.672  -4.903  0.00  0.00    -0.391 OA
ATOM     16  H17 <0> d          -1.786  -0.840  -5.676  0.00  0.00     0.210 HD
ENDBRANCH  13  15
ENDBRANCH   3  13
BRANCH   1  17
ATOM     17  C2  <0> d           0.002  -0.004   0.002  0.00  0.00     0.036 C 
ATOM     18  C1  <0> d          -0.019   1.526   0.010  0.00  0.00     0.010 C 
ENDBRANCH   1  17
TORSDOF 3
