REMARK  3 active torsions:
REMARK  status: ('A' for Active; 'I' for Inactive)
REMARK    1  A    between atoms: C7_7  and  N1_8 
REMARK       I    between atoms: N1_8  and  C8_9 
REMARK    2  A    between atoms: C8_9  and  C9_11 
REMARK       I    between atoms: C9_11  and  N2_13 
REMARK    3  A    between atoms: N2_13  and  C10_14 
ROOT
ATOM      1  C9  <0> d          -0.048   0.382   4.802  0.00  0.00     0.310 C 
ATOM      2  O2  <0> d           0.082   1.588   4.779  0.00  0.00    -0.262 OA
ATOM      3  N2  <0> d          -0.284  -0.249   5.969  0.00  0.00    -0.348 N 
ATOM      4  H8  <0> d          -0.388  -1.213   5.987  0.00  0.00     0.163 HD
ENDROOT
BRANCH   1   5
ATOM      5  C8  <0> d           0.054  -0.404   3.536  0.00  0.00     0.314 C 
ATOM      6  N1  <0> d           0.290   0.227   2.369  0.00  0.00    -0.318 N 
ATOM      7  H7  <0> d           0.443   1.185   2.357  0.00  0.00     0.169 HD
ATOM      8  O1  <0> d          -0.076  -1.610   3.558  0.00  0.00    -0.262 OA
BRANCH   6   9
ATOM      9  C7  <0> d           0.315  -0.499   1.175  0.00  0.00     0.047 A 
ATOM     10  C2  <0> d           1.332  -0.288   0.253  0.00  0.00    -0.035 A 
ATOM     11  C1  <0> d           2.411   0.724   0.538  0.00  0.00     0.050 C 
ATOM     12  C3  <0> d           1.356  -1.011  -0.924  0.00  0.00     0.009 A 
ATOM     13  C4  <0> d           0.366  -1.940  -1.187  0.00  0.00     0.001 A 
ATOM     14  C5  <0> d          -0.651  -2.148  -0.273  0.00  0.00     0.009 A 
ATOM     15  C6  <0> d          -0.682  -1.428   0.905  0.00  0.00    -0.035 A 
ATOM     16  C19 <0> d          -1.792  -1.655   1.899  0.00  0.00     0.050 C 
ENDBRANCH   6   9
ENDBRANCH   1   5
BRANCH   3  17
ATOM     17  C10 <0> d          -0.384   0.524   7.214  0.00  0.00     0.089 C 
ATOM     18  C14 <0> d          -1.232  -0.252   8.222  0.00  0.00     0.063 C 
ATOM     19  C13 <0> d          -1.306   0.490   9.552  0.00  0.00     0.121 C 
ATOM     20  N3  <0> d          -0.004   0.900  10.053  0.00  0.00    -0.059 N 
ATOM     21  C15 <0> d          -2.266   1.677   9.435  0.00  0.00     0.046 C 
ATOM     22  C16 <0> d          -1.917  -0.484  10.587  0.00  0.00     0.046 C 
ATOM     23  C12 <0> d           0.926   1.501   9.109  0.00  0.00     0.121 C 
ATOM     24  H12 <0> d           0.449   0.085  10.475  0.00  0.00     0.279 HD
ATOM     25  H30 <0> d          -0.147   1.556  10.825  0.00  0.00     0.279 HD
ATOM     26  C11 <0> d           1.015   0.709   7.805  0.00  0.00     0.063 C 
ATOM     27  C17 <0> d           0.586   2.962   8.817  0.00  0.00     0.046 C 
ATOM     28  C18 <0> d           2.330   1.477   9.756  0.00  0.00     0.046 C 
ENDBRANCH   3  17
TORSDOF 3
