REMARK  3 active torsions:
REMARK  status: ('A' for Active; 'I' for Inactive)
REMARK    1  A    between atoms: N1_4  and  C9_13 
REMARK    2  A    between atoms: C6_7  and  N4_12 
REMARK    3  A    between atoms: C9_13  and  C10_14 
ROOT
ATOM      1  C1  <0> d          -0.018   1.503   0.010  0.00  0.00     0.051 C 
ATOM      2  C2  <0> d           0.002  -0.004   0.002  0.00  0.00    -0.022 A 
ATOM      3  C3  <0> d           0.008  -0.799  -1.081  0.00  0.00     0.017 A 
ATOM      4  N1  <0> d           0.028  -2.113  -0.692  0.00  0.00    -0.330 N 
ATOM      5  C4  <0> d           0.035  -2.198   0.673  0.00  0.00     0.147 A 
ATOM      6  C5  <0> d           0.026  -0.882   1.171  0.00  0.00     0.063 A 
ATOM      7  C6  <0> d           0.036  -0.687   2.560  0.00  0.00     0.138 A 
ATOM      8  N2  <0> d           0.058  -1.759   3.347  0.00  0.00    -0.216 NA
ATOM      9  C7  <0> d           0.070  -2.978   2.838  0.00  0.00     0.126 A 
ATOM     10  N3  <0> d           0.052  -3.207   1.543  0.00  0.00    -0.215 NA
ATOM     11  C8  <0> d           0.095  -4.154   3.780  0.00  0.00     0.093 C 
ATOM     12  C14 <0> d          -0.005  -0.318  -2.509  0.00  0.00     0.069 C 
ENDROOT
BRANCH   4  13
ATOM     13  C9  <0> d           0.039  -3.259  -1.605  0.00  0.00     0.178 C 
BRANCH  13  14
ATOM     14  C10 <0> d           1.463  -3.633  -1.925  0.00  0.00     0.020 A 
ATOM     15  S1  <0> d           2.524  -3.060  -3.242  0.00  0.00    -0.077 SA
ATOM     16  C12 <0> d           3.888  -3.965  -2.849  0.00  0.00     0.071 A 
ATOM     17  N5  <0> d           3.506  -4.639  -1.794  0.00  0.00    -0.257 NA
ATOM     18  C13 <0> d           5.223  -3.997  -3.548  0.00  0.00     0.078 C 
ATOM     19  C11 <0> d           2.294  -4.503  -1.295  0.00  0.00     0.133 A 
ENDBRANCH  13  14
ENDBRANCH   4  13
BRANCH   7  20
ATOM     20  N4  <0> d           0.025   0.587   3.098  0.00  0.00    -0.383 N 
ATOM     21  H7  <0> d           0.009   1.361   2.512  0.00  0.00     0.157 HD
ATOM     22  H8  <0> d           0.032   0.708   4.060  0.00  0.00     0.157 HD
ENDBRANCH   7  20
TORSDOF 3
