REMARK  6 active torsions:
REMARK  status: ('A' for Active; 'I' for Inactive)
REMARK    1  A    between atoms: C10_11  and  C11_12 
REMARK    2  A    between atoms: C11_12  and  C12_13 
REMARK    3  A    between atoms: C12_13  and  O3_15 
REMARK    4  A    between atoms: O3_15  and  C13_16 
REMARK    5  A    between atoms: C13_16  and  C14_17 
REMARK       I    between atoms: C14_17  and  N1_19 
REMARK    6  A    between atoms: N1_19  and  C15_20 
ROOT
ATOM      1  C12 <0> d          -1.707   2.541   1.440  0.00  0.00     0.263 C 
ATOM      2  O2  <0> d          -1.115   2.008   2.349  0.00  0.00    -0.265 OA
ENDROOT
BRANCH   1   3
ATOM      3  C11 <0> d          -1.235   2.352   0.021  0.00  0.00     0.152 C 
BRANCH   3   4
ATOM      4  C10 <0> d          -0.018   1.464   0.010  0.00  0.00    -0.013 A 
ATOM      5  C4  <0> d           0.002  -0.004   0.002  0.00  0.00     0.007 A 
ATOM      6  C3  <0> d          -0.981  -0.992   0.006  0.00  0.00     0.022 A 
ATOM      7  C5  <0> d           1.361  -0.361  -0.013  0.00  0.00     0.086 A 
ATOM      8  C2  <0> d          -0.613  -2.319  -0.005  0.00  0.00    -0.055 A 
ATOM      9  C1  <0> d          -1.671  -3.392  -0.001  0.00  0.00     0.049 C 
ATOM     10  C7  <0> d           0.729  -2.672  -0.020  0.00  0.00    -0.053 A 
ATOM     11  C6  <0> d           1.711  -1.705  -0.024  0.00  0.00     0.045 A 
ATOM     12  C8  <0> d           1.116  -4.129  -0.031  0.00  0.00     0.049 C 
ATOM     13  O1  <0> d           2.075   0.783  -0.014  0.00  0.00    -0.321 OA
ATOM     14  C9  <0> d           1.264   1.855  -0.000  0.00  0.00     0.151 A 
ENDBRANCH   3   4
ENDBRANCH   1   3
BRANCH   1  15
ATOM     15  O3  <0> d          -2.784   3.300   1.694  0.00  0.00    -0.312 OA
BRANCH  15  16
ATOM     16  C13 <0> d          -3.181   3.437   3.083  0.00  0.00     0.281 C 
BRANCH  16  17
ATOM     17  C14 <0> d          -4.400   4.319   3.173  0.00  0.00     0.242 C 
ATOM     18  O4  <0> d          -4.886   4.785   2.165  0.00  0.00    -0.271 OA
ATOM     19  N1  <0> d          -4.950   4.588   4.373  0.00  0.00    -0.354 N 
ATOM     20  H15 <0> d          -4.561   4.215   5.180  0.00  0.00     0.162 HD
BRANCH  19  21
ATOM     21  C15 <0> d          -6.135   5.445   4.460  0.00  0.00     0.099 C 
ATOM     22  C18 <0> d          -6.930   5.113   5.756  0.00  0.00     0.165 C 
ATOM     23  S1  <0> d          -7.934   6.647   5.938  0.00  0.00     0.146 S 
ATOM     24  C17 <0> d          -6.910   7.802   4.938  0.00  0.00     0.142 C 
ATOM     25  O5  <0> d          -9.185   6.460   5.292  0.00  0.00    -0.228 OA
ATOM     26  O6  <0> d          -7.904   7.060   7.298  0.00  0.00    -0.228 OA
ATOM     27  C16 <0> d          -5.706   6.920   4.528  0.00  0.00     0.041 C 
ENDBRANCH  19  21
ENDBRANCH  16  17
ENDBRANCH  15  16
ENDBRANCH   1  15
TORSDOF 6
