REMARK  4 active torsions:
REMARK  status: ('A' for Active; 'I' for Inactive)
REMARK    1  A    between atoms: C16_18  and  O6_28 
REMARK    2  A    between atoms: C19_21  and  C20_23 
REMARK    3  A    between atoms: C20_23  and  C21_25 
REMARK    4  A    between atoms: C21_25  and  O5_26 
ROOT
ATOM      1  C1  <0> d          -8.049   0.803   4.954  0.00  0.00     0.078 C 
ATOM      2  C2  <0> d          -6.807   1.648   5.258  0.00  0.00     0.159 C 
ATOM      3  O1  <0> d          -6.658   2.680   4.263  0.00  0.00    -0.347 OA
ATOM      4  C3  <0> d          -5.256   3.010   4.288  0.00  0.00     0.168 C 
ATOM      5  C4  <0> d          -4.791   3.341   2.849  0.00  0.00     0.041 C 
ATOM      6  C5  <0> d          -3.621   2.395   2.603  0.00  0.00     0.007 C 
ATOM      7  C6  <0> d          -3.249   2.081   1.184  0.00  0.00     0.035 C 
ATOM      8  C7  <0> d          -2.911   3.329   0.374  0.00  0.00     0.013 C 
ATOM      9  C8  <0> d          -1.768   4.069   1.067  0.00  0.00     0.036 C 
ATOM     10  C9  <0> d          -0.611   3.134   1.272  0.00  0.00    -0.061 C 
ATOM     11  C10 <0> d           0.604   3.686   1.486  0.00  0.00     0.058 C 
ATOM     12  C11 <0> d           1.704   2.728   1.781  0.00  0.00     0.172 C 
ATOM     13  O2  <0> d           2.830   2.859   1.346  0.00  0.00    -0.289 OA
ATOM     14  C12 <0> d           1.302   1.596   2.659  0.00  0.00     0.052 C 
ATOM     15  C13 <0> d           0.062   1.102   2.452  0.00  0.00    -0.006 C 
ATOM     16  C14 <0> d          -0.737   1.643   1.296  0.00  0.00     0.036 C 
ATOM     17  C15 <0> d          -2.113   1.076   1.162  0.00  0.00     0.147 C 
ATOM     18  C16 <0> d          -2.408  -0.152   1.992  0.00  0.00     0.160 C 
ATOM     19  C17 <0> d          -2.844   0.190   3.421  0.00  0.00     0.048 C 
ATOM     20  C18 <0> d          -4.046   1.112   3.351  0.00  0.00     0.004 C 
ATOM     21  C19 <0> d          -4.558   1.672   4.686  0.00  0.00     0.160 C 
ATOM     22  O3  <0> d          -5.626   0.836   5.170  0.00  0.00    -0.334 OA
ATOM     23  C22 <0> d          -5.207   0.408   2.638  0.00  0.00     0.019 C 
ATOM     24  F1  <0> d          -2.144   0.593  -0.155  0.00  0.00    -0.238 F 
ATOM     25  C23 <0> d          -0.008   1.159   0.031  0.00  0.00     0.028 C 
ATOM     26  C24 <0> d          -6.933   2.264   6.652  0.00  0.00     0.078 C 
ENDROOT
BRANCH  21  27
ATOM     27  C20 <0> d          -3.472   1.864   5.713  0.00  0.00     0.188 C 
ATOM     28  O4  <0> d          -2.874   2.912   5.771  0.00  0.00    -0.292 OA
BRANCH  27  29
ATOM     29  C21 <0> d          -3.132   0.750   6.669  0.00  0.00     0.245 C 
BRANCH  29  30
ATOM     30  O5  <0> d          -2.163   1.210   7.613  0.00  0.00    -0.393 OA
ATOM     31  H21 <0> d          -1.897   0.543   8.260  0.00  0.00     0.209 HD
ENDBRANCH  29  30
ENDBRANCH  27  29
ENDBRANCH  21  27
BRANCH  18  32
ATOM     32  O6  <0> d          -1.307  -1.052   2.004  0.00  0.00    -0.392 OA
ATOM     33  H25 <0> d          -1.458  -1.851   2.526  0.00  0.00     0.210 HD
ENDBRANCH  18  32
TORSDOF 4
