REMARK  3 active torsions:
REMARK  status: ('A' for Active; 'I' for Inactive)
REMARK    1  A    between atoms: C2_2  and  N1_9 
REMARK    2  A    between atoms: N1_9  and  S1_10 
REMARK    3  A    between atoms: S1_10  and  C7_13 
ROOT
ATOM      1  S1  <0> d          -1.501   3.271   1.126  0.00  0.00     0.257 S 
ATOM      2  O1  <0> d          -2.861   3.677   1.057  0.00  0.00    -0.203 OA
ATOM      3  O2  <0> d          -0.988   2.653   2.298  0.00  0.00    -0.203 OA
ENDROOT
BRANCH   1   4
ATOM      4  N1  <0> d          -1.343   2.124  -0.059  0.00  0.00    -0.164 NA
BRANCH   4   5
ATOM      5  C2  <0> d          -0.115   1.491  -0.259  0.00  0.00     0.075 A 
ATOM      6  C1  <0> d           0.316   0.513   0.629  0.00  0.00     0.074 A 
ATOM      7  C6  <0> d           1.531  -0.117   0.426  0.00  0.00     0.121 A 
ATOM      8  C5  <0> d           2.317   0.227  -0.661  0.00  0.00     0.084 A 
ATOM      9  F1  <0> d           1.950  -1.068   1.288  0.00  0.00    -0.206 F 
ATOM     10  C4  <0> d           1.889   1.201  -1.547  0.00  0.00     0.121 A 
ATOM     11  C3  <0> d           0.676   1.834  -1.348  0.00  0.00     0.074 A 
ATOM     12  F2  <0> d           2.658   1.534  -2.607  0.00  0.00    -0.206 F 
ENDBRANCH   4   5
ENDBRANCH   1   4
BRANCH   1  13
ATOM     13  C7  <0> d          -0.416   4.629   0.608  0.00  0.00     0.157 C 
ATOM     14  C11 <0> d          -0.869   5.153  -0.757  0.00  0.00     0.254 C 
ATOM     15  N2  <0> d          -0.004   6.266  -1.167  0.00  0.00    -0.074 N 
ATOM     16  C10 <0> d          -0.095   7.386  -0.220  0.00  0.00     0.232 C 
ATOM     17  H11 <0> d          -0.317   6.605  -2.165  0.00  0.00     0.277 HD
ATOM     18  H14 <0> d           1.034   5.906  -1.210  0.00  0.00     0.277 HD
ATOM     19  C9  <0> d           0.382   6.928   1.160  0.00  0.00     0.029 C 
ATOM     20  C8  <0> d          -0.490   5.762   1.635  0.00  0.00     0.025 C 
ENDBRANCH   1  13
TORSDOF 3
