REMARK  3 active torsions:
REMARK  status: ('A' for Active; 'I' for Inactive)
REMARK    1  A    between atoms: C5_6  and  C6_7 
REMARK       I    between atoms: C6_7  and  N2_9 
REMARK    2  A    between atoms: N2_9  and  N3_10 
REMARK    3  A    between atoms: C7_11  and  C8_12 
ROOT
ATOM      1  C8  <0> d          -3.654  -4.937   0.012  0.00  0.00     0.144 A 
ATOM      2  C9  <0> d          -3.702  -5.730   1.303  0.00  0.00     0.006 A 
ATOM      3  C10 <0> d          -3.808  -7.082   1.203  0.00  0.00    -0.009 A 
ATOM      4  C11 <0> d          -3.861  -7.919   2.403  0.00  0.00     0.053 A 
ATOM      5  C12 <0> d          -3.966  -9.267   2.269  0.00  0.00     0.105 A 
ATOM      6  C13 <0> d          -4.026  -9.872   0.995  0.00  0.00     0.107 A 
ATOM      7  C14 <0> d          -3.981  -9.128  -0.165  0.00  0.00     0.070 A 
ATOM      8  C15 <0> d          -3.873  -7.732  -0.119  0.00  0.00     0.047 A 
ATOM      9  N4  <0> d          -3.831  -7.030  -1.254  0.00  0.00    -0.325 N 
ATOM     10  C16 <0> d          -3.728  -5.714  -1.283  0.00  0.00     0.235 A 
ATOM     11  O2  <0> d          -3.693  -5.128  -2.349  0.00  0.00    -0.272 OA
ATOM     12  O3  <0> d          -4.128 -11.221   1.169  0.00  0.00    -0.323 OA
ATOM     13  C17 <0> d          -3.711 -11.471   2.523  0.00  0.00     0.352 C 
ATOM     14  O4  <0> d          -4.030 -10.251   3.216  0.00  0.00    -0.323 OA
ATOM     15  H13 <0> d          -3.877  -7.509  -2.096  0.00  0.00     0.169 HD
ENDROOT
BRANCH   1  16
ATOM     16  C7  <0> d          -2.372  -4.145   0.003  0.00  0.00     0.129 C 
ATOM     17  N3  <0> d          -2.410  -2.866   0.011  0.00  0.00    -0.187 NA
BRANCH  17  18
ATOM     18  N2  <0> d          -1.218  -2.130   0.003  0.00  0.00    -0.243 N 
ATOM     19  C6  <0> d          -1.258  -0.782   0.010  0.00  0.00     0.271 C 
ATOM     20  O1  <0> d          -2.328  -0.206   0.024  0.00  0.00    -0.266 OA
ATOM     21  H6  <0> d          -0.364  -2.589  -0.008  0.00  0.00     0.192 HD
BRANCH  19  22
ATOM     22  C5  <0> d           0.002  -0.004   0.002  0.00  0.00     0.036 A 
ATOM     23  C1  <0> d          -0.017   1.394   0.010  0.00  0.00     0.036 A 
ATOM     24  C2  <0> d           1.182   2.080   0.002  0.00  0.00     0.117 A 
ATOM     25  N1  <0> d           2.331   1.435  -0.013  0.00  0.00    -0.273 NA
ATOM     26  C3  <0> d           2.394   0.118  -0.021  0.00  0.00     0.117 A 
ATOM     27  C4  <0> d           1.244  -0.647  -0.014  0.00  0.00     0.036 A 
ENDBRANCH  19  22
ENDBRANCH  17  18
ENDBRANCH   1  16
TORSDOF 3
