REMARK  3 active torsions:
REMARK  status: ('A' for Active; 'I' for Inactive)
REMARK    1  A    between atoms: C5_7  and  N3_11 
REMARK       I    between atoms: N3_11  and  C9_12 
REMARK    2  A    between atoms: C9_12  and  C10_14 
REMARK    3  A    between atoms: N5_18  and  C13_19 
ROOT
ATOM      1  N3  <0> d          -1.127  -3.883  -0.617  0.00  0.00    -0.347 N 
ATOM      2  C9  <0> d          -0.673  -4.863   0.189  0.00  0.00     0.270 C 
ATOM      3  O1  <0> d           0.466  -4.822   0.614  0.00  0.00    -0.266 OA
ATOM      4  H12 <0> d          -2.010  -3.951  -1.014  0.00  0.00     0.163 HD
ENDROOT
BRANCH   2   5
ATOM      5  C10 <0> d          -1.553  -5.979   0.553  0.00  0.00     0.126 A 
ATOM      6  N5  <0> d          -1.257  -7.023   1.412  0.00  0.00    -0.300 N 
ATOM      7  C12 <0> d          -2.346  -7.815   1.460  0.00  0.00     0.215 A 
ATOM      8  N4  <0> d          -3.271  -7.319   0.678  0.00  0.00    -0.253 NA
ATOM      9  C11 <0> d          -2.826  -6.199   0.107  0.00  0.00     0.153 A 
BRANCH   6  10
ATOM     10  C13 <0> d          -0.054  -7.217   2.104  0.00  0.00     0.040 A 
ATOM     11  C18 <0> d          -0.058  -7.335   3.487  0.00  0.00     0.030 A 
ATOM     12  C17 <0> d           1.129  -7.532   4.165  0.00  0.00     0.002 A 
ATOM     13  C16 <0> d           2.322  -7.601   3.469  0.00  0.00     0.000 A 
ATOM     14  C15 <0> d           2.329  -7.479   2.092  0.00  0.00     0.002 A 
ATOM     15  C14 <0> d           1.145  -7.288   1.407  0.00  0.00     0.030 A 
ENDBRANCH   6  10
ENDBRANCH   2   5
BRANCH   1  16
ATOM     16  C5  <0> d          -0.288  -2.714  -0.893  0.00  0.00     0.121 C 
ATOM     17  C3  <0> d          -0.463  -1.693   0.203  0.00  0.00     0.008 A 
ATOM     18  C2  <0> d          -0.607  -0.360  -0.014  0.00  0.00     0.040 A 
ATOM     19  C4  <0> d          -0.509  -1.912   1.578  0.00  0.00     0.150 A 
ATOM     20  N1  <0> d          -0.741   0.239   1.180  0.00  0.00    -0.278 N 
ATOM     21  C8  <0> d          -0.607   0.279  -1.380  0.00  0.00     0.059 C 
ATOM     22  C1  <0> d          -0.924   1.675   1.410  0.00  0.00     0.179 C 
ATOM     23  N2  <0> d          -0.670  -0.753   2.169  0.00  0.00    -0.184 NA
ATOM     24  C7  <0> d          -0.017  -0.721  -2.382  0.00  0.00     0.008 C 
ATOM     25  C6  <0> d          -0.712  -2.076  -2.222  0.00  0.00     0.030 C 
ENDBRANCH   1  16
TORSDOF 3
