REMARK  4 active torsions:
REMARK  status: ('A' for Active; 'I' for Inactive)
REMARK    1  A    between atoms: C6_7  and  C9_11 
REMARK    2  A    between atoms: C10_12  and  N4_26 
REMARK    3  A    between atoms: N3_13  and  C13_17 
REMARK    4  A    between atoms: C16_20  and  C19_23 
ROOT
ATOM      1  C9  <0> d           1.324  -5.167   1.798  0.00  0.00     0.075 A 
ATOM      2  C10 <0> d           1.360  -6.402   2.400  0.00  0.00     0.115 A 
ATOM      3  N3  <0> d           2.615  -6.710   2.845  0.00  0.00    -0.326 N 
ATOM      4  C11 <0> d           3.493  -5.579   2.510  0.00  0.00     0.214 A 
ATOM      5  C12 <0> d           2.588  -4.586   1.812  0.00  0.00     0.181 A 
ATOM      6  O1  <0> d           2.902  -3.502   1.358  0.00  0.00    -0.291 OA
ENDROOT
BRANCH   1   7
ATOM      7  C6  <0> d           0.093  -4.534   1.202  0.00  0.00     0.224 A 
ATOM      8  N1  <0> d           0.312  -4.249  -0.222  0.00  0.00    -0.363 N 
ATOM      9  C5  <0> d           0.189  -2.963  -0.386  0.00  0.00     0.056 A 
ATOM     10  H16 <0> d           0.510  -4.899  -0.913  0.00  0.00     0.162 HD
ATOM     11  C4  <0> d           0.295  -2.092  -1.564  0.00  0.00     0.032 A 
ATOM     12  C7  <0> d          -0.118  -2.326   0.924  0.00  0.00     0.057 A 
ATOM     13  C3  <0> d           0.114  -0.763  -1.427  0.00  0.00     0.009 A 
ATOM     14  C2  <0> d          -0.177  -0.161  -0.190  0.00  0.00    -0.060 A 
ATOM     15  C1  <0> d          -0.363   1.333  -0.139  0.00  0.00     0.048 C 
ATOM     16  C8  <0> d          -0.290  -0.867   0.953  0.00  0.00     0.038 A 
ATOM     17  N2  <0> d          -0.173  -3.242   1.847  0.00  0.00    -0.363 N 
ATOM     18  H17 <0> d          -0.357  -3.098   2.788  0.00  0.00     0.162 HD
ENDBRANCH   1   7
BRANCH   2  19
ATOM     19  N4  <0> d           0.273  -7.222   2.536  0.00  0.00    -0.385 N 
ATOM     20  H14 <0> d          -0.607  -6.909   2.273  0.00  0.00     0.157 HD
ATOM     21  H15 <0> d           0.382  -8.117   2.895  0.00  0.00     0.157 HD
ENDBRANCH   2  19
BRANCH   3  22
ATOM     22  C13 <0> d           2.992  -7.881   3.497  0.00  0.00     0.036 A 
ATOM     23  C18 <0> d           2.501  -8.155   4.771  0.00  0.00     0.031 A 
ATOM     24  C17 <0> d           2.867  -9.309   5.415  0.00  0.00     0.020 A 
ATOM     25  C16 <0> d           3.743 -10.206   4.794  0.00  0.00     0.041 A 
ATOM     26  C15 <0> d           4.238  -9.925   3.516  0.00  0.00     0.020 A 
ATOM     27  C14 <0> d           3.864  -8.771   2.877  0.00  0.00     0.031 A 
BRANCH  25  28
ATOM     28  C19 <0> d           4.142 -11.444   5.484  0.00  0.00     0.209 C 
ATOM     29  O2  <0> d           4.907 -12.228   4.940  0.00  0.00    -0.644 OA
ATOM     30  O3  <0> d           3.708 -11.689   6.601  0.00  0.00    -0.644 OA
ENDBRANCH  25  28
ENDBRANCH   3  22
TORSDOF 4
