REMARK  6 active torsions:
REMARK  status: ('A' for Active; 'I' for Inactive)
REMARK    1  A    between atoms: C2_2  and  N1_5 
REMARK    2  A    between atoms: N1_5  and  C5_6 
REMARK    3  A    between atoms: C5_6  and  C6_7 
REMARK    4  A    between atoms: C6_7  and  C11_12 
REMARK    5  A    between atoms: C11_12  and  N2_13 
REMARK    6  A    between atoms: N2_13  and  C13_15 
ROOT
ATOM      1  C6  <0> d           3.379  -0.423  -3.166  0.00  0.00     0.007 C 
ATOM      2  C7  <0> d           3.464  -1.953  -3.347  0.00  0.00     0.013 C 
ATOM      3  C8  <0> d           2.653  -2.229  -4.637  0.00  0.00     0.001 C 
ATOM      4  C9  <0> d           3.021  -1.022  -5.536  0.00  0.00     0.001 C 
ATOM      5  C10 <0> d           3.097   0.169  -4.558  0.00  0.00     0.013 C 
ENDROOT
BRANCH   1   6
ATOM      6  C5  <0> d           2.241  -0.071  -2.206  0.00  0.00     0.244 C 
BRANCH   6   7
ATOM      7  N1  <0> d           0.977  -0.608  -2.728  0.00  0.00    -0.067 N 
ATOM      8  H11 <0> d           1.047  -1.611  -2.813  0.00  0.00     0.278 HD
ATOM      9  H33 <0> d           0.789  -0.207  -3.634  0.00  0.00     0.278 HD
BRANCH   7  10
ATOM     10  C2  <0> d          -0.116  -0.270  -1.806  0.00  0.00     0.115 C 
ATOM     11  C1  <0> d          -0.223   1.250  -1.678  0.00  0.00     0.045 C 
ATOM     12  C3  <0> d           0.169  -0.880  -0.432  0.00  0.00     0.045 C 
ATOM     13  C4  <0> d          -1.432  -0.830  -2.349  0.00  0.00     0.045 C 
ENDBRANCH   7  10
ENDBRANCH   6   7
ENDBRANCH   1   6
BRANCH   1  14
ATOM     14  C11 <0> d           4.705   0.116  -2.626  0.00  0.00     0.246 C 
BRANCH  14  15
ATOM     15  N2  <0> d           4.900  -0.354  -1.248  0.00  0.00    -0.069 N 
ATOM     16  C12 <0> d           5.112  -1.808  -1.251  0.00  0.00     0.270 C 
ATOM     17  H34 <0> d           4.082  -0.134  -0.699  0.00  0.00     0.280 HD
BRANCH  15  18
ATOM     18  C13 <0> d           6.073   0.311  -0.665  0.00  0.00     0.202 C 
ATOM     19  C16 <0> d           5.856   1.851  -0.659  0.00  0.00     0.173 C 
ATOM     20  S1  <0> d           7.090   2.361   0.610  0.00  0.00     0.146 S 
ATOM     21  C15 <0> d           7.283   0.767   1.506  0.00  0.00     0.142 C 
ATOM     22  O1  <0> d           6.492   3.312   1.480  0.00  0.00    -0.228 OA
ATOM     23  O2  <0> d           8.316   2.679  -0.037  0.00  0.00    -0.228 OA
ATOM     24  C14 <0> d           6.263  -0.151   0.789  0.00  0.00     0.049 C 
ENDBRANCH  15  18
ENDBRANCH  14  15
ENDBRANCH   1  14
TORSDOF 6
