REMARK  6 active torsions:
REMARK  status: ('A' for Active; 'I' for Inactive)
REMARK    1  A    between atoms: N1_6  and  C6_7 
REMARK    2  A    between atoms: C10_11  and  N2_13 
REMARK       I    between atoms: N2_13  and  C12_14 
REMARK    3  A    between atoms: C12_14  and  C13_16 
REMARK       I    between atoms: C13_16  and  N3_18 
REMARK    4  A    between atoms: N3_18  and  C14_19 
REMARK    5  A    between atoms: C14_19  and  C15_20 
REMARK    6  A    between atoms: C18_23  and  N5_26 
ROOT
ATOM      1  N2  <0> d          -2.117  -0.516   5.423  0.00  0.00    -0.319 N 
ATOM      2  C12 <0> d          -2.063  -0.183   6.728  0.00  0.00     0.313 C 
ATOM      3  O1  <0> d          -1.116   0.445   7.156  0.00  0.00    -0.262 OA
ATOM      4  H10 <0> d          -2.903  -0.959   5.068  0.00  0.00     0.169 HD
ENDROOT
BRANCH   2   5
ATOM      5  C13 <0> d          -3.167  -0.587   7.649  0.00  0.00     0.309 C 
ATOM      6  O2  <0> d          -4.114  -1.215   7.221  0.00  0.00    -0.262 OA
ATOM      7  N3  <0> d          -3.113  -0.255   8.953  0.00  0.00    -0.349 N 
ATOM      8  H11 <0> d          -2.357   0.247   9.295  0.00  0.00     0.163 HD
BRANCH   7   9
ATOM      9  C14 <0> d          -4.197  -0.651   9.856  0.00  0.00     0.163 C 
BRANCH   9  10
ATOM     10  C15 <0> d          -3.896  -0.160  11.249  0.00  0.00    -0.025 A 
ATOM     11  C19 <0> d          -4.326   1.086  11.657  0.00  0.00     0.098 A 
ATOM     12  N4  <0> d          -4.073   1.524  12.876  0.00  0.00    -0.352 N 
ATOM     13  C18 <0> d          -3.391   0.797  13.747  0.00  0.00     0.102 A 
ATOM     14  H26 <0> d          -4.390   2.402  13.138  0.00  0.00     0.166 HD
ATOM     15  C17 <0> d          -2.922  -0.467  13.401  0.00  0.00     0.049 A 
ATOM     16  C16 <0> d          -3.178  -0.955  12.133  0.00  0.00     0.014 A 
BRANCH  13  17
ATOM     17  N5  <0> d          -3.143   1.299  15.019  0.00  0.00    -0.376 N 
ATOM     18  C20 <0> d          -2.298   0.549  15.951  0.00  0.00     0.150 C 
ATOM     19  C21 <0> d          -3.726   2.580  15.427  0.00  0.00     0.150 C 
ENDBRANCH  13  17
ENDBRANCH   9  10
ENDBRANCH   7   9
ENDBRANCH   2   5
BRANCH   1  20
ATOM     20  C10 <0> d          -1.040  -0.223   4.582  0.00  0.00     0.037 A 
ATOM     21  C9  <0> d          -0.302   0.938   4.777  0.00  0.00     0.029 A 
ATOM     22  C8  <0> d           0.763   1.228   3.945  0.00  0.00     0.004 A 
ATOM     23  C7  <0> d           1.096   0.366   2.919  0.00  0.00     0.030 A 
ATOM     24  C6  <0> d           0.362  -0.796   2.719  0.00  0.00     0.041 A 
ATOM     25  C11 <0> d          -0.711  -1.088   3.548  0.00  0.00     0.059 A 
BRANCH  24  26
ATOM     26  N1  <0> d           0.702  -1.671   1.677  0.00  0.00    -0.320 N 
ATOM     27  C2  <0> d           0.633  -1.385   0.343  0.00  0.00     0.013 A 
ATOM     28  C1  <0> d           0.181  -0.079  -0.258  0.00  0.00     0.068 C 
ATOM     29  C3  <0> d           1.046  -2.470  -0.342  0.00  0.00     0.027 A 
ATOM     30  C4  <0> d           1.375  -3.465   0.600  0.00  0.00     0.027 A 
ATOM     31  C5  <0> d           1.152  -2.951   1.827  0.00  0.00     0.013 A 
ATOM     32  C22 <0> d           1.369  -3.664   3.136  0.00  0.00     0.068 C 
ENDBRANCH  24  26
ENDBRANCH   1  20
TORSDOF 6
