REMARK  4 active torsions:
REMARK  status: ('A' for Active; 'I' for Inactive)
REMARK    1  A    between atoms: N1_4  and  S1_9 
REMARK    2  A    between atoms: S1_9  and  C7_12 
REMARK    3  A    between atoms: C10_15  and  C13_18 
REMARK       I    between atoms: C13_18  and  N2_20 
REMARK    4  A    between atoms: N2_20  and  C14_21 
ROOT
ATOM      1  C7  <0> d           0.040  -2.773  -0.013  0.00  0.00     0.079 A 
ATOM      2  C8  <0> d          -1.170  -2.101   0.002  0.00  0.00     0.026 A 
ATOM      3  C9  <0> d          -1.195  -0.722   0.010  0.00  0.00     0.018 A 
ATOM      4  C10 <0> d           0.002  -0.004   0.002  0.00  0.00     0.032 A 
ATOM      5  C11 <0> d           1.218  -0.689  -0.019  0.00  0.00     0.018 A 
ATOM      6  C12 <0> d           1.230  -2.068  -0.021  0.00  0.00     0.026 A 
ENDROOT
BRANCH   4   7
ATOM      7  C13 <0> d          -0.018   1.474   0.010  0.00  0.00     0.257 C 
ATOM      8  O4  <0> d          -1.079   2.067   0.018  0.00  0.00    -0.267 OA
ATOM      9  N2  <0> d           1.140   2.163   0.003  0.00  0.00    -0.301 N 
ATOM     10  H17 <0> d           1.986   1.690  -0.008  0.00  0.00     0.171 HD
BRANCH   9  11
ATOM     11  C14 <0> d           1.121   3.550   0.010  0.00  0.00     0.184 A 
ATOM     12  O5  <0> d           0.036   4.343   0.025  0.00  0.00    -0.194 OA
ATOM     13  N3  <0> d           0.344   5.513   0.029  0.00  0.00    -0.130 NA
ATOM     14  C16 <0> d           1.637   5.673   0.017  0.00  0.00     0.072 A 
ATOM     15  C15 <0> d           2.196   4.382   0.010  0.00  0.00     0.022 A 
ATOM     16  C17 <0> d           2.749   6.696   0.012  0.00  0.00     0.062 C 
ATOM     17  C19 <0> d           3.699   4.478   0.004  0.00  0.00     0.045 C 
ATOM     18  C18 <0> d           4.015   5.923   0.447  0.00  0.00     0.011 C 
ENDBRANCH   9  11
ENDBRANCH   4   7
BRANCH   1  19
ATOM     19  S1  <0> d           0.064  -4.535  -0.023  0.00  0.00     0.261 S 
ATOM     20  O2  <0> d           1.319  -4.927   0.514  0.00  0.00    -0.200 OA
ATOM     21  O3  <0> d          -1.171  -4.961   0.537  0.00  0.00    -0.200 OA
BRANCH  19  22
ATOM     22  N1  <0> d           0.055  -5.016  -1.608  0.00  0.00    -0.302 N 
ATOM     23  C3  <0> d           1.313  -5.218  -2.345  0.00  0.00     0.167 C 
ATOM     24  C2  <0> d           1.229  -4.447  -3.667  0.00  0.00     0.136 C 
ATOM     25  C1  <0> d           1.217  -2.944  -3.382  0.00  0.00     0.041 C 
ATOM     26  O1  <0> d           0.027  -4.813  -4.349  0.00  0.00    -0.378 OA
ATOM     27  C5  <0> d          -1.171  -4.480  -3.644  0.00  0.00     0.136 C 
ATOM     28  C4  <0> d          -1.210  -5.258  -2.319  0.00  0.00     0.167 C 
ATOM     29  C6  <0> d          -2.386  -4.860  -4.494  0.00  0.00     0.041 C 
ENDBRANCH  19  22
ENDBRANCH   1  19
TORSDOF 4
