REMARK  7 active torsions:
REMARK  status: ('A' for Active; 'I' for Inactive)
REMARK    1  A    between atoms: C2_2  and  C3_3 
REMARK    2  A    between atoms: C2_2  and  O2_9 
REMARK       I    between atoms: C3_3  and  N1_5 
REMARK    3  A    between atoms: N1_5  and  C4_6 
REMARK    4  A    between atoms: C4_6  and  C5_7 
REMARK    5  A    between atoms: O2_9  and  C7_10 
REMARK    6  A    between atoms: C7_10  and  C8_12 
REMARK    7  A    between atoms: C13_17  and  N2_18 
ROOT
ATOM      1  C7  <0> d          -1.893  -0.739   1.215  0.00  0.00     0.296 C 
ATOM      2  O3  <0> d          -1.268  -0.499   2.229  0.00  0.00    -0.259 OA
ENDROOT
BRANCH   1   3
ATOM      3  O2  <0> d          -1.322  -0.548   0.009  0.00  0.00    -0.303 OA
BRANCH   3   4
ATOM      4  C2  <0> d           0.022  -0.063  -0.002  0.00  0.00     0.220 C 
ATOM      5  C1  <0> d           0.012   1.467  -0.024  0.00  0.00     0.050 C 
BRANCH   4   6
ATOM      6  C3  <0> d           0.732  -0.578  -1.227  0.00  0.00     0.247 C 
ATOM      7  O1  <0> d           0.121  -1.215  -2.059  0.00  0.00    -0.271 OA
ATOM      8  N1  <0> d           2.046  -0.331  -1.399  0.00  0.00    -0.355 N 
ATOM      9  H5  <0> d           2.535   0.178  -0.733  0.00  0.00     0.162 HD
BRANCH   8  10
ATOM     10  C4  <0> d           2.736  -0.832  -2.590  0.00  0.00     0.149 C 
BRANCH  10  11
ATOM     11  C5  <0> d           4.186  -0.422  -2.540  0.00  0.00    -0.018 C 
ATOM     12  C6  <0> d           5.126  -1.329  -2.637  0.00  0.00     0.008 C 
ENDBRANCH  10  11
ENDBRANCH   8  10
ENDBRANCH   4   6
ENDBRANCH   3   4
ENDBRANCH   1   3
BRANCH   1  13
ATOM     13  C8  <0> d          -3.276  -1.237   1.304  0.00  0.00     0.069 A 
ATOM     14  C13 <0> d          -3.832  -1.560   2.551  0.00  0.00     0.064 A 
ATOM     15  C12 <0> d          -5.141  -2.024   2.623  0.00  0.00     0.062 A 
ATOM     16  C11 <0> d          -5.884  -2.176   1.470  0.00  0.00     0.050 A 
ATOM     17 Cl1  <0> d          -5.839  -2.418   4.162  0.00  0.00    -0.082 Cl
ATOM     18  C10 <0> d          -5.336  -1.863   0.234  0.00  0.00     0.036 A 
ATOM     19  C9  <0> d          -4.042  -1.397   0.145  0.00  0.00     0.044 A 
ATOM     20 Cl2  <0> d          -6.284  -2.061  -1.206  0.00  0.00    -0.084 Cl
BRANCH  14  21
ATOM     21  N2  <0> d          -3.080  -1.412   3.710  0.00  0.00    -0.397 N 
ATOM     22  H13 <0> d          -2.198  -1.009   3.668  0.00  0.00     0.156 HD
ATOM     23  H14 <0> d          -3.436  -1.710   4.561  0.00  0.00     0.156 HD
ENDBRANCH  14  21
ENDBRANCH   1  13
TORSDOF 7
