REMARK  5 active torsions:
REMARK  status: ('A' for Active; 'I' for Inactive)
REMARK    1  A    between atoms: C2_2  and  C3_3 
REMARK    2  A    between atoms: C3_3  and  C4_4 
REMARK    3  A    between atoms: C3_3  and  N1_12 
REMARK    4  A    between atoms: C9_9  and  O1_10 
REMARK    5  A    between atoms: N1_12  and  C10_13 
ROOT
ATOM      1  C3  <0> d           0.677  -0.556  -1.388  0.00  0.00     0.256 C 
ENDROOT
BRANCH   1   2
ATOM      2  C2  <0> d          -0.136  -1.721  -0.820  0.00  0.00     0.036 C 
ATOM      3  C1  <0> d          -1.375  -1.178  -0.105  0.00  0.00     0.007 C 
ENDBRANCH   1   2
BRANCH   1   4
ATOM      4  C4  <0> d           1.959  -1.080  -1.982  0.00  0.00     0.009 A 
ATOM      5  C9  <0> d           3.088  -1.215  -1.187  0.00  0.00     0.074 A 
ATOM      6  C8  <0> d           4.265  -1.703  -1.736  0.00  0.00     0.038 A 
ATOM      7  C7  <0> d           4.314  -2.042  -3.073  0.00  0.00     0.022 A 
ATOM      8  C6  <0> d           3.189  -1.901  -3.866  0.00  0.00     0.011 A 
ATOM      9  C5  <0> d           2.012  -1.420  -3.320  0.00  0.00     0.031 A 
ATOM     10 Br1  <0> d           3.259  -2.367  -5.697  0.00  0.00    -0.051 Br
BRANCH   5  11
ATOM     11  O1  <0> d           3.039  -0.876   0.128  0.00  0.00    -0.360 OA
ATOM     12  H11 <0> d           2.782  -1.602   0.712  0.00  0.00     0.217 HD
ENDBRANCH   5  11
ENDBRANCH   1   4
BRANCH   1  13
ATOM     13  N1  <0> d          -0.104   0.124  -2.430  0.00  0.00     0.098 N 
ATOM     14  H12 <0> d          -0.013  -0.349  -3.317  0.00  0.00     0.317 HD
BRANCH  13  15
ATOM     15  C10 <0> d           0.286   1.536  -2.544  0.00  0.00     0.247 C 
ATOM     16  C14 <0> d          -0.905   2.356  -3.043  0.00  0.00     0.269 C 
ATOM     17  N2  <0> d          -0.516   3.767  -3.161  0.00  0.00    -0.073 N 
ATOM     18  C13 <0> d           0.545   3.910  -4.165  0.00  0.00     0.234 C 
ATOM     19  C15 <0> d          -1.683   4.562  -3.567  0.00  0.00     0.269 C 
ATOM     20  H24 <0> d          -0.180   4.097  -2.269  0.00  0.00     0.279 HD
ATOM     21  C12 <0> d           1.791   3.149  -3.708  0.00  0.00     0.030 C 
ATOM     22  C11 <0> d           1.444   1.667  -3.538  0.00  0.00     0.039 C 
ENDBRANCH  13  15
ENDBRANCH   1  13
TORSDOF 5
