REMARK  5 active torsions:
REMARK  status: ('A' for Active; 'I' for Inactive)
REMARK    1  A    between atoms: C2_2  and  N1_5 
REMARK    2  A    between atoms: C6_7  and  C8_10 
REMARK    3  A    between atoms: N3_13  and  C13_16 
REMARK    4  A    between atoms: C13_16  and  C14_17 
REMARK    5  A    between atoms: C15_19  and  C16_22 
REMARK       I    between atoms: C16_22  and  N6_24 
ROOT
ATOM      1  C8  <0> d           3.569  -1.160  -3.298  0.00  0.00    -0.046 C 
ATOM      2  C9  <0> d           4.427  -2.002  -2.767  0.00  0.00     0.008 C 
ATOM      3  C10 <0> d           5.793  -2.247  -3.341  0.00  0.00     0.263 C 
ATOM      4  N3  <0> d           5.853  -1.788  -4.733  0.00  0.00    -0.060 N 
ATOM      5  C11 <0> d           5.388  -0.393  -4.798  0.00  0.00     0.240 C 
ATOM      6  C12 <0> d           3.877  -0.372  -4.542  0.00  0.00     0.067 C 
ATOM      7  H25 <0> d           5.259  -2.368  -5.306  0.00  0.00     0.280 HD
ENDROOT
BRANCH   4   8
ATOM      8  C13 <0> d           7.237  -1.868  -5.218  0.00  0.00     0.323 C 
BRANCH   8   9
ATOM      9  C14 <0> d           7.673  -3.309  -5.256  0.00  0.00     0.199 A 
ATOM     10  O1  <0> d           8.263  -3.975  -4.255  0.00  0.00    -0.194 OA
ATOM     11  N5  <0> d           8.492  -5.293  -4.730  0.00  0.00    -0.101 NA
ATOM     12  C15 <0> d           8.042  -5.328  -5.959  0.00  0.00     0.247 A 
ATOM     13  N4  <0> d           7.546  -4.117  -6.270  0.00  0.00    -0.198 NA
BRANCH  12  14
ATOM     14  C16 <0> d           8.073  -6.508  -6.860  0.00  0.00     0.291 C 
ATOM     15  O2  <0> d           7.624  -6.425  -7.985  0.00  0.00    -0.264 OA
ATOM     16  N6  <0> d           8.599  -7.671  -6.428  0.00  0.00    -0.359 N 
ATOM     17  C17 <0> d           8.630  -8.835  -7.317  0.00  0.00     0.149 C 
ATOM     18  H21 <0> d           8.958  -7.738  -5.529  0.00  0.00     0.162 HD
ENDBRANCH  12  14
ENDBRANCH   8   9
ENDBRANCH   4   8
BRANCH   1  19
ATOM     19  C6  <0> d           2.249  -0.985  -2.653  0.00  0.00     0.006 A 
ATOM     20  C5  <0> d           2.019  -0.459  -1.413  0.00  0.00     0.126 A 
ATOM     21  N1  <0> d           0.688  -0.476  -1.203  0.00  0.00    -0.272 N 
ATOM     22  N2  <0> d           0.073  -1.029  -2.333  0.00  0.00    -0.184 NA
ATOM     23  C7  <0> d           0.999  -1.330  -3.205  0.00  0.00     0.152 A 
BRANCH  21  24
ATOM     24  C2  <0> d           0.002  -0.004   0.002  0.00  0.00     0.044 C 
ATOM     25  C1  <0> d          -0.019   1.526   0.010  0.00  0.00     0.039 C 
ATOM     26  C3  <0> d           0.742  -0.511   1.242  0.00  0.00     0.039 C 
ATOM     27  C4  <0> d          -1.433  -0.534   0.013  0.00  0.00     0.039 C 
ENDBRANCH  21  24
ENDBRANCH   1  19
TORSDOF 5
