REMARK  6 active torsions:
REMARK  status: ('A' for Active; 'I' for Inactive)
REMARK    1  A    between atoms: C3_3  and  C7_9 
REMARK       I    between atoms: C7_9  and  N1_11 
REMARK    2  A    between atoms: C9_13  and  C16_21 
REMARK       I    between atoms: C16_21  and  N3_23 
REMARK    3  A    between atoms: N3_23  and  C17_24 
REMARK    4  A    between atoms: C17_24  and  C18_25 
REMARK    5  A    between atoms: C18_25  and  C19_26 
REMARK    6  A    between atoms: C19_26  and  N4_27 
ROOT
ATOM      1  C7  <0> d           3.950   2.222   0.075  0.00  0.00     0.255 C 
ATOM      2  O1  <0> d           5.054   1.723   0.174  0.00  0.00    -0.267 OA
ATOM      3  N1  <0> d           3.823   3.558  -0.055  0.00  0.00    -0.346 N 
ATOM      4  C8  <0> d           2.573   4.353  -0.084  0.00  0.00     0.141 C 
ATOM      5  C9  <0> d           2.902   5.627   0.727  0.00  0.00     0.106 C 
ATOM      6  C10 <0> d           4.432   5.760   0.644  0.00  0.00    -0.007 C 
ATOM      7  C11 <0> d           4.903   4.564  -0.195  0.00  0.00     0.136 C 
ATOM      8  C12 <0> d           5.045   5.692   2.039  0.00  0.00     0.039 C 
ATOM      9  C13 <0> d           6.560   5.884   1.936  0.00  0.00     0.233 C 
ATOM     10  N2  <0> d           6.850   7.183   1.316  0.00  0.00    -0.075 N 
ATOM     11  C14 <0> d           6.338   7.206  -0.060  0.00  0.00     0.233 C 
ATOM     12  C15 <0> d           4.812   7.069  -0.041  0.00  0.00     0.039 C 
ATOM     13  H13 <0> d           6.407   7.915   1.850  0.00  0.00     0.277 HD
ATOM     14  H28 <0> d           7.847   7.333   1.304  0.00  0.00     0.277 HD
ENDROOT
BRANCH   5  15
ATOM     15  C16 <0> d           2.464   5.465   2.159  0.00  0.00     0.224 C 
ATOM     16  O2  <0> d           2.453   4.365   2.670  0.00  0.00    -0.273 OA
ATOM     17  N3  <0> d           2.085   6.543   2.874  0.00  0.00    -0.361 N 
ATOM     18  H18 <0> d           2.094   7.423   2.466  0.00  0.00     0.162 HD
BRANCH  17  19
ATOM     19  C17 <0> d           1.659   6.386   4.267  0.00  0.00     0.124 C 
BRANCH  19  20
ATOM     20  C18 <0> d           1.284   7.753   4.843  0.00  0.00     0.040 C 
BRANCH  20  21
ATOM     21  C19 <0> d           0.839   7.589   6.298  0.00  0.00     0.130 C 
BRANCH  21  22
ATOM     22  N4  <0> d           0.481   8.898   6.849  0.00  0.00    -0.352 N 
ATOM     23  C22 <0> d          -0.742   9.472   6.821  0.00  0.00     0.182 A 
ATOM     24  N5  <0> d          -0.672  10.633   7.411  0.00  0.00    -0.361 N 
ATOM     25  C21 <0> d           0.586  10.845   7.826  0.00  0.00     0.106 A 
ATOM     26  H29 <0> d          -1.413  11.249   7.529  0.00  0.00     0.166 HD
ATOM     27  C20 <0> d           1.323   9.771   7.484  0.00  0.00     0.108 A 
ENDBRANCH  21  22
ENDBRANCH  20  21
ENDBRANCH  19  20
ENDBRANCH  17  19
ENDBRANCH   5  15
BRANCH   1  28
ATOM     28  C3  <0> d           2.747   1.364   0.096  0.00  0.00     0.055 A 
ATOM     29  C2  <0> d           1.641   1.688  -0.692  0.00  0.00     0.019 A 
ATOM     30  C1  <0> d           0.521   0.883  -0.669  0.00  0.00     0.003 A 
ATOM     31  C6  <0> d           0.490  -0.244   0.134  0.00  0.00     0.026 A 
ATOM     32  C5  <0> d           1.582  -0.572   0.919  0.00  0.00     0.056 A 
ATOM     33  C4  <0> d           2.711   0.226   0.905  0.00  0.00     0.071 A 
ATOM     34 Cl1  <0> d           1.534  -1.987   1.923  0.00  0.00    -0.083 Cl
ATOM     35 Cl2  <0> d           4.080  -0.186   1.890  0.00  0.00    -0.081 Cl
ENDBRANCH   1  28
TORSDOF 6
