REMARK  4 active torsions:
REMARK  status: ('A' for Active; 'I' for Inactive)
REMARK    1  A    between atoms: C3_3  and  N5_18 
REMARK    2  A    between atoms: C5_6  and  C6_7 
REMARK    3  A    between atoms: C6_7  and  N2_8 
REMARK    4  A    between atoms: N2_8  and  C7_9 
ROOT
ATOM      1  C1  <0> d          -0.017   1.384   0.010  0.00  0.00     0.014 A 
ATOM      2  C2  <0> d           1.190   2.061   0.002  0.00  0.00     0.049 A 
ATOM      3  C3  <0> d           2.374   1.332  -0.013  0.00  0.00     0.102 A 
ATOM      4  N1  <0> d           2.350   0.008  -0.020  0.00  0.00    -0.352 N 
ATOM      5  C4  <0> d           1.215  -0.664  -0.013  0.00  0.00     0.098 A 
ATOM      6  C5  <0> d           0.002  -0.004   0.002  0.00  0.00    -0.025 A 
ATOM      7  H17 <0> d           3.189  -0.480  -0.031  0.00  0.00     0.166 HD
ENDROOT
BRANCH   6   8
ATOM      8  C6  <0> d          -1.288  -0.783   0.011  0.00  0.00     0.160 C 
BRANCH   8   9
ATOM      9  N2  <0> d          -1.720  -1.028  -1.368  0.00  0.00    -0.383 N 
ATOM     10  H7  <0> d          -1.188  -0.698  -2.108  0.00  0.00     0.160 HD
BRANCH   9  11
ATOM     11  C7  <0> d          -2.888  -1.730  -1.613  0.00  0.00     0.075 A 
ATOM     12  C10 <0> d          -3.301  -1.965  -2.912  0.00  0.00     0.131 A 
ATOM     13  C9  <0> d          -4.486  -2.684  -3.129  0.00  0.00     0.285 A 
ATOM     14 Cl1  <0> d          -2.365  -1.384  -4.253  0.00  0.00    -0.076 Cl
ATOM     15  N4  <0> d          -5.202  -3.121  -2.075  0.00  0.00    -0.242 N 
ATOM     16  O1  <0> d          -4.869  -2.908  -4.267  0.00  0.00    -0.265 OA
ATOM     17  N3  <0> d          -4.770  -2.869  -0.768  0.00  0.00    -0.182 NA
ATOM     18  H1  <0> d          -6.023  -3.615  -2.223  0.00  0.00     0.192 HD
ATOM     19  C8  <0> d          -3.670  -2.208  -0.540  0.00  0.00     0.169 A 
ENDBRANCH   9  11
ENDBRANCH   8   9
ENDBRANCH   6   8
BRANCH   3  20
ATOM     20  N5  <0> d           3.594   1.999  -0.022  0.00  0.00    -0.367 N 
ATOM     21  C14 <0> d           4.922   1.360  -0.038  0.00  0.00     0.124 C 
ATOM     22  C13 <0> d           5.865   2.426  -0.657  0.00  0.00     0.021 C 
ATOM     23  C12 <0> d           5.290   3.734  -0.052  0.00  0.00     0.021 C 
ATOM     24  C11 <0> d           3.772   3.458  -0.010  0.00  0.00     0.124 C 
ENDBRANCH   3  20
TORSDOF 4
