REMARK  3 active torsions:
REMARK  status: ('A' for Active; 'I' for Inactive)
REMARK    1  A    between atoms: C5_5  and  N1_9 
REMARK    2  A    between atoms: C10_13  and  C16_23 
REMARK    3  A    between atoms: C12_15  and  N2_20 
ROOT
ATOM      1  N1  <0> d           0.041  -4.415  -0.484  0.00  0.00    -0.251 N 
ATOM      2  C8  <0> d           0.063  -4.997   0.745  0.00  0.00     0.238 C 
ATOM      3  O1  <0> d          -0.139  -4.457   1.811  0.00  0.00    -0.272 OA
ATOM      4  C9  <0> d           0.385  -6.439   0.514  0.00  0.00     0.117 C 
ATOM      5  C10 <0> d          -0.174  -7.488   1.431  0.00  0.00     0.104 C 
ATOM      6  C11 <0> d           0.237  -8.857   0.960  0.00  0.00     0.066 C 
ATOM      7  C12 <0> d           0.622  -9.201  -0.291  0.00  0.00     0.082 C 
ATOM      8  S1  <0> d           0.683  -8.029  -1.618  0.00  0.00    -0.096 SA
ATOM      9  C13 <0> d          -0.253  -6.650  -0.895  0.00  0.00     0.161 C 
ATOM     10  C14 <0> d           0.035  -5.308  -1.507  0.00  0.00     0.246 C 
ATOM     11  O2  <0> d           0.227  -5.071  -2.680  0.00  0.00    -0.271 OA
ATOM     12  C15 <0> d           0.219  -9.904   1.936  0.00  0.00     0.099 C 
ATOM     13  N3  <0> d           0.205 -10.735   2.711  0.00  0.00    -0.192 NA
ENDROOT
BRANCH   5  14
ATOM     14  C16 <0> d          -1.678  -7.396   1.440  0.00  0.00     0.062 A 
ATOM     15  O3  <0> d          -2.498  -7.835   0.471  0.00  0.00    -0.326 OA
ATOM     16  C19 <0> d          -3.772  -7.590   0.817  0.00  0.00     0.142 A 
ATOM     17  C18 <0> d          -3.777  -6.979   2.016  0.00  0.00     0.027 A 
ATOM     18  C17 <0> d          -2.427  -6.854   2.417  0.00  0.00     0.035 A 
ENDBRANCH   5  14
BRANCH   7  19
ATOM     19  N2  <0> d           0.978 -10.505  -0.540  0.00  0.00    -0.393 N 
ATOM     20  H10 <0> d           0.950 -11.161   0.174  0.00  0.00     0.156 HD
ATOM     21  H11 <0> d           1.256 -10.770  -1.431  0.00  0.00     0.156 HD
ENDBRANCH   7  19
BRANCH   1  22
ATOM     22  C5  <0> d           0.021  -3.027  -0.675  0.00  0.00     0.047 A 
ATOM     23  C4  <0> d          -0.007  -2.502  -1.961  0.00  0.00     0.031 A 
ATOM     24  C3  <0> d          -0.027  -1.134  -2.148  0.00  0.00     0.011 A 
ATOM     25  C2  <0> d          -0.021  -0.286  -1.056  0.00  0.00    -0.040 A 
ATOM     26  C1  <0> d          -0.044   1.207  -1.263  0.00  0.00     0.050 C 
ATOM     27  C7  <0> d           0.011  -0.804   0.227  0.00  0.00     0.042 A 
ATOM     28  C6  <0> d           0.027  -2.174   0.419  0.00  0.00     0.054 A 
ATOM     29 Cl1  <0> d           0.025   0.264   1.595  0.00  0.00    -0.084 Cl
ENDBRANCH   1  22
TORSDOF 3
