REMARK  3 active torsions:
REMARK  status: ('A' for Active; 'I' for Inactive)
REMARK    1  A    between atoms: C2_2  and  C3_3 
REMARK    2  A    between atoms: N1_8  and  C7_9 
REMARK    3  A    between atoms: C8_10  and  C13_16 
ROOT
ATOM      1  C7  <0> d          -0.071   0.936   4.706  0.00  0.00     0.140 A 
ATOM      2  C8  <0> d           1.202   0.389   4.466  0.00  0.00     0.047 A 
ATOM      3  C9  <0> d           2.215   1.225   3.985  0.00  0.00     0.020 A 
ATOM      4  C10 <0> d           1.919   2.559   3.767  0.00  0.00     0.028 A 
ATOM      5  C11 <0> d           0.642   3.025   4.027  0.00  0.00     0.033 A 
ATOM      6  N2  <0> d          -0.301   2.219   4.476  0.00  0.00    -0.235 NA
ATOM      7  C12 <0> d           0.323   4.478   3.789  0.00  0.00     0.070 C 
ENDROOT
BRANCH   1   8
ATOM      8  N1  <0> d          -1.089   0.129   5.181  0.00  0.00    -0.356 N 
ATOM      9  C3  <0> d          -2.449   0.220   4.627  0.00  0.00     0.109 C 
ATOM     10  C4  <0> d          -2.917  -1.192   4.258  0.00  0.00     0.193 C 
ATOM     11  O1  <0> d          -2.748  -2.054   5.386  0.00  0.00    -0.383 OA
ATOM     12  C5  <0> d          -1.390  -2.207   5.807  0.00  0.00     0.135 C 
ATOM     13  C6  <0> d          -0.845  -0.847   6.256  0.00  0.00     0.156 C 
ATOM     14  C14 <0> d          -1.326  -3.195   6.974  0.00  0.00     0.041 C 
BRANCH   9  15
ATOM     15  C2  <0> d          -3.393   0.819   5.672  0.00  0.00     0.023 C 
ATOM     16  C1  <0> d          -2.988   2.267   5.955  0.00  0.00     0.007 C 
ENDBRANCH   9  15
ENDBRANCH   1   8
BRANCH   2  17
ATOM     17  C13 <0> d           1.463  -1.039   4.715  0.00  0.00     0.108 C 
ATOM     18  S1  <0> d           0.983  -2.211   3.564  0.00  0.00    -0.060 SA
ATOM     19  N3  <0> d           2.079  -1.423   5.851  0.00  0.00    -0.389 N 
ATOM     20  H17 <0> d           2.351  -0.758   6.503  0.00  0.00     0.157 HD
ATOM     21  H18 <0> d           2.252  -2.363   6.015  0.00  0.00     0.157 HD
ENDBRANCH   2  17
TORSDOF 3
