REMARK  2 active torsions:
REMARK  status: ('A' for Active; 'I' for Inactive)
REMARK    1  A    between atoms: N1_2  and  C2_3 
REMARK    2  A    between atoms: C7_10  and  C8_12 
ROOT
ATOM      1  C2  <0> d          -1.186  -0.712   0.010  0.00  0.00     0.139 A 
ATOM      2  C3  <0> d          -1.177  -2.136   0.008  0.00  0.00     0.053 A 
ATOM      3  C4  <0> d          -0.017  -3.041  -0.002  0.00  0.00    -0.028 A 
ATOM      4  C5  <0> d          -0.275  -4.359  -0.002  0.00  0.00    -0.008 A 
ATOM      5  S1  <0> d          -2.048  -4.484   0.014  0.00  0.00    -0.073 SA
ATOM      6  C6  <0> d          -2.441  -2.756   0.017  0.00  0.00     0.115 A 
ATOM      7  N2  <0> d          -3.556  -2.053   0.025  0.00  0.00    -0.218 NA
ATOM      8  C7  <0> d          -3.507  -0.725   0.025  0.00  0.00     0.186 A 
ATOM      9  N3  <0> d          -2.344  -0.075   0.024  0.00  0.00    -0.208 NA
ATOM     10  C12 <0> d           0.985  -5.184  -0.018  0.00  0.00     0.047 C 
ATOM     11  C13 <0> d           2.088  -4.199  -0.463  0.00  0.00     0.010 C 
ATOM     12  C14 <0> d           1.502  -2.847  -0.009  0.00  0.00     0.041 C 
ENDROOT
BRANCH   8  13
ATOM     13  C8  <0> d          -4.765   0.045   0.034  0.00  0.00     0.122 A 
ATOM     14  O1  <0> d          -4.871   1.389   0.036  0.00  0.00    -0.319 OA
ATOM     15  C11 <0> d          -6.168   1.734   0.041  0.00  0.00     0.142 A 
ATOM     16  C10 <0> d          -6.914   0.611   0.052  0.00  0.00     0.027 A 
ATOM     17  C9  <0> d          -6.022  -0.478   0.048  0.00  0.00     0.043 A 
ENDBRANCH   8  13
BRANCH   1  18
ATOM     18  N1  <0> d           0.002  -0.004   0.002  0.00  0.00    -0.378 N 
ATOM     19  C1  <0> d          -0.018   1.461   0.010  0.00  0.00     0.147 C 
ATOM     20  H4  <0> d           0.849  -0.478  -0.009  0.00  0.00     0.160 HD
ENDBRANCH   1  18
TORSDOF 2
