REMARK  2 active torsions:
REMARK  status: ('A' for Active; 'I' for Inactive)
REMARK    1  A    between atoms: N1_5  and  C5_9 
REMARK    2  A    between atoms: C5_9  and  C6_10 
ROOT
ATOM      1  C5  <0> d          -2.593  -1.987   1.771  0.00  0.00     0.217 C 
ENDROOT
BRANCH   1   2
ATOM      2  N1  <0> d          -1.419  -1.272   1.263  0.00  0.00    -0.261 N 
ATOM      3  C3  <0> d          -1.404  -0.557   0.121  0.00  0.00     0.256 A 
ATOM      4  C2  <0> d           0.002  -0.004   0.002  0.00  0.00     0.108 A 
ATOM      5  O1  <0> d          -2.324  -0.392  -0.652  0.00  0.00    -0.270 OA
ATOM      6  C1  <0> d          -0.019   1.526   0.010  0.00  0.00     0.049 C 
ATOM      7  N2  <0> d           0.679  -0.520   1.204  0.00  0.00    -0.325 N 
ATOM      8  C12 <0> d           0.684  -0.525  -1.265  0.00  0.00     0.049 C 
ATOM      9  C4  <0> d          -0.231  -1.248   1.876  0.00  0.00     0.326 A 
ATOM     10  H4  <0> d           1.602  -0.365   1.461  0.00  0.00     0.165 HD
ATOM     11  O2  <0> d           0.001  -1.819   2.923  0.00  0.00    -0.247 OA
ENDBRANCH   1   2
BRANCH   1  12
ATOM     12  C6  <0> d          -2.601  -3.391   1.225  0.00  0.00     0.147 A 
ATOM     13  N4  <0> d          -1.994  -4.351   1.900  0.00  0.00    -0.219 NA
ATOM     14  C11 <0> d          -1.970  -5.600   1.480  0.00  0.00     0.141 A 
ATOM     15  C8  <0> d          -2.603  -5.932   0.260  0.00  0.00     0.041 A 
ATOM     16 Cl1  <0> d          -1.163  -6.823   2.412  0.00  0.00    -0.061 Cl
ATOM     17  C7  <0> d          -3.228  -4.855  -0.413  0.00  0.00     0.113 A 
ATOM     18  C9  <0> d          -2.711  -7.216  -0.412  0.00  0.00     0.025 A 
ATOM     19  N3  <0> d          -3.210  -3.636   0.081  0.00  0.00    -0.224 NA
ATOM     20  S1  <0> d          -3.903  -5.614  -1.866  0.00  0.00    -0.081 SA
ATOM     21  C10 <0> d          -3.369  -7.291  -1.578  0.00  0.00     0.053 A 
ENDBRANCH   1  12
TORSDOF 2
