REMARK  7 active torsions:
REMARK  status: ('A' for Active; 'I' for Inactive)
REMARK    1  A    between atoms: O1_2  and  C2_3 
REMARK    2  A    between atoms: C3_4  and  C6_9 
REMARK       I    between atoms: C6_9  and  N1_11 
REMARK    3  A    between atoms: C8_13  and  C15_21 
REMARK       I    between atoms: C15_21  and  N3_23 
REMARK    4  A    between atoms: N3_23  and  C16_24 
REMARK    5  A    between atoms: C16_24  and  C17_25 
REMARK    6  A    between atoms: C17_25  and  C18_26 
REMARK    7  A    between atoms: C18_26  and  N4_27 
ROOT
ATOM      1  C6  <0> d          -1.562  -0.675  -2.401  0.00  0.00     0.257 C 
ATOM      2  O2  <0> d          -0.360  -0.835  -2.309  0.00  0.00    -0.267 OA
ATOM      3  N1  <0> d          -2.218  -1.104  -3.497  0.00  0.00    -0.346 N 
ATOM      4  C7  <0> d          -1.669  -1.869  -4.642  0.00  0.00     0.141 C 
ATOM      5  C8  <0> d          -2.777  -2.885  -4.999  0.00  0.00     0.106 C 
ATOM      6  C9  <0> d          -4.075  -2.255  -4.465  0.00  0.00    -0.007 C 
ATOM      7  C10 <0> d          -3.652  -0.924  -3.827  0.00  0.00     0.136 C 
ATOM      8  C11 <0> d          -5.051  -2.006  -5.611  0.00  0.00     0.039 C 
ATOM      9  C12 <0> d          -6.355  -1.433  -5.049  0.00  0.00     0.233 C 
ATOM     10  N2  <0> d          -6.931  -2.378  -4.084  0.00  0.00    -0.075 N 
ATOM     11  C13 <0> d          -6.026  -2.541  -2.940  0.00  0.00     0.233 C 
ATOM     12  C14 <0> d          -4.708  -3.160  -3.413  0.00  0.00     0.039 C 
ATOM     13  H14 <0> d          -7.820  -2.027  -3.761  0.00  0.00     0.277 HD
ATOM     14  H34 <0> d          -7.069  -3.272  -4.532  0.00  0.00     0.277 HD
ENDROOT
BRANCH   5  15
ATOM     15  C15 <0> d          -2.516  -4.206  -4.322  0.00  0.00     0.224 C 
ATOM     16  O3  <0> d          -2.014  -4.232  -3.218  0.00  0.00    -0.273 OA
ATOM     17  N3  <0> d          -2.840  -5.357  -4.942  0.00  0.00    -0.361 N 
ATOM     18  H19 <0> d          -3.241  -5.336  -5.825  0.00  0.00     0.162 HD
BRANCH  17  19
ATOM     19  C16 <0> d          -2.585  -6.641  -4.284  0.00  0.00     0.124 C 
BRANCH  19  20
ATOM     20  C17 <0> d          -3.042  -7.781  -5.197  0.00  0.00     0.050 C 
BRANCH  20  21
ATOM     21  C18 <0> d          -2.776  -9.122  -4.509  0.00  0.00     0.274 C 
BRANCH  21  22
ATOM     22  N4  <0> d          -3.214 -10.217  -5.385  0.00  0.00     0.092 N 
ATOM     23  C22 <0> d          -2.763 -11.518  -4.869  0.00  0.00     0.298 C 
ATOM     24  C21 <0> d          -3.189 -12.621  -5.840  0.00  0.00     0.198 C 
ATOM     25  O4  <0> d          -4.607 -12.572  -6.019  0.00  0.00    -0.388 OA
ATOM     26  C20 <0> d          -5.080 -11.320  -6.521  0.00  0.00     0.198 C 
ATOM     27  C19 <0> d          -4.674 -10.202  -5.556  0.00  0.00     0.298 C 
ENDBRANCH  21  22
ENDBRANCH  20  21
ENDBRANCH  19  20
ENDBRANCH  17  19
ENDBRANCH   5  15
BRANCH   1  28
ATOM     28  C3  <0> d          -2.301  -0.013  -1.314  0.00  0.00     0.074 A 
ATOM     29  C2  <0> d          -1.932  -0.193   0.071  0.00  0.00     0.113 A 
ATOM     30  C5  <0> d          -2.695   0.468   0.970  0.00  0.00     0.108 A 
ATOM     31  S1  <0> d          -3.877   1.319  -0.052  0.00  0.00    -0.086 SA
ATOM     32 Cl1  <0> d          -2.555   0.484   2.700  0.00  0.00    -0.073 Cl
ATOM     33  C4  <0> d          -3.377   0.809  -1.570  0.00  0.00     0.071 A 
BRANCH  29  34
ATOM     34  O1  <0> d          -0.887  -0.981   0.447  0.00  0.00    -0.353 OA
ATOM     35  C1  <0> d          -1.171  -2.359   0.699  0.00  0.00     0.210 C 
ENDBRANCH  29  34
ENDBRANCH   1  28
TORSDOF 7
