REMARK  4 active torsions:
REMARK  status: ('A' for Active; 'I' for Inactive)
REMARK    1  A    between atoms: C2_2  and  N1_3 
REMARK    2  A    between atoms: C3_4  and  C13_18 
REMARK    3  A    between atoms: N2_6  and  C5_10 
REMARK    4  A    between atoms: C13_18  and  N3_19 
ROOT
ATOM      1  N1  <0> d          -3.108   3.488  -0.681  0.00  0.00    -0.286 N 
ATOM      2  C3  <0> d          -3.865   2.318  -0.213  0.00  0.00     0.141 C 
ATOM      3  C4  <0> d          -2.953   1.321   0.497  0.00  0.00     0.171 C 
ATOM      4  N2  <0> d          -1.553   1.553   0.093  0.00  0.00    -0.257 N 
ATOM      5  S1  <0> d          -1.518   3.191  -0.249  0.00  0.00     0.324 S 
ATOM      6  O1  <0> d          -1.273   3.874   0.973  0.00  0.00    -0.182 OA
ATOM      7  O2  <0> d          -0.723   3.364  -1.413  0.00  0.00    -0.182 OA
ENDROOT
BRANCH   4   8
ATOM      8  C5  <0> d          -0.508   0.629   0.020  0.00  0.00     0.047 A 
ATOM      9  C10 <0> d           0.809   1.059   0.125  0.00  0.00     0.037 A 
ATOM     10  C9  <0> d           1.840   0.144   0.046  0.00  0.00    -0.054 A 
ATOM     11  C8  <0> d           1.563  -1.198  -0.137  0.00  0.00    -0.056 A 
ATOM     12  C11 <0> d           3.269   0.609   0.159  0.00  0.00     0.049 C 
ATOM     13  C7  <0> d           0.253  -1.629  -0.242  0.00  0.00     0.009 A 
ATOM     14  C12 <0> d           2.692  -2.194  -0.223  0.00  0.00     0.049 C 
ATOM     15  C6  <0> d          -0.783  -0.720  -0.164  0.00  0.00     0.031 A 
ENDBRANCH   4   8
BRANCH   2  16
ATOM     16  C13 <0> d          -4.953   2.782   0.757  0.00  0.00     0.257 C 
BRANCH  16  17
ATOM     17  N3  <0> d          -5.834   3.744   0.080  0.00  0.00    -0.077 N 
ATOM     18  H20 <0> d          -6.616   4.078   0.778  0.00  0.00     0.274 HD
ATOM     19  H21 <0> d          -6.301   3.264  -0.792  0.00  0.00     0.274 HD
ATOM     20  H22 <0> d          -5.244   4.612  -0.251  0.00  0.00     0.274 HD
ENDBRANCH  16  17
ENDBRANCH   2  16
BRANCH   1  21
ATOM     21  C2  <0> d          -3.634   4.667  -1.374  0.00  0.00     0.133 C 
ATOM     22  C1  <0> d          -3.779   4.359  -2.866  0.00  0.00     0.027 C 
ENDBRANCH   1  21
TORSDOF 4
