REMARK  2 active torsions:
REMARK  status: ('A' for Active; 'I' for Inactive)
REMARK    1  A    between atoms: C3_3  and  O2_19 
REMARK    2  A    between atoms: C6_6  and  N1_7 
ROOT
ATOM      1  N1  <0> d          -1.162  -0.701   0.010  0.00  0.00    -0.243 NA
ATOM      2  C7  <0> d          -1.320  -1.724  -0.798  0.00  0.00     0.137 A 
ATOM      3  C8  <0> d          -2.512  -2.590  -0.932  0.00  0.00     0.026 A 
ATOM      4  C9  <0> d          -3.752  -2.608  -0.301  0.00  0.00     0.035 A 
ATOM      5  C10 <0> d          -4.684  -3.566  -0.649  0.00  0.00     0.011 A 
ATOM      6  C11 <0> d          -4.383  -4.505  -1.623  0.00  0.00     0.021 A 
ATOM      7  C12 <0> d          -3.155  -4.494  -2.255  0.00  0.00     0.032 A 
ATOM      8  C13 <0> d          -2.204  -3.538  -1.918  0.00  0.00     0.048 A 
ATOM      9  N2  <0> d          -0.916  -3.311  -2.391  0.00  0.00    -0.321 N 
ATOM     10  C14 <0> d          -0.346  -2.258  -1.780  0.00  0.00     0.275 A 
ATOM     11  O1  <0> d           0.770  -1.824  -1.991  0.00  0.00    -0.266 OA
ATOM     12 Br1  <0> d          -6.371  -3.598   0.204  0.00  0.00    -0.051 Br
ATOM     13  H8  <0> d          -0.485  -3.842  -3.079  0.00  0.00     0.169 HD
ENDROOT
BRANCH   1  14
ATOM     14  C6  <0> d           0.002  -0.004   0.002  0.00  0.00     0.058 A 
ATOM     15  C1  <0> d          -0.017   1.398   0.010  0.00  0.00     0.034 A 
ATOM     16  C2  <0> d           1.163   2.097   0.002  0.00  0.00     0.039 A 
ATOM     17  C3  <0> d           2.377   1.418  -0.013  0.00  0.00     0.065 A 
ATOM     18  C4  <0> d           2.402   0.027  -0.021  0.00  0.00     0.039 A 
ATOM     19  C5  <0> d           1.229  -0.683  -0.014  0.00  0.00     0.034 A 
BRANCH  17  20
ATOM     20  O2  <0> d           3.541   2.115  -0.021  0.00  0.00    -0.361 OA
ATOM     21  H9  <0> d           3.887   2.313   0.860  0.00  0.00     0.217 HD
ENDBRANCH  17  20
ENDBRANCH   1  14
TORSDOF 2
