REMARK  6 active torsions:
REMARK  status: ('A' for Active; 'I' for Inactive)
REMARK    1  A    between atoms: C2_2  and  N1_3 
REMARK    2  A    between atoms: N1_3  and  C3_4 
REMARK       I    between atoms: N1_3  and  C12_18 
REMARK    3  A    between atoms: C3_4  and  C4_5 
REMARK       I    between atoms: C4_5  and  N2_7 
REMARK    4  A    between atoms: N2_7  and  C5_8 
REMARK    5  A    between atoms: C10_13  and  C11_14 
REMARK    6  A    between atoms: C12_18  and  C13_20 
ROOT
ATOM      1  C4  <0> d          -0.623  -1.484   2.755  0.00  0.00     0.240 C 
ATOM      2  O1  <0> d          -0.533  -2.376   1.938  0.00  0.00    -0.271 OA
ATOM      3  N2  <0> d          -1.362  -1.662   3.868  0.00  0.00    -0.325 N 
ATOM      4  H8  <0> d          -1.381  -0.975   4.552  0.00  0.00     0.169 HD
ENDROOT
BRANCH   1   5
ATOM      5  C3  <0> d           0.090  -0.177   2.525  0.00  0.00     0.229 C 
BRANCH   5   6
ATOM      6  N1  <0> d           0.818  -0.234   1.255  0.00  0.00    -0.340 N 
ATOM      7  C12 <0> d           2.129  -0.547   1.243  0.00  0.00     0.255 C 
ATOM      8  O2  <0> d           2.756  -0.500   0.202  0.00  0.00    -0.267 OA
BRANCH   6   9
ATOM      9  C2  <0> d           0.121   0.048  -0.003  0.00  0.00     0.122 C 
ATOM     10  C1  <0> d           0.108   1.557  -0.251  0.00  0.00     0.026 C 
ENDBRANCH   6   9
BRANCH   7  11
ATOM     11  C13 <0> d           2.805  -0.946   2.496  0.00  0.00     0.051 A 
ATOM     12  C17 <0> d           4.052  -0.415   2.829  0.00  0.00     0.133 A 
ATOM     13  N3  <0> d           4.652  -0.766   3.948  0.00  0.00    -0.271 NA
ATOM     14  C16 <0> d           4.114  -1.631   4.785  0.00  0.00     0.135 A 
ATOM     15  C15 <0> d           2.882  -2.207   4.525  0.00  0.00     0.029 A 
ATOM     16  C14 <0> d           2.208  -1.867   3.365  0.00  0.00     0.039 A 
ATOM     17 Br1  <0> d           2.129  -3.445   5.740  0.00  0.00    -0.050 Br
ENDBRANCH   7  11
ENDBRANCH   5   6
ENDBRANCH   1   5
BRANCH   3  18
ATOM     18  C5  <0> d          -2.102  -2.838   4.036  0.00  0.00     0.049 A 
ATOM     19  C10 <0> d          -3.319  -2.805   4.704  0.00  0.00     0.074 A 
ATOM     20  C9  <0> d          -4.050  -3.966   4.862  0.00  0.00     0.018 A 
ATOM     21  C8  <0> d          -3.565  -5.163   4.368  0.00  0.00     0.001 A 
ATOM     22  C7  <0> d          -2.350  -5.200   3.707  0.00  0.00     0.002 A 
ATOM     23  C6  <0> d          -1.618  -4.042   3.540  0.00  0.00     0.030 A 
BRANCH  19  24
ATOM     24  C11 <0> d          -3.845  -1.502   5.249  0.00  0.00     0.419 C 
ATOM     25  F1  <0> d          -5.076  -1.722   5.875  0.00  0.00    -0.166 F 
ATOM     26  F2  <0> d          -2.935  -0.985   6.178  0.00  0.00    -0.166 F 
ATOM     27  F3  <0> d          -4.010  -0.591   4.201  0.00  0.00    -0.166 F 
ENDBRANCH  19  24
ENDBRANCH   3  18
TORSDOF 6
