REMARK  10 active torsions:
REMARK  status: ('A' for Active; 'I' for Inactive)
REMARK    1  A    between atoms: C2_2  and  C3_3 
REMARK    2  A    between atoms: C3_3  and  C4_4 
REMARK    3  A    between atoms: C4_4  and  N1_5 
REMARK    4  A    between atoms: N1_5  and  C5_6 
REMARK    5  A    between atoms: N1_5  and  C15_18 
REMARK    6  A    between atoms: C5_6  and  C6_7 
REMARK    7  A    between atoms: C11_12  and  C12_13 
REMARK    8  A    between atoms: C13_14  and  C14_15 
REMARK    9  A    between atoms: C14_15  and  O1_16 
REMARK   10  A    between atoms: C15_18  and  C16_19 
REMARK       I    between atoms: C16_19  and  N2_21 
ROOT
ATOM      1  C5  <0> d           1.465  -3.864   2.235  0.00  0.00     0.275 C 
ENDROOT
BRANCH   1   2
ATOM      2  N1  <0> d           1.468  -2.395   2.197  0.00  0.00    -0.059 N 
ATOM      3  H22 <0> d           0.847  -2.039   2.908  0.00  0.00     0.280 HD
BRANCH   2   4
ATOM      4  C4  <0> d           1.013  -1.939   0.876  0.00  0.00     0.236 C 
BRANCH   4   5
ATOM      5  C3  <0> d          -0.452  -2.332   0.677  0.00  0.00     0.027 C 
BRANCH   5   6
ATOM      6  C2  <0> d          -0.970  -1.727  -0.629  0.00  0.00    -0.003 C 
ATOM      7  C1  <0> d          -2.434  -2.120  -0.828  0.00  0.00     0.005 C 
ENDBRANCH   5   6
ENDBRANCH   4   5
ENDBRANCH   2   4
BRANCH   2   8
ATOM      8  C15 <0> d           2.829  -1.902   2.443  0.00  0.00     0.337 C 
BRANCH   8   9
ATOM      9  C16 <0> d           2.804  -0.400   2.571  0.00  0.00     0.241 C 
ATOM     10  O2  <0> d           1.744   0.190   2.584  0.00  0.00    -0.272 OA
ATOM     11  N2  <0> d           3.959   0.287   2.670  0.00  0.00    -0.369 N 
ATOM     12  H20 <0> d           4.807  -0.184   2.659  0.00  0.00     0.159 HD
ATOM     13  H21 <0> d           3.943   1.254   2.752  0.00  0.00     0.159 HD
ENDBRANCH   8   9
ENDBRANCH   2   8
ENDBRANCH   1   2
BRANCH   1  14
ATOM     14  C6  <0> d           1.812  -4.330   3.625  0.00  0.00    -0.014 A 
ATOM     15  C11 <0> d           0.838  -4.338   4.624  0.00  0.00     0.028 A 
ATOM     16  C10 <0> d           1.165  -4.777   5.907  0.00  0.00     0.063 A 
ATOM     17  C9  <0> d           2.454  -5.191   6.184  0.00  0.00     0.117 A 
ATOM     18  C8  <0> d           3.418  -5.175   5.188  0.00  0.00     0.043 A 
ATOM     19  F1  <0> d           2.775  -5.611   7.427  0.00  0.00    -0.206 F 
ATOM     20  C7  <0> d           3.096  -4.746   3.913  0.00  0.00     0.013 A 
BRANCH  15  21
ATOM     21  C12 <0> d          -0.494  -3.902   4.331  0.00  0.00    -0.064 C 
ATOM     22  C13 <0> d          -1.587  -3.544   4.091  0.00  0.00    -0.075 C 
BRANCH  22  23
ATOM     23  C14 <0> d          -2.956  -3.096   3.791  0.00  0.00     0.258 C 
BRANCH  23  24
ATOM     24  O1  <0> d          -3.760  -3.197   4.968  0.00  0.00    -0.389 OA
ATOM     25  H17 <0> d          -4.677  -2.917   4.843  0.00  0.00     0.210 HD
ENDBRANCH  23  24
ENDBRANCH  22  23
ENDBRANCH  15  21
ENDBRANCH   1  14
TORSDOF 10
