REMARK  4 active torsions:
REMARK  status: ('A' for Active; 'I' for Inactive)
REMARK    1  A    between atoms: C3_3  and  C10_14 
REMARK    2  A    between atoms: N1_5  and  C5_7 
REMARK    3  A    between atoms: C5_7  and  C6_8 
REMARK    4  A    between atoms: C6_8  and  C8_10 
REMARK       I    between atoms: C8_10  and  N3_12 
ROOT
ATOM      1  C1  <0> d          -0.018   1.503   0.010  0.00  0.00     0.073 C 
ATOM      2  C2  <0> d           0.002  -0.004   0.002  0.00  0.00     0.066 A 
ATOM      3  C3  <0> d           0.008  -0.830  -1.148  0.00  0.00     0.051 A 
ATOM      4  C4  <0> d           0.028  -2.142  -0.705  0.00  0.00     0.042 A 
ATOM      5  N1  <0> d           0.034  -2.112   0.636  0.00  0.00    -0.272 N 
ATOM      6  N2  <0> d           0.023  -0.776   1.052  0.00  0.00    -0.176 NA
ATOM      7  C9  <0> d           0.041  -3.376  -1.570  0.00  0.00     0.071 C 
ENDROOT
BRANCH   5   8
ATOM      8  C5  <0> d           0.053  -3.282   1.517  0.00  0.00     0.164 C 
BRANCH   8   9
ATOM      9  C6  <0> d           1.503  -3.670   1.817  0.00  0.00     0.093 C 
ATOM     10  C7  <0> d           2.175  -2.551   2.615  0.00  0.00     0.021 C 
BRANCH   9  11
ATOM     11  C8  <0> d           1.526  -4.944   2.622  0.00  0.00     0.220 C 
ATOM     12  O1  <0> d           0.485  -5.488   2.925  0.00  0.00    -0.273 OA
ATOM     13  N3  <0> d           2.702  -5.478   3.004  0.00  0.00    -0.370 N 
ATOM     14  H10 <0> d           3.534  -5.043   2.762  0.00  0.00     0.159 HD
ATOM     15  H11 <0> d           2.717  -6.298   3.522  0.00  0.00     0.159 HD
ENDBRANCH   9  11
ENDBRANCH   8   9
ENDBRANCH   5   8
BRANCH   3  16
ATOM     16  C10 <0> d          -0.005  -0.381  -2.544  0.00  0.00     0.274 C 
ATOM     17  O2  <0> d          -0.022   0.805  -2.800  0.00  0.00    -0.301 OA
ENDBRANCH   3  16
TORSDOF 4
