REMARK  6 active torsions:
REMARK  status: ('A' for Active; 'I' for Inactive)
REMARK    1  A    between atoms: C2_2  and  N1_3 
REMARK    2  A    between atoms: C3_4  and  C5_9 
REMARK    3  A    between atoms: C5_9  and  N4_10 
REMARK       I    between atoms: N4_10  and  C6_11 
REMARK    4  A    between atoms: C6_11  and  C7_13 
REMARK    5  A    between atoms: C7_13  and  C8_14 
REMARK    6  A    between atoms: C14_21  and  O3_23 
ROOT
ATOM      1  N4  <0> d          -1.618  -0.968  -4.117  0.00  0.00    -0.354 N 
ATOM      2  C6  <0> d          -2.867  -0.914  -4.620  0.00  0.00     0.222 C 
ATOM      3  O1  <0> d          -3.788  -0.553  -3.917  0.00  0.00    -0.273 OA
ATOM      4  H9  <0> d          -0.881  -1.257  -4.679  0.00  0.00     0.162 HD
ENDROOT
BRANCH   2   5
ATOM      5  C7  <0> d          -3.120  -1.300  -6.054  0.00  0.00     0.144 C 
BRANCH   5   6
ATOM      6  C8  <0> d          -4.587  -1.152  -6.363  0.00  0.00    -0.014 A 
ATOM      7  C11 <0> d          -5.282   0.073  -6.779  0.00  0.00     0.006 A 
ATOM      8  C10 <0> d          -6.627  -0.297  -6.948  0.00  0.00     0.088 A 
ATOM      9  C12 <0> d          -4.881   1.388  -7.010  0.00  0.00     0.017 A 
ATOM     10  O2  <0> d          -6.721  -1.609  -6.652  0.00  0.00    -0.321 OA
ATOM     11  C15 <0> d          -7.549   0.661  -7.348  0.00  0.00     0.074 A 
ATOM     12  C9  <0> d          -5.522  -2.111  -6.309  0.00  0.00     0.151 A 
ATOM     13  C14 <0> d          -7.137   1.963  -7.566  0.00  0.00     0.070 A 
ATOM     14  C13 <0> d          -5.802   2.320  -7.399  0.00  0.00     0.038 A 
BRANCH  13  15
ATOM     15  O3  <0> d          -8.042   2.901  -7.953  0.00  0.00    -0.356 OA
ATOM     16  C16 <0> d          -7.551   4.226  -8.169  0.00  0.00     0.210 C 
ENDBRANCH  13  15
ENDBRANCH   5   6
ENDBRANCH   2   5
BRANCH   1  17
ATOM     17  C5  <0> d          -1.372  -0.593  -2.723  0.00  0.00     0.203 C 
BRANCH  17  18
ATOM     18  C3  <0> d           0.096  -0.741  -2.414  0.00  0.00     0.146 A 
ATOM     19  N1  <0> d           0.688  -0.476  -1.203  0.00  0.00    -0.308 N 
ATOM     20  C4  <0> d           2.009  -0.721  -1.315  0.00  0.00     0.196 A 
ATOM     21  N3  <0> d           2.236  -1.141  -2.577  0.00  0.00    -0.251 N 
ATOM     22  S1  <0> d           3.182  -0.536  -0.082  0.00  0.00    -0.039 SA
ATOM     23  N2  <0> d           1.004  -1.138  -3.245  0.00  0.00    -0.157 NA
ATOM     24  H6  <0> d           3.094  -1.394  -2.953  0.00  0.00     0.191 HD
BRANCH  19  25
ATOM     25  C2  <0> d           0.002  -0.004   0.002  0.00  0.00     0.128 C 
ATOM     26  C1  <0> d          -0.019   1.526   0.010  0.00  0.00     0.027 C 
ENDBRANCH  19  25
ENDBRANCH  17  18
ENDBRANCH   1  17
TORSDOF 6
