REMARK  4 active torsions:
REMARK  status: ('A' for Active; 'I' for Inactive)
REMARK    1  A    between atoms: C5_5  and  S1_7 
REMARK    2  A    between atoms: S1_7  and  N1_10 
REMARK    3  A    between atoms: C9_13  and  C12_16 
REMARK    4  A    between atoms: C12_16  and  O3_17 
ROOT
ATOM      1  S1  <0> d           1.233  -2.436  -0.022  0.00  0.00     0.261 S 
ATOM      2  O1  <0> d           2.060  -3.088   0.932  0.00  0.00    -0.200 OA
ATOM      3  O2  <0> d          -0.180  -2.585  -0.032  0.00  0.00    -0.200 OA
ENDROOT
BRANCH   1   4
ATOM      4  C5  <0> d           1.557  -0.711   0.125  0.00  0.00     0.086 A 
ATOM      5  C4  <0> d           0.905   0.187  -0.707  0.00  0.00    -0.025 A 
ATOM      6  C3  <0> d           1.155   1.538  -0.589  0.00  0.00    -0.022 A 
ATOM      7  C13 <0> d          -0.063  -0.353  -1.728  0.00  0.00     0.070 C 
ATOM      8  C2  <0> d           2.061   1.989   0.358  0.00  0.00     0.009 A 
ATOM      9  C15 <0> d           0.465   2.552  -1.463  0.00  0.00     0.308 C 
ATOM     10  C1  <0> d           2.712   1.095   1.184  0.00  0.00     0.002 A 
ATOM     11  C6  <0> d           2.459  -0.259   1.068  0.00  0.00     0.026 A 
ATOM     12  N2  <0> d          -0.113   1.904  -2.644  0.00  0.00     0.087 N 
ATOM     13  C14 <0> d          -0.963   0.773  -2.240  0.00  0.00     0.274 C 
ATOM     14  H20 <0> d           0.610   1.603  -3.282  0.00  0.00     0.316 HD
ENDBRANCH   1   4
BRANCH   1  15
ATOM     15  N1  <0> d           1.770  -2.910  -1.515  0.00  0.00    -0.307 N 
ATOM     16  C11 <0> d           3.189  -3.216  -1.738  0.00  0.00     0.136 C 
ATOM     17  C10 <0> d           3.295  -4.619  -2.356  0.00  0.00     0.027 C 
ATOM     18  C9  <0> d           2.433  -4.680  -3.619  0.00  0.00     0.012 C 
ATOM     19  C8  <0> d           0.970  -4.425  -3.253  0.00  0.00     0.027 C 
ATOM     20  C7  <0> d           0.836  -3.026  -2.644  0.00  0.00     0.136 C 
BRANCH  18  21
ATOM     21  C12 <0> d           2.565  -6.064  -4.259  0.00  0.00     0.168 C 
BRANCH  21  22
ATOM     22  O3  <0> d           3.909  -6.256  -4.706  0.00  0.00    -0.400 OA
ATOM     23  H15 <0> d           4.066  -7.114  -5.123  0.00  0.00     0.209 HD
ENDBRANCH  21  22
ENDBRANCH  18  21
ENDBRANCH   1  15
TORSDOF 4
