REMARK  3 active torsions:
REMARK  status: ('A' for Active; 'I' for Inactive)
REMARK    1  A    between atoms: C10_12  and  S1_14 
REMARK    2  A    between atoms: S1_14  and  C11_15 
REMARK    3  A    between atoms: C11_15  and  C12_16 
ROOT
ATOM      1  C1  <0> d          -0.017   1.375   0.010  0.00  0.00     0.001 A 
ATOM      2  C2  <0> d           1.170   2.091   0.002  0.00  0.00     0.002 A 
ATOM      3  C3  <0> d           2.385   1.434  -0.013  0.00  0.00     0.031 A 
ATOM      4  C4  <0> d           2.425   0.046  -0.021  0.00  0.00     0.049 A 
ATOM      5  C5  <0> d           1.224  -0.681  -0.014  0.00  0.00    -0.009 A 
ATOM      6  C6  <0> d           0.002  -0.004   0.002  0.00  0.00     0.014 A 
ATOM      7  C7  <0> d           1.263  -2.150  -0.022  0.00  0.00     0.017 A 
ATOM      8  C8  <0> d           2.450  -2.785  -0.038  0.00  0.00     0.053 A 
ATOM      9  C9  <0> d           3.700  -2.010  -0.046  0.00  0.00     0.152 A 
ATOM     10  N1  <0> d           4.938  -2.424  -0.060  0.00  0.00    -0.159 NA
ATOM     11  N2  <0> d           5.840  -1.355  -0.062  0.00  0.00    -0.279 N 
ATOM     12  C10 <0> d           5.027  -0.128  -0.048  0.00  0.00     0.272 A 
ATOM     13  N3  <0> d           3.641  -0.619  -0.037  0.00  0.00    -0.297 N 
ATOM     14  H8  <0> d           6.809  -1.412  -0.072  0.00  0.00     0.185 HD
ENDROOT
BRANCH  12  15
ATOM     15  S1  <0> d           5.372   0.845   1.444  0.00  0.00    -0.117 SA
BRANCH  15  16
ATOM     16  C11 <0> d           4.972  -0.284   2.807  0.00  0.00     0.124 C 
BRANCH  16  17
ATOM     17  C12 <0> d           5.221   0.420   4.142  0.00  0.00     0.191 A 
ATOM     18  N5  <0> d           4.379   1.618   4.245  0.00  0.00    -0.366 N 
ATOM     19  C18 <0> d           5.171   2.644   4.363  0.00  0.00     0.056 A 
ATOM     20  H17 <0> d           3.409   1.641   4.229  0.00  0.00     0.162 HD
ATOM     21  C13 <0> d           6.585   2.180   4.343  0.00  0.00     0.056 A 
ATOM     22  C17 <0> d           4.925   4.086   4.502  0.00  0.00     0.031 A 
ATOM     23  N4  <0> d           6.612   0.885   4.215  0.00  0.00    -0.366 N 
ATOM     24  C14 <0> d           7.642   3.194   4.465  0.00  0.00     0.031 A 
ATOM     25  H16 <0> d           7.406   0.328   4.175  0.00  0.00     0.162 HD
ATOM     26  C15 <0> d           7.306   4.493   4.588  0.00  0.00     0.002 A 
ATOM     27  C16 <0> d           5.970   4.932   4.606  0.00  0.00     0.002 A 
ENDBRANCH  16  17
ENDBRANCH  15  16
ENDBRANCH  12  15
TORSDOF 3
