REMARK  3 active torsions:
REMARK  status: ('A' for Active; 'I' for Inactive)
REMARK    1  A    between atoms: N1_6  and  C7_10 
REMARK    2  A    between atoms: C10_13  and  C13_16 
REMARK    3  A    between atoms: C13_16  and  N2_18 
ROOT
ATOM      1  C7  <0> d          -0.414  -4.072   0.829  0.00  0.00     0.045 A 
ATOM      2  C8  <0> d          -1.524  -4.771   0.375  0.00  0.00     0.031 A 
ATOM      3  C9  <0> d          -1.550  -6.150   0.455  0.00  0.00     0.011 A 
ATOM      4  C10 <0> d          -0.472  -6.833   0.987  0.00  0.00    -0.028 A 
ATOM      5  C11 <0> d           0.635  -6.140   1.440  0.00  0.00     0.011 A 
ATOM      6  C12 <0> d           0.669  -4.761   1.357  0.00  0.00     0.031 A 
ENDROOT
BRANCH   1   7
ATOM      7  N1  <0> d          -0.384  -2.672   0.750  0.00  0.00    -0.252 N 
ATOM      8  C4  <0> d           0.109  -2.100  -0.358  0.00  0.00     0.231 C 
ATOM      9  C3  <0> d           0.157  -0.603  -0.511  0.00  0.00     0.108 C 
ATOM     10  O1  <0> d           0.526  -2.802  -1.255  0.00  0.00    -0.273 OA
ATOM     11  C2  <0> d           0.293   0.039   0.874  0.00  0.00    -0.001 C 
ATOM     12  C1  <0> d           0.226   1.562   0.743  0.00  0.00     0.011 C 
ATOM     13  C6  <0> d          -0.859  -0.453   1.756  0.00  0.00     0.108 C 
ATOM     14  C5  <0> d          -0.851  -1.958   1.785  0.00  0.00     0.231 C 
ATOM     15  O2  <0> d          -1.275  -2.536   2.763  0.00  0.00    -0.273 OA
ENDBRANCH   1   7
BRANCH   4  16
ATOM     16  C13 <0> d          -0.504  -8.338   1.073  0.00  0.00     0.214 C 
ATOM     17  C14 <0> d          -0.869  -8.759   2.497  0.00  0.00     0.045 C 
BRANCH  16  18
ATOM     18  N2  <0> d           0.819  -8.876   0.726  0.00  0.00    -0.071 N 
ATOM     19  C15 <0> d           0.757 -10.343   0.693  0.00  0.00     0.267 C 
ATOM     20  H17 <0> d           1.095  -8.531  -0.180  0.00  0.00     0.277 HD
ATOM     21  H21 <0> d           1.493  -8.583   1.418  0.00  0.00     0.277 HD
ENDBRANCH  16  18
ENDBRANCH   4  16
TORSDOF 3
