REMARK  6 active torsions:
REMARK  status: ('A' for Active; 'I' for Inactive)
REMARK    1  A    between atoms: C2_2  and  C3_3 
REMARK    2  A    between atoms: C3_3  and  C4_4 
REMARK    3  A    between atoms: C4_4  and  C5_5 
REMARK    4  A    between atoms: C5_5  and  N1_6 
REMARK    5  A    between atoms: C6_7  and  N2_8 
REMARK    6  A    between atoms: C7_9  and  C17_22 
REMARK       I    between atoms: C17_22  and  N5_24 
ROOT
ATOM      1  N1  <0> d           1.422  -4.011  -2.452  0.00  0.00    -0.316 N 
ATOM      2  C6  <0> d           2.285  -4.665  -1.696  0.00  0.00     0.118 A 
ATOM      3  C7  <0> d           2.376  -6.074  -1.736  0.00  0.00     0.077 A 
ATOM      4  C8  <0> d           1.536  -6.788  -2.593  0.00  0.00     0.042 A 
ATOM      5  C9  <0> d           0.637  -6.067  -3.377  0.00  0.00     0.080 A 
ATOM      6  C10 <0> d           0.595  -4.650  -3.282  0.00  0.00     0.149 A 
ATOM      7  N3  <0> d          -0.278  -3.978  -4.040  0.00  0.00    -0.212 NA
ATOM      8  C11 <0> d          -1.110  -4.591  -4.873  0.00  0.00     0.139 A 
ATOM      9  C12 <0> d          -2.000  -3.804  -5.636  0.00  0.00     0.051 A 
ATOM     10  C13 <0> d          -2.863  -4.407  -6.497  0.00  0.00     0.005 A 
ATOM     11  C14 <0> d          -2.859  -5.806  -6.618  0.00  0.00     0.018 A 
ATOM     12  C15 <0> d          -2.003  -6.546  -5.882  0.00  0.00     0.102 A 
ATOM     13  N4  <0> d          -1.132  -5.952  -5.015  0.00  0.00    -0.273 N 
ATOM     14  C16 <0> d          -0.281  -6.730  -4.304  0.00  0.00     0.267 A 
ATOM     15  O1  <0> d          -0.291  -7.942  -4.421  0.00  0.00    -0.267 OA
ENDROOT
BRANCH   3  16
ATOM     16  C17 <0> d           3.346  -6.781  -0.885  0.00  0.00     0.257 C 
ATOM     17  O2  <0> d           3.412  -6.526   0.303  0.00  0.00    -0.267 OA
ATOM     18  N5  <0> d           4.160  -7.712  -1.421  0.00  0.00    -0.347 N 
ATOM     19  C22 <0> d           5.047  -8.512  -0.566  0.00  0.00     0.130 C 
ATOM     20  C18 <0> d           4.182  -7.941  -2.872  0.00  0.00     0.130 C 
ATOM     21  C21 <0> d           6.478  -8.396  -1.086  0.00  0.00    -0.000 C 
ATOM     22  C20 <0> d           6.513  -8.784  -2.566  0.00  0.00     0.011 C 
ATOM     23  C23 <0> d           7.391  -9.333  -0.291  0.00  0.00     0.011 C 
ATOM     24  C19 <0> d           5.627  -7.827  -3.367  0.00  0.00    -0.000 C 
ATOM     25  C24 <0> d           6.121  -6.392  -3.176  0.00  0.00     0.011 C 
ENDBRANCH   3  16
BRANCH   2  26
ATOM     26  N2  <0> d           3.113  -3.957  -0.851  0.00  0.00    -0.384 N 
ATOM     27  H14 <0> d           2.987  -3.003  -0.734  0.00  0.00     0.157 HD
ATOM     28  H32 <0> d           3.822  -4.415  -0.372  0.00  0.00     0.157 HD
ENDBRANCH   2  26
BRANCH   1  29
ATOM     29  C5  <0> d           1.367  -2.549  -2.373  0.00  0.00     0.132 C 
BRANCH  29  30
ATOM     30  C4  <0> d           0.365  -2.134  -1.295  0.00  0.00     0.020 C 
BRANCH  30  31
ATOM     31  C3  <0> d           0.308  -0.607  -1.212  0.00  0.00     0.001 C 
BRANCH  31  32
ATOM     32  C2  <0> d          -0.695  -0.192  -0.134  0.00  0.00    -0.004 C 
ATOM     33  C1  <0> d          -0.752   1.335  -0.051  0.00  0.00     0.005 C 
ENDBRANCH  31  32
ENDBRANCH  30  31
ENDBRANCH  29  30
ENDBRANCH   1  29
TORSDOF 6
