REMARK  8 active torsions:
REMARK  status: ('A' for Active; 'I' for Inactive)
REMARK       I    between atoms: N1_2  and  C3_4 
REMARK    1  A    between atoms: C3_4  and  C4_6 
REMARK    2  A    between atoms: N2_10  and  C8_11 
REMARK    3  A    between atoms: C8_11  and  C9_12 
REMARK    4  A    between atoms: C9_12  and  C10_13 
REMARK    5  A    between atoms: C10_13  and  N3_14 
REMARK       I    between atoms: N3_14  and  C11_15 
REMARK       I    between atoms: C11_15  and  N4_17 
REMARK    6  A    between atoms: N4_17  and  C12_18 
REMARK    7  A    between atoms: C16_22  and  C18_24 
REMARK    8  A    between atoms: C18_24  and  N5_25 
ROOT
ATOM      1  N3  <0> d           2.552  -5.099  -5.969  0.00  0.00    -0.343 N 
ATOM      2  C11 <0> d           3.581  -5.834  -6.436  0.00  0.00     0.320 C 
ATOM      3  O2  <0> d           4.475  -6.173  -5.686  0.00  0.00    -0.247 OA
ATOM      4  N4  <0> d           3.618  -6.193  -7.735  0.00  0.00    -0.309 N 
ATOM      5  H20 <0> d           1.838  -4.829  -6.568  0.00  0.00     0.164 HD
ATOM      6  H21 <0> d           2.872  -5.981  -8.318  0.00  0.00     0.170 HD
ENDROOT
BRANCH   1   7
ATOM      7  C10 <0> d           2.512  -4.709  -4.558  0.00  0.00     0.126 C 
BRANCH   7   8
ATOM      8  C9  <0> d           1.249  -3.887  -4.292  0.00  0.00     0.047 C 
BRANCH   8   9
ATOM      9  C8  <0> d           1.207  -3.480  -2.817  0.00  0.00     0.237 C 
BRANCH   9  10
ATOM     10  N2  <0> d          -0.005  -2.691  -2.562  0.00  0.00    -0.058 N 
ATOM     11  C4  <0> d           0.009  -2.195  -1.173  0.00  0.00     0.279 C 
ATOM     12  C5  <0> d          -1.250  -2.748  -0.473  0.00  0.00     0.045 C 
ATOM     13  C6  <0> d          -2.202  -3.057  -1.659  0.00  0.00     0.030 C 
ATOM     14  C7  <0> d          -1.205  -3.541  -2.742  0.00  0.00     0.236 C 
ATOM     15  H31 <0> d          -0.042  -1.911  -3.201  0.00  0.00     0.280 HD
BRANCH  11  16
ATOM     16  C3  <0> d          -0.021  -0.688  -1.167  0.00  0.00     0.250 C 
ATOM     17  N1  <0> d          -0.021  -0.019   0.004  0.00  0.00    -0.359 N 
ATOM     18  C1  <0> d          -0.050   1.445   0.010  0.00  0.00     0.152 C 
ATOM     19  C2  <0> d           0.009  -0.757   1.269  0.00  0.00     0.152 C 
ATOM     20  O1  <0> d          -0.046  -0.077  -2.214  0.00  0.00    -0.271 OA
ENDBRANCH  11  16
ENDBRANCH   9  10
ENDBRANCH   8   9
ENDBRANCH   7   8
ENDBRANCH   1   7
BRANCH   4  21
ATOM     21  C12 <0> d           4.731  -6.872  -8.242  0.00  0.00     0.036 A 
ATOM     22  C17 <0> d           5.160  -6.633  -9.541  0.00  0.00     0.038 A 
ATOM     23  C16 <0> d           6.263  -7.300 -10.036  0.00  0.00    -0.038 A 
ATOM     24  C15 <0> d           6.933  -8.214  -9.245  0.00  0.00     0.009 A 
ATOM     25  C14 <0> d           6.505  -8.459  -7.952  0.00  0.00     0.003 A 
ATOM     26  C13 <0> d           5.407  -7.790  -7.449  0.00  0.00     0.029 A 
BRANCH  23  27
ATOM     27  C18 <0> d           6.734  -7.036 -11.444  0.00  0.00     0.171 C 
BRANCH  27  28
ATOM     28  N5  <0> d           6.062  -7.957 -12.364  0.00  0.00    -0.304 N 
ATOM     29  C22 <0> d           4.891  -7.607 -12.929  0.00  0.00     0.348 A 
ATOM     30  N6  <0> d           4.264  -8.428 -13.775  0.00  0.00    -0.206 NA
ATOM     31  O3  <0> d           4.399  -6.522 -12.668  0.00  0.00    -0.244 OA
ATOM     32  C21 <0> d           4.771  -9.608 -14.070  0.00  0.00     0.123 A 
ATOM     33  C20 <0> d           5.982 -10.008 -13.498  0.00  0.00     0.037 A 
ATOM     34  C19 <0> d           6.619  -9.165 -12.641  0.00  0.00     0.097 A 
ENDBRANCH  27  28
ENDBRANCH  23  27
ENDBRANCH   4  21
TORSDOF 8
