REMARK  5 active torsions:
REMARK  status: ('A' for Active; 'I' for Inactive)
REMARK    1  A    between atoms: N2_5  and  C6_8 
REMARK    2  A    between atoms: C6_8  and  C7_9 
REMARK    3  A    between atoms: C11_13  and  C13_15 
REMARK    4  A    between atoms: C14_17  and  C16_20 
REMARK    5  A    between atoms: C16_20  and  C17_21 
REMARK       I    between atoms: C17_21  and  N4_23 
ROOT
ATOM      1  C7  <0> d           2.367  -4.437   1.071  0.00  0.00    -0.029 A 
ATOM      2  C8  <0> d           3.720  -4.591   0.830  0.00  0.00     0.009 A 
ATOM      3  C9  <0> d           4.566  -5.015   1.839  0.00  0.00     0.002 A 
ATOM      4  C10 <0> d           4.063  -5.288   3.095  0.00  0.00     0.014 A 
ATOM      5  C11 <0> d           2.699  -5.134   3.346  0.00  0.00     0.000 A 
ATOM      6  C12 <0> d           1.853  -4.700   2.324  0.00  0.00     0.023 A 
ENDROOT
BRANCH   5   7
ATOM      7  C13 <0> d           2.154  -5.424   4.689  0.00  0.00     0.108 A 
ATOM      8  S1  <0> d           0.470  -5.313   5.278  0.00  0.00    -0.079 SA
ATOM      9  C15 <0> d           0.790  -5.843   6.956  0.00  0.00     0.079 A 
ATOM     10  C14 <0> d           2.134  -6.043   6.903  0.00  0.00     0.051 A 
ATOM     11  N3  <0> d           2.783  -5.832   5.782  0.00  0.00    -0.244 NA
BRANCH  10  12
ATOM     12  C16 <0> d           2.877  -6.507   8.130  0.00  0.00     0.162 C 
BRANCH  12  13
ATOM     13  C17 <0> d           3.646  -7.762   7.806  0.00  0.00     0.225 C 
ATOM     14  O1  <0> d           3.595  -8.234   6.690  0.00  0.00    -0.273 OA
ATOM     15  N4  <0> d           4.389  -8.361   8.758  0.00  0.00    -0.348 N 
ATOM     16  C21 <0> d           5.147  -9.586   8.464  0.00  0.00     0.155 C 
ATOM     17  C18 <0> d           4.459  -7.809  10.120  0.00  0.00     0.155 C 
ATOM     18  C20 <0> d           6.599  -9.377   8.922  0.00  0.00     0.289 C 
ATOM     19  N5  <0> d           6.608  -8.965  10.332  0.00  0.00     0.086 N 
ATOM     20  C19 <0> d           5.934  -7.673  10.514  0.00  0.00     0.289 C 
ATOM     21  H25 <0> d           7.549  -8.937  10.695  0.00  0.00     0.316 HD
ENDBRANCH  12  13
ENDBRANCH  10  12
ENDBRANCH   5   7
BRANCH   1  22
ATOM     22  C6  <0> d           1.453  -3.974  -0.034  0.00  0.00     0.311 C 
BRANCH  22  23
ATOM     23  N2  <0> d           1.378  -2.507  -0.025  0.00  0.00     0.095 N 
ATOM     24  C3  <0> d           0.693  -2.008  -1.226  0.00  0.00     0.300 C 
ATOM     25  C2  <0> d           0.688  -0.477  -1.207  0.00  0.00     0.264 C 
ATOM     26  N1  <0> d           0.002  -0.004   0.002  0.00  0.00    -0.072 N 
ATOM     27  C1  <0> d          -0.018   1.465   0.010  0.00  0.00     0.269 C 
ATOM     28  C5  <0> d           0.713  -0.490   1.192  0.00  0.00     0.264 C 
ATOM     29  H30 <0> d          -0.945  -0.353   0.010  0.00  0.00     0.279 HD
ATOM     30  C4  <0> d           0.717  -2.021   1.194  0.00  0.00     0.300 C 
ENDBRANCH  22  23
ENDBRANCH   1  22
TORSDOF 5
