REMARK  5 active torsions:
REMARK  status: ('A' for Active; 'I' for Inactive)
REMARK    1  A    between atoms: C2_2  and  N1_13 
REMARK    2  A    between atoms: C5_8  and  C6_9 
REMARK    3  A    between atoms: C5_8  and  N1_13 
REMARK    4  A    between atoms: C6_9  and  C7_10 
REMARK    5  A    between atoms: C7_10  and  C8_11 
ROOT
ATOM      1  N1  <0> d          -2.252   1.142  -0.912  0.00  0.00    -0.067 N 
ATOM      2  H12 <0> d          -1.725   0.761  -1.707  0.00  0.00     0.277 HD
ATOM      3  H13 <0> d          -2.936   1.829  -1.252  0.00  0.00     0.277 HD
ENDROOT
BRANCH   1   4
ATOM      4  C2  <0> d          -1.318   1.804   0.018  0.00  0.00     0.223 C 
ATOM      5  C1  <0> d          -1.128   3.279  -0.421  0.00  0.00     0.181 C 
ATOM      6  S1  <0> d           0.657   3.468  -0.005  0.00  0.00     0.167 S 
ATOM      7  C4  <0> d           1.111   1.743   0.001  0.00  0.00     0.107 C 
ATOM      8  O1  <0> d           0.825   3.919   1.332  0.00  0.00    -0.223 OA
ATOM      9  O2  <0> d           1.374   4.056  -1.082  0.00  0.00    -0.223 OA
ATOM     10  C3  <0> d          -0.013   1.076   0.008  0.00  0.00     0.018 C 
ENDBRANCH   1   4
BRANCH   1  11
ATOM     11  C5  <0> d          -2.963   0.044  -0.229  0.00  0.00     0.233 C 
BRANCH  11  12
ATOM     12  C6  <0> d          -3.923  -0.622  -1.217  0.00  0.00     0.038 C 
BRANCH  12  13
ATOM     13  C7  <0> d          -4.665  -1.762  -0.516  0.00  0.00     0.115 C 
BRANCH  13  14
ATOM     14  C8  <0> d          -5.610  -2.419  -1.489  0.00  0.00     0.172 C 
ATOM     15  O3  <0> d          -5.683  -2.017  -2.626  0.00  0.00    -0.648 OA
ATOM     16  O4  <0> d          -6.371  -3.451  -1.092  0.00  0.00    -0.648 OA
ENDBRANCH  13  14
ENDBRANCH  12  13
ENDBRANCH  11  12
ENDBRANCH   1  11
TORSDOF 5
