REMARK  4 active torsions:
REMARK  status: ('A' for Active; 'I' for Inactive)
REMARK    1  A    between atoms: C6_6  and  N1_9 
REMARK    2  A    between atoms: C12_14  and  N3_18 
REMARK       I    between atoms: N3_18  and  C16_19 
REMARK    3  A    between atoms: C16_19  and  C17_21 
REMARK    4  A    between atoms: C17_21  and  N4_22 
ROOT
ATOM      1  N1  <0> d           0.025  -0.003   0.080  0.00  0.00    -0.237 N 
ATOM      2  C9  <0> d          -1.040  -0.817   0.205  0.00  0.00     0.046 A 
ATOM      3  C10 <0> d          -0.589  -2.097   0.189  0.00  0.00     0.008 A 
ATOM      4  C11 <0> d           0.798  -2.063   0.052  0.00  0.00     0.150 A 
ATOM      5  N2  <0> d           1.169  -0.808  -0.019  0.00  0.00    -0.179 NA
ATOM      6  C12 <0> d          -1.479  -3.309   0.302  0.00  0.00     0.121 C 
ATOM      7  C13 <0> d          -2.923  -2.877   0.016  0.00  0.00     0.030 C 
ATOM      8  C14 <0> d          -3.267  -1.650   0.864  0.00  0.00     0.008 C 
ATOM      9  C15 <0> d          -2.492  -0.433   0.342  0.00  0.00     0.060 C 
ENDROOT
BRANCH   6  10
ATOM     10  N3  <0> d          -1.063  -4.319  -0.674  0.00  0.00    -0.351 N 
ATOM     11  C16 <0> d          -0.073  -5.182  -0.371  0.00  0.00     0.236 C 
ATOM     12  O1  <0> d           0.474  -5.122   0.710  0.00  0.00    -0.272 OA
ATOM     13  H18 <0> d          -1.501  -4.367  -1.538  0.00  0.00     0.163 HD
BRANCH  11  14
ATOM     14  C17 <0> d           0.354  -6.221  -1.375  0.00  0.00     0.237 C 
BRANCH  14  15
ATOM     15  N4  <0> d           1.439  -7.028  -0.811  0.00  0.00    -0.282 N 
ATOM     16  C24 <0> d           2.759  -6.776  -0.917  0.00  0.00     0.373 A 
ATOM     17  O2  <0> d           3.449  -7.730  -0.272  0.00  0.00    -0.259 OA
ATOM     18  O3  <0> d           3.248  -5.830  -1.503  0.00  0.00    -0.237 OA
ATOM     19  C23 <0> d           2.581  -8.626   0.258  0.00  0.00     0.107 A 
ATOM     20  C18 <0> d           1.294  -8.202  -0.071  0.00  0.00     0.073 A 
ATOM     21  C22 <0> d           2.754  -9.784   1.001  0.00  0.00     0.040 A 
ATOM     22  C19 <0> d           0.194  -8.935   0.344  0.00  0.00     0.033 A 
ATOM     23  C20 <0> d           0.376 -10.087   1.085  0.00  0.00     0.002 A 
ATOM     24  C21 <0> d           1.653 -10.510   1.412  0.00  0.00     0.003 A 
ENDBRANCH  14  15
ENDBRANCH  11  14
ENDBRANCH   6  10
BRANCH   1  25
ATOM     25  C6  <0> d          -0.006   1.398   0.049  0.00  0.00     0.065 A 
ATOM     26  C5  <0> d          -0.899   2.056  -0.786  0.00  0.00     0.032 A 
ATOM     27  C4  <0> d          -0.930   3.437  -0.811  0.00  0.00     0.003 A 
ATOM     28  C3  <0> d          -0.065   4.163  -0.014  0.00  0.00     0.007 A 
ATOM     29  C2  <0> d           0.829   3.511   0.815  0.00  0.00    -0.054 A 
ATOM     30  C1  <0> d           1.770   4.307   1.682  0.00  0.00     0.049 C 
ATOM     31  C7  <0> d           0.861   2.131   0.848  0.00  0.00    -0.027 A 
ATOM     32  C8  <0> d           1.837   1.421   1.751  0.00  0.00     0.051 C 
ENDBRANCH   1  25
TORSDOF 4
