REMARK  4 active torsions:
REMARK  status: ('A' for Active; 'I' for Inactive)
REMARK    1  A    between atoms: C5_5  and  O1_9 
REMARK    2  A    between atoms: O1_9  and  C9_10 
REMARK    3  A    between atoms: C9_10  and  C10_12 
REMARK    4  A    between atoms: C13_18  and  C14_19 
ROOT
ATOM      1  C10 <0> d           2.784   4.306   1.430  0.00  0.00     0.066 A 
ATOM      2  C11 <0> d           2.932   5.615   1.724  0.00  0.00     0.024 A 
ATOM      3  N1  <0> d           2.783   6.574   0.763  0.00  0.00    -0.312 N 
ATOM      4  C12 <0> d           2.489   6.304  -0.515  0.00  0.00     0.321 A 
ATOM      5  O3  <0> d           2.378   7.226  -1.299  0.00  0.00    -0.247 OA
ATOM      6  N2  <0> d           2.313   5.045  -0.961  0.00  0.00    -0.330 N 
ATOM      7  C13 <0> d           2.451   3.936  -0.001  0.00  0.00     0.161 A 
ATOM      8  C20 <0> d           3.263   6.025   3.136  0.00  0.00     0.069 C 
ATOM      9  H17 <0> d           2.898   7.502   1.021  0.00  0.00     0.170 HD
ATOM     10  H18 <0> d           2.100   4.872  -1.891  0.00  0.00     0.165 HD
ENDROOT
BRANCH   1  11
ATOM     11  C9  <0> d           2.937   3.312   2.425  0.00  0.00     0.294 C 
ATOM     12  O2  <0> d           3.205   3.632   3.568  0.00  0.00    -0.259 OA
BRANCH  11  13
ATOM     13  O1  <0> d           2.786   2.009   2.107  0.00  0.00    -0.312 OA
BRANCH  13  14
ATOM     14  C5  <0> d           2.954   1.060   3.162  0.00  0.00     0.132 C 
ATOM     15  C4  <0> d           1.607   0.810   3.843  0.00  0.00     0.033 C 
ATOM     16  C3  <0> d           1.787  -0.206   4.972  0.00  0.00     0.007 C 
ATOM     17  C2  <0> d           2.318  -1.520   4.395  0.00  0.00    -0.015 C 
ATOM     18  C1  <0> d           1.322  -2.067   3.371  0.00  0.00     0.010 C 
ATOM     19  C7  <0> d           3.665  -1.270   3.714  0.00  0.00    -0.013 C 
ATOM     20  C6  <0> d           3.485  -0.254   2.585  0.00  0.00     0.037 C 
ATOM     21  C8  <0> d           4.197  -2.584   3.138  0.00  0.00     0.010 C 
ENDBRANCH  13  14
ENDBRANCH  11  13
ENDBRANCH   1  11
BRANCH   7  22
ATOM     22  C14 <0> d           1.156   3.166   0.008  0.00  0.00    -0.031 A 
ATOM     23  C19 <0> d          -0.050   3.841   0.022  0.00  0.00     0.011 A 
ATOM     24  C18 <0> d          -1.238   3.134   0.030  0.00  0.00     0.019 A 
ATOM     25  C17 <0> d          -1.220   1.751   0.017  0.00  0.00     0.011 A 
ATOM     26  C16 <0> d          -0.013   1.076   0.008  0.00  0.00     0.019 A 
ATOM     27 Br1  <0> d          -2.845   0.784   0.020  0.00  0.00    -0.051 Br
ATOM     28  C15 <0> d           1.175   1.783   0.000  0.00  0.00     0.011 A 
ENDBRANCH   7  22
TORSDOF 4
