REMARK  2 active torsions:
REMARK  status: ('A' for Active; 'I' for Inactive)
REMARK    1  A    between atoms: C6_7  and  S1_8 
REMARK    2  A    between atoms: S1_8  and  C7_11 
ROOT
ATOM      1  C1  <0> d          -0.013   1.086   0.008  0.00  0.00     0.050 C 
ATOM      2  C2  <0> d          -0.742   1.585  -1.213  0.00  0.00    -0.033 A 
ATOM      3  C3  <0> d          -1.274   0.679  -2.141  0.00  0.00     0.033 A 
ATOM      4  C4  <0> d          -1.927   1.136  -3.234  0.00  0.00     0.009 A 
ATOM      5  N1  <0> d          -2.074   2.469  -3.446  0.00  0.00    -0.326 N 
ATOM      6  C5  <0> d          -1.574   3.365  -2.574  0.00  0.00     0.267 A 
ATOM      7  C6  <0> d          -0.896   2.924  -1.425  0.00  0.00     0.133 A 
ATOM      8  O3  <0> d          -1.714   4.560  -2.779  0.00  0.00    -0.267 OA
ATOM      9  C10 <0> d          -2.496   0.156  -4.227  0.00  0.00     0.068 C 
ATOM     10  H12 <0> d          -2.545   2.780  -4.235  0.00  0.00     0.169 HD
ENDROOT
BRANCH   7  11
ATOM     11  S1  <0> d          -0.244   4.088  -0.274  0.00  0.00     0.184 S 
ATOM     12  O1  <0> d          -1.331   4.956   0.019  0.00  0.00    -0.222 OA
ATOM     13  O2  <0> d           0.345   3.296   0.749  0.00  0.00    -0.222 OA
BRANCH  11  14
ATOM     14  C7  <0> d           1.040   4.982  -1.191  0.00  0.00     0.105 C 
ATOM     15  C8  <0> d           1.765   5.943  -0.247  0.00  0.00     0.026 C 
ATOM     16  C9  <0> d           2.043   3.982  -1.770  0.00  0.00     0.026 C 
ENDBRANCH  11  14
ENDBRANCH   7  11
TORSDOF 2
