REMARK  8 active torsions:
REMARK  status: ('A' for Active; 'I' for Inactive)
REMARK    1  A    between atoms: C2_2  and  C3_3 
REMARK    2  A    between atoms: C2_2  and  N4_34 
REMARK    3  A    between atoms: C3_3  and  O1_4 
REMARK    4  A    between atoms: C4_5  and  C5_6 
REMARK    5  A    between atoms: C4_5  and  N4_34 
REMARK    6  A    between atoms: C8_9  and  C11_12 
REMARK    7  A    between atoms: C15_17  and  N2_21 
REMARK    8  A    between atoms: N2_21  and  C18_22 
ROOT
ATOM      1  C11 <0> d           3.295  -7.048   0.417  0.00  0.00     0.018 A 
ATOM      2  C12 <0> d           4.495  -6.418   0.346  0.00  0.00     0.053 A 
ATOM      3  C13 <0> d           4.582  -5.037   0.602  0.00  0.00     0.077 A 
ATOM      4  C14 <0> d           3.361  -4.405   0.923  0.00  0.00     0.061 A 
ATOM      5  S1  <0> d           2.179  -5.726   0.856  0.00  0.00    -0.085 SA
ATOM      6  C15 <0> d           3.291  -3.050   1.200  0.00  0.00     0.053 A 
ATOM      7  C16 <0> d           4.473  -2.310   1.148  0.00  0.00     0.050 A 
ATOM      8  C17 <0> d           5.648  -2.970   0.834  0.00  0.00     0.119 A 
ATOM      9  N1  <0> d           5.685  -4.253   0.577  0.00  0.00    -0.260 NA
ENDROOT
BRANCH   1  10
ATOM     10  C8  <0> d           2.988  -8.476   0.188  0.00  0.00    -0.019 A 
ATOM     11  C7  <0> d           1.677  -8.939   0.310  0.00  0.00     0.013 A 
ATOM     12  C6  <0> d           1.397 -10.273   0.095  0.00  0.00     0.010 A 
ATOM     13  C5  <0> d           2.413 -11.150  -0.241  0.00  0.00    -0.033 A 
ATOM     14  C10 <0> d           3.714 -10.698  -0.363  0.00  0.00     0.010 A 
ATOM     15  C9  <0> d           4.006  -9.365  -0.156  0.00  0.00     0.013 A 
BRANCH  13  16
ATOM     16  C4  <0> d           2.099 -12.606  -0.475  0.00  0.00     0.273 C 
BRANCH  16  17
ATOM     17  N4  <0> d           1.761 -12.797  -1.901  0.00  0.00    -0.069 N 
ATOM     18  C1  <0> d           2.957 -12.571  -2.739  0.00  0.00     0.270 C 
ATOM     19  H25 <0> d           1.036 -12.120  -2.165  0.00  0.00     0.279 HD
BRANCH  17  20
ATOM     20  C2  <0> d           1.243 -14.164  -2.118  0.00  0.00     0.260 C 
BRANCH  20  21
ATOM     21  C3  <0> d          -0.208 -14.222  -1.634  0.00  0.00     0.192 C 
BRANCH  21  22
ATOM     22  O1  <0> d          -1.007 -13.335  -2.419  0.00  0.00    -0.399 OA
ATOM     23  H9  <0> d          -1.941 -13.320  -2.167  0.00  0.00     0.209 HD
ENDBRANCH  21  22
ENDBRANCH  20  21
ENDBRANCH  17  20
ENDBRANCH  16  17
ENDBRANCH  13  16
ENDBRANCH   1  10
BRANCH   6  24
ATOM     24  N2  <0> d           2.077  -2.443   1.515  0.00  0.00    -0.355 N 
ATOM     25  H19 <0> d           1.651  -1.850   0.876  0.00  0.00     0.166 HD
BRANCH  24  26
ATOM     26  C18 <0> d           1.471  -2.690   2.752  0.00  0.00     0.033 A 
ATOM     27  C23 <0> d           0.206  -2.196   3.011  0.00  0.00     0.043 A 
ATOM     28  C22 <0> d          -0.392  -2.446   4.248  0.00  0.00    -0.006 A 
ATOM     29  C21 <0> d           0.292  -3.196   5.221  0.00  0.00     0.042 A 
ATOM     30  C24 <0> d          -1.678  -2.081   4.847  0.00  0.00     0.030 A 
ATOM     31  C20 <0> d           1.565  -3.684   4.943  0.00  0.00     0.033 A 
ATOM     32  N3  <0> d          -0.533  -3.278   6.324  0.00  0.00    -0.365 N 
ATOM     33  C19 <0> d           2.146  -3.433   3.720  0.00  0.00     0.032 A 
ATOM     34  C25 <0> d          -1.702  -2.612   6.080  0.00  0.00     0.089 A 
ATOM     35  H1  <0> d          -0.316  -3.740   7.149  0.00  0.00     0.165 HD
ENDBRANCH  24  26
ENDBRANCH   6  24
TORSDOF 8
