REMARK  2 active torsions:
REMARK  status: ('A' for Active; 'I' for Inactive)
REMARK    1  A    between atoms: C5_7  and  N3_11 
REMARK    2  A    between atoms: N3_11  and  C9_12 
ROOT
ATOM      1  C1  <0> d           0.242   1.577  -0.490  0.00  0.00     0.179 C 
ATOM      2  N1  <0> d           0.178   0.117  -0.388  0.00  0.00    -0.278 N 
ATOM      3  C2  <0> d           0.210  -0.749  -1.414  0.00  0.00     0.040 A 
ATOM      4  C3  <0> d           0.130  -2.004  -0.902  0.00  0.00     0.018 A 
ATOM      5  C4  <0> d           0.045  -1.897   0.484  0.00  0.00     0.150 A 
ATOM      6  N2  <0> d           0.078  -0.625   0.798  0.00  0.00    -0.184 NA
ATOM      7  C5  <0> d           0.139  -3.260  -1.736  0.00  0.00     0.257 C 
ATOM      8  C6  <0> d           0.659  -2.908  -3.135  0.00  0.00     0.041 C 
ATOM      9  C7  <0> d          -0.102  -1.692  -3.672  0.00  0.00     0.008 C 
ATOM     10  C8  <0> d           0.313  -0.442  -2.887  0.00  0.00     0.059 C 
ENDROOT
BRANCH   7  11
ATOM     11  N3  <0> d           1.021  -4.259  -1.117  0.00  0.00     0.099 N 
ATOM     12  H13 <0> d           1.985  -4.091  -1.363  0.00  0.00     0.317 HD
BRANCH  11  13
ATOM     13  C9  <0> d           0.613  -5.621  -1.484  0.00  0.00     0.248 C 
ATOM     14  C12 <0> d           1.802  -6.608  -1.365  0.00  0.00     0.269 C 
ATOM     15  N4  <0> d           1.175  -7.930  -1.150  0.00  0.00    -0.073 N 
ATOM     16  C11 <0> d          -0.166  -7.725  -0.571  0.00  0.00     0.236 C 
ATOM     17  C13 <0> d           1.996  -8.722  -0.226  0.00  0.00     0.269 C 
ATOM     18  H23 <0> d           1.093  -8.414  -2.031  0.00  0.00     0.279 HD
ATOM     19  C10 <0> d          -0.383  -6.202  -0.446  0.00  0.00     0.065 C 
ENDBRANCH  11  13
ENDBRANCH   7  11
TORSDOF 2
