REMARK  2 active torsions:
REMARK  status: ('A' for Active; 'I' for Inactive)
REMARK    1  A    between atoms: C4_4  and  C9_10 
REMARK    2  A    between atoms: C7_7  and  O1_8 
ROOT
ATOM      1  C9  <0> d           0.027  -2.816  -2.517  0.00  0.00     0.310 C 
ATOM      2  C10 <0> d          -1.366  -3.288  -2.824  0.00  0.00     0.253 C 
ATOM      3  O2  <0> d          -2.295  -2.538  -2.613  0.00  0.00    -0.271 OA
ATOM      4  N1  <0> d          -1.622  -4.503  -3.322  0.00  0.00    -0.357 N 
ATOM      5  C11 <0> d          -0.573  -5.485  -3.583  0.00  0.00     0.150 C 
ATOM      6  C12 <0> d           0.790  -4.790  -3.629  0.00  0.00     0.253 C 
ATOM      7  N2  <0> d           0.938  -3.963  -2.422  0.00  0.00    -0.057 N 
ATOM      8  H11 <0> d          -2.542  -4.742  -3.516  0.00  0.00     0.162 HD
ATOM      9  H16 <0> d           1.890  -3.634  -2.355  0.00  0.00     0.278 HD
ATOM     10  H17 <0> d           0.710  -4.510  -1.606  0.00  0.00     0.278 HD
ENDROOT
BRANCH   1  11
ATOM     11  C4  <0> d           0.024  -2.071  -1.206  0.00  0.00    -0.018 A 
ATOM     12  C3  <0> d           0.006  -0.689  -1.198  0.00  0.00     0.019 A 
ATOM     13  C2  <0> d           0.002  -0.004   0.002  0.00  0.00    -0.028 A 
ATOM     14  C1  <0> d          -0.018   1.503   0.010  0.00  0.00     0.051 C 
ATOM     15  C7  <0> d           0.023  -0.705   1.199  0.00  0.00     0.074 A 
ATOM     16  C6  <0> d           0.036  -2.092   1.188  0.00  0.00     0.038 A 
ATOM     17  C5  <0> d           0.039  -2.772  -0.014  0.00  0.00     0.012 A 
BRANCH  15  18
ATOM     18  O1  <0> d           0.025  -0.033   2.381  0.00  0.00    -0.355 OA
ATOM     19  C8  <0> d           0.048  -0.820   3.574  0.00  0.00     0.210 C 
ENDBRANCH  15  18
ENDBRANCH   1  11
TORSDOF 2
