REMARK  4 active torsions:
REMARK  status: ('A' for Active; 'I' for Inactive)
REMARK    1  A    between atoms: C2_2  and  C3_3 
REMARK    2  A    between atoms: C2_2  and  N2_13 
REMARK       I    between atoms: C3_3  and  N1_5 
REMARK    3  A    between atoms: N1_5  and  C4_6 
REMARK       I    between atoms: N2_13  and  C10_14 
REMARK    4  A    between atoms: C10_14  and  C11_16 
ROOT
ATOM      1  N2  <0> d           0.689  -0.479  -1.202  0.00  0.00    -0.346 N 
ATOM      2  C10 <0> d           2.031  -0.596  -1.212  0.00  0.00     0.250 C 
ATOM      3  O2  <0> d           2.673  -0.312  -0.223  0.00  0.00    -0.271 OA
ATOM      4  H15 <0> d           0.176  -0.705  -1.993  0.00  0.00     0.163 HD
ENDROOT
BRANCH   2   5
ATOM      5  C11 <0> d           2.736  -1.078  -2.454  0.00  0.00     0.248 C 
ATOM      6  O3  <0> d           4.171  -1.016  -2.256  0.00  0.00    -0.341 OA
ATOM      7  C15 <0> d           4.894  -1.500  -3.355  0.00  0.00     0.296 C 
ATOM      8  C14 <0> d           4.562  -3.005  -3.600  0.00  0.00     0.212 C 
ATOM      9  O4  <0> d           6.310  -1.502  -3.328  0.00  0.00    -0.323 OA
ATOM     10  C13 <0> d           3.113  -3.010  -3.999  0.00  0.00     0.191 C 
ATOM     11  O5  <0> d           5.524  -3.326  -4.609  0.00  0.00    -0.343 OA
ATOM     12  C12 <0> d           2.349  -2.511  -2.732  0.00  0.00     0.195 C 
ATOM     13  O6  <0> d           2.462  -4.248  -4.248  0.00  0.00    -0.345 OA
ATOM     14  O7  <0> d           1.009  -2.787  -3.129  0.00  0.00    -0.345 OA
ATOM     15  C19 <0> d           1.111  -4.086  -3.759  0.00  0.00     0.158 C 
ATOM     16  C20 <0> d           0.127  -4.162  -4.929  0.00  0.00     0.078 C 
ATOM     17  C21 <0> d           0.792  -5.189  -2.748  0.00  0.00     0.078 C 
ATOM     18  C16 <0> d           6.715  -2.608  -4.168  0.00  0.00     0.160 C 
ATOM     19  C17 <0> d           7.485  -2.079  -5.380  0.00  0.00     0.078 C 
ATOM     20  C18 <0> d           7.605  -3.563  -3.370  0.00  0.00     0.078 C 
ENDBRANCH   2   5
BRANCH   1  21
ATOM     21  C2  <0> d           0.004  -0.009   0.005  0.00  0.00     0.173 C 
ATOM     22  C1  <0> d          -0.009   1.520   0.022  0.00  0.00     0.042 C 
BRANCH  21  23
ATOM     23  C3  <0> d          -1.412  -0.524   0.012  0.00  0.00     0.244 C 
ATOM     24  O1  <0> d          -1.810  -1.215  -0.902  0.00  0.00    -0.271 OA
ATOM     25  N1  <0> d          -2.236  -0.217   1.033  0.00  0.00    -0.325 N 
ATOM     26  H10 <0> d          -1.899   0.279   1.796  0.00  0.00     0.169 HD
BRANCH  25  27
ATOM     27  C4  <0> d          -3.578  -0.613   0.993  0.00  0.00     0.034 A 
ATOM     28  C9  <0> d          -3.929  -1.823   0.409  0.00  0.00     0.031 A 
ATOM     29  C8  <0> d          -5.254  -2.213   0.375  0.00  0.00     0.021 A 
ATOM     30  C7  <0> d          -6.231  -1.395   0.913  0.00  0.00     0.011 A 
ATOM     31  C6  <0> d          -5.885  -0.187   1.491  0.00  0.00     0.021 A 
ATOM     32 Br1  <0> d          -8.044  -1.930   0.859  0.00  0.00    -0.051 Br
ATOM     33  C5  <0> d          -4.561   0.206   1.532  0.00  0.00     0.031 A 
ENDBRANCH  25  27
ENDBRANCH  21  23
ENDBRANCH   1  21
TORSDOF 4
