REMARK  4 active torsions:
REMARK  status: ('A' for Active; 'I' for Inactive)
REMARK    1  A    between atoms: C6_6  and  N1_8 
REMARK    2  A    between atoms: C10_12  and  C22_29 
REMARK    3  A    between atoms: C22_29  and  C23_30 
REMARK    4  A    between atoms: C23_30  and  C24_31 
REMARK       I    between atoms: C24_31  and  N4_33 
ROOT
ATOM      1  N1  <0> d           0.050  -2.798   2.395  0.00  0.00    -0.252 N 
ATOM      2  C8  <0> d           0.141  -2.196   3.587  0.00  0.00     0.238 A 
ATOM      3  O1  <0> d           0.218  -0.999   3.762  0.00  0.00    -0.272 OA
ATOM      4  C9  <0> d           0.131  -3.240   4.680  0.00  0.00     0.128 A 
ATOM      5  C10 <0> d           1.520  -3.281   5.353  0.00  0.00     0.237 C 
ATOM      6  N2  <0> d           1.852  -4.727   5.454  0.00  0.00     0.113 N 
ATOM      7  C11 <0> d           1.349  -5.302   4.191  0.00  0.00     0.279 A 
ATOM      8  C12 <0> d           0.012  -4.577   3.896  0.00  0.00     0.147 A 
ATOM      9  C13 <0> d          -0.030  -4.133   2.452  0.00  0.00     0.239 A 
ATOM     10  O2  <0> d          -0.120  -4.870   1.494  0.00  0.00    -0.272 OA
ATOM     11  C14 <0> d           2.339  -5.129   3.075  0.00  0.00     0.018 A 
ATOM     12  C15 <0> d           2.926  -4.029   2.489  0.00  0.00     0.014 A 
ATOM     13  C16 <0> d           3.827  -4.194   1.453  0.00  0.00     0.025 A 
ATOM     14  C17 <0> d           4.137  -5.467   1.005  0.00  0.00     0.042 A 
ATOM     15  C18 <0> d           3.550  -6.572   1.589  0.00  0.00    -0.013 A 
ATOM     16  C19 <0> d           2.642  -6.414   2.633  0.00  0.00     0.051 A 
ATOM     17  N3  <0> d           1.929  -7.359   3.373  0.00  0.00    -0.323 N 
ATOM     18  C20 <0> d           1.147  -6.788   4.309  0.00  0.00     0.267 A 
ATOM     19  O3  <0> d           0.420  -7.360   5.093  0.00  0.00    -0.270 OA
ATOM     20  C21 <0> d           3.893  -7.953   1.095  0.00  0.00     0.052 C 
ATOM     21 Cl1  <0> d           5.268  -5.674  -0.295  0.00  0.00    -0.084 Cl
ATOM     22  H11 <0> d           2.848  -4.864   5.542  0.00  0.00     0.318 HD
ATOM     23  H14 <0> d           1.990  -8.317   3.230  0.00  0.00     0.169 HD
ENDROOT
BRANCH   5  24
ATOM     24  C22 <0> d           1.455  -2.650   6.745  0.00  0.00     0.045 C 
BRANCH  24  25
ATOM     25  C23 <0> d           2.862  -2.588   7.343  0.00  0.00     0.105 C 
BRANCH  25  26
ATOM     26  C24 <0> d           2.798  -1.966   8.714  0.00  0.00     0.215 C 
ATOM     27  O4  <0> d           1.732  -1.607   9.169  0.00  0.00    -0.274 OA
ATOM     28  N4  <0> d           3.926  -1.808   9.436  0.00  0.00    -0.370 N 
ATOM     29  H22 <0> d           4.778  -2.094   9.072  0.00  0.00     0.159 HD
ATOM     30  H23 <0> d           3.885  -1.407  10.318  0.00  0.00     0.159 HD
ENDBRANCH  25  26
ENDBRANCH  24  25
ENDBRANCH   5  24
BRANCH   1  31
ATOM     31  C6  <0> d           0.035  -2.089   1.186  0.00  0.00     0.045 A 
ATOM     32  C5  <0> d           1.166  -1.399   0.770  0.00  0.00     0.030 A 
ATOM     33  C4  <0> d           1.149  -0.701  -0.421  0.00  0.00     0.003 A 
ATOM     34  C3  <0> d           0.006  -0.689  -1.200  0.00  0.00     0.007 A 
ATOM     35  C2  <0> d          -1.122  -1.375  -0.789  0.00  0.00    -0.060 A 
ATOM     36  C1  <0> d          -2.365  -1.359  -1.641  0.00  0.00     0.048 C 
ATOM     37  C7  <0> d          -1.112  -2.070   0.405  0.00  0.00     0.037 A 
ENDBRANCH   1  31
TORSDOF 4
