REMARK  4 active torsions:
REMARK  status: ('A' for Active; 'I' for Inactive)
REMARK    1  A    between atoms: C3_4  and  S1_7 
REMARK    2  A    between atoms: S1_7  and  N3_10 
REMARK    3  A    between atoms: N3_10  and  C5_11 
REMARK    4  A    between atoms: C8_14  and  S2_18 
ROOT
ATOM      1  C5  <0> d          -1.831  -5.077  -2.710  0.00  0.00     0.076 A 
ATOM      2  C6  <0> d          -0.805  -5.842  -3.249  0.00  0.00     0.076 A 
ATOM      3  C7  <0> d          -1.101  -6.954  -4.016  0.00  0.00     0.143 A 
ATOM      4  C8  <0> d          -2.421  -7.305  -4.247  0.00  0.00     0.135 A 
ATOM      5  C9  <0> d          -3.446  -6.543  -3.712  0.00  0.00     0.143 A 
ATOM      6  C10 <0> d          -3.154  -5.434  -2.938  0.00  0.00     0.076 A 
ATOM      7  F1  <0> d          -4.733  -6.887  -3.940  0.00  0.00    -0.204 F 
ATOM      8  F2  <0> d          -0.103  -7.699  -4.540  0.00  0.00    -0.204 F 
ENDROOT
BRANCH   1   9
ATOM      9  N3  <0> d          -1.534  -3.954  -1.936  0.00  0.00    -0.159 NA
BRANCH   9  10
ATOM     10  S1  <0> d           0.044  -3.529  -1.664  0.00  0.00     0.300 S 
ATOM     11  O1  <0> d           0.583  -3.145  -2.921  0.00  0.00    -0.197 OA
ATOM     12  O2  <0> d           0.613  -4.565  -0.875  0.00  0.00    -0.197 OA
BRANCH  10  13
ATOM     13  C3  <0> d           0.028  -2.081  -0.660  0.00  0.00     0.167 A 
ATOM     14  C2  <0> d           0.008  -0.810  -1.104  0.00  0.00     0.135 A 
ATOM     15  N1  <0> d           0.002  -0.004   0.002  0.00  0.00    -0.354 N 
ATOM     16  C1  <0> d          -0.018   1.461   0.010  0.00  0.00     0.156 C 
ATOM     17  C4  <0> d           0.024  -0.811   1.085  0.00  0.00     0.183 A 
ATOM     18  N2  <0> d           0.034  -2.052   0.681  0.00  0.00    -0.340 N 
ATOM     19  H11 <0> d           0.048  -2.831   1.260  0.00  0.00     0.167 HD
ENDBRANCH  10  13
ENDBRANCH   9  10
ENDBRANCH   1   9
BRANCH   4  20
ATOM     20  S2  <0> d          -2.796  -8.722  -5.225  0.00  0.00     0.177 S 
ATOM     21  O3  <0> d          -4.084  -8.459  -5.765  0.00  0.00    -0.223 OA
ATOM     22  O4  <0> d          -1.671  -8.882  -6.079  0.00  0.00    -0.223 OA
ATOM     23  C11 <0> d          -2.883 -10.095  -4.043  0.00  0.00     0.167 C 
ENDBRANCH   4  20
TORSDOF 4
