REMARK  5 active torsions:
REMARK  status: ('A' for Active; 'I' for Inactive)
REMARK    1  A    between atoms: C6_6  and  C7_7 
REMARK    2  A    between atoms: C7_7  and  C8_8 
REMARK       I    between atoms: C8_8  and  N1_10 
REMARK    3  A    between atoms: N1_10  and  C9_11 
REMARK    4  A    between atoms: C9_11  and  C10_12 
REMARK       I    between atoms: C10_12  and  N2_14 
REMARK    5  A    between atoms: N2_14  and  C11_15 
ROOT
ATOM      1  C10 <0> d          -4.605  -2.716  -3.017  0.00  0.00     0.239 C 
ATOM      2  O2  <0> d          -5.112  -3.040  -1.963  0.00  0.00    -0.271 OA
ATOM      3  N2  <0> d          -5.197  -3.053  -4.180  0.00  0.00    -0.326 N 
ATOM      4  H12 <0> d          -4.829  -2.737  -5.021  0.00  0.00     0.169 HD
ENDROOT
BRANCH   1   5
ATOM      5  C9  <0> d          -3.315  -1.938  -3.025  0.00  0.00     0.225 C 
BRANCH   5   6
ATOM      6  N1  <0> d          -2.880  -1.699  -1.647  0.00  0.00    -0.352 N 
ATOM      7  C8  <0> d          -1.742  -1.017  -1.408  0.00  0.00     0.222 C 
ATOM      8  O1  <0> d          -1.079  -0.600  -2.334  0.00  0.00    -0.273 OA
ATOM      9  H9  <0> d          -3.410  -2.032  -0.906  0.00  0.00     0.162 HD
BRANCH   7  10
ATOM     10  C7  <0> d          -1.295  -0.771   0.010  0.00  0.00     0.141 C 
BRANCH  10  11
ATOM     11  C6  <0> d          -0.004   0.008   0.001  0.00  0.00    -0.049 A 
ATOM     12  C1  <0> d          -0.031   1.390   0.015  0.00  0.00     0.009 A 
ATOM     13  C2  <0> d           1.152   2.104   0.008  0.00  0.00     0.019 A 
ATOM     14  C3  <0> d           2.363   1.436  -0.014  0.00  0.00     0.011 A 
ATOM     15  C4  <0> d           2.389   0.053  -0.028  0.00  0.00     0.019 A 
ATOM     16 Br1  <0> d           3.982   2.413  -0.025  0.00  0.00    -0.051 Br
ATOM     17  C5  <0> d           1.206  -0.660  -0.020  0.00  0.00     0.009 A 
ENDBRANCH  10  11
ENDBRANCH   7  10
ENDBRANCH   5   6
ENDBRANCH   1   5
BRANCH   3  18
ATOM     18  C11 <0> d          -6.343  -3.858  -4.176  0.00  0.00     0.037 A 
ATOM     19  C16 <0> d          -7.272  -3.734  -3.154  0.00  0.00     0.061 A 
ATOM     20  C15 <0> d          -8.408  -4.529  -3.155  0.00  0.00     0.065 A 
ATOM     21  C14 <0> d          -8.607  -5.458  -4.179  0.00  0.00     0.063 A 
ATOM     22  N3  <0> d          -9.498  -4.636  -2.296  0.00  0.00    -0.306 N 
ATOM     23  C13 <0> d          -7.671  -5.581  -5.195  0.00  0.00     0.034 A 
ATOM     24  N4  <0> d          -9.814  -6.102  -3.908  0.00  0.00    -0.307 N 
ATOM     25  C12 <0> d          -6.544  -4.784  -5.193  0.00  0.00     0.032 A 
ATOM     26  C17 <0> d         -10.324  -5.587  -2.773  0.00  0.00     0.325 A 
ATOM     27  H2  <0> d         -10.217  -6.801  -4.446  0.00  0.00     0.170 HD
ATOM     28  O3  <0> d         -11.371  -5.929  -2.257  0.00  0.00    -0.247 OA
ATOM     29  H1  <0> d          -9.640  -4.115  -1.490  0.00  0.00     0.170 HD
ENDBRANCH   3  18
TORSDOF 5
