REMARK  9 active torsions:
REMARK  status: ('A' for Active; 'I' for Inactive)
REMARK    1  A    between atoms: C3_3  and  S1_8 
REMARK    2  A    between atoms: S1_8  and  N2_11 
REMARK    3  A    between atoms: N2_11  and  C6_12 
REMARK    4  A    between atoms: C6_12  and  C8_14 
REMARK       I    between atoms: C8_14  and  N3_16 
REMARK    5  A    between atoms: N3_16  and  C9_17 
REMARK    6  A    between atoms: C9_17  and  C10_18 
REMARK    7  A    between atoms: C10_18  and  C11_19 
REMARK    8  A    between atoms: C11_19  and  O5_20 
REMARK    9  A    between atoms: O5_20  and  C12_21 
ROOT
ATOM      1  C6  <0> d          -1.256  -0.754   0.035  0.00  0.00     0.180 C 
ATOM      2  C7  <0> d          -1.672  -1.116  -1.392  0.00  0.00     0.043 C 
ENDROOT
BRANCH   1   3
ATOM      3  N2  <0> d           0.002  -0.004   0.002  0.00  0.00    -0.302 N 
ATOM      4  H8  <0> d           0.959  -0.529   0.137  0.00  0.00     0.173 HD
BRANCH   3   5
ATOM      5  S1  <0> d          -0.020   1.652   0.011  0.00  0.00     0.264 S 
ATOM      6  O2  <0> d           1.336   2.076   0.001  0.00  0.00    -0.200 OA
ATOM      7  O3  <0> d          -0.952   2.051  -0.985  0.00  0.00    -0.200 OA
BRANCH   5   8
ATOM      8  C3  <0> d          -0.694   2.155   1.560  0.00  0.00     0.137 A 
ATOM      9  C2  <0> d          -0.003   2.415   2.766  0.00  0.00     0.084 A 
ATOM     10  C1  <0> d           1.483   2.317   2.994  0.00  0.00     0.074 C 
ATOM     11  N1  <0> d          -0.906   2.757   3.639  0.00  0.00    -0.132 NA
ATOM     12  O1  <0> d          -2.016   2.745   3.161  0.00  0.00    -0.216 OA
ATOM     13  C4  <0> d          -1.992   2.388   1.869  0.00  0.00     0.100 A 
ATOM     14  C5  <0> d          -3.175   2.268   0.943  0.00  0.00     0.081 C 
ENDBRANCH   5   8
ENDBRANCH   3   5
ENDBRANCH   1   3
BRANCH   1  15
ATOM     15  C8  <0> d          -1.068  -2.015   0.839  0.00  0.00     0.240 C 
ATOM     16  O4  <0> d           0.010  -2.263   1.335  0.00  0.00    -0.271 OA
ATOM     17  N3  <0> d          -2.099  -2.867   1.006  0.00  0.00    -0.359 N 
ATOM     18  H12 <0> d          -3.077  -2.642   0.556  0.00  0.00     0.162 HD
BRANCH  17  19
ATOM     19  C9  <0> d          -1.916  -4.093   1.787  0.00  0.00     0.125 C 
BRANCH  19  20
ATOM     20  C10 <0> d          -3.230  -4.876   1.822  0.00  0.00     0.046 C 
BRANCH  20  21
ATOM     21  C11 <0> d          -3.039  -6.157   2.637  0.00  0.00     0.169 C 
BRANCH  21  22
ATOM     22  O5  <0> d          -4.267  -6.888   2.670  0.00  0.00    -0.386 OA
BRANCH  22  23
ATOM     23  C12 <0> d          -4.197  -8.108   3.410  0.00  0.00     0.121 C 
ATOM     24  C17 <0> d          -5.567  -8.416   4.016  0.00  0.00     0.032 C 
ATOM     25  C16 <0> d          -5.493  -9.722   4.809  0.00  0.00     0.002 C 
ATOM     26  C15 <0> d          -5.079 -10.862   3.877  0.00  0.00     0.000 C 
ATOM     27  C14 <0> d          -3.709 -10.554   3.271  0.00  0.00     0.002 C 
ATOM     28  C13 <0> d          -3.783  -9.248   2.478  0.00  0.00     0.032 C 
ENDBRANCH  22  23
ENDBRANCH  21  22
ENDBRANCH  20  21
ENDBRANCH  19  20
ENDBRANCH  17  19
ENDBRANCH   1  15
TORSDOF 9
