REMARK  5 active torsions:
REMARK  status: ('A' for Active; 'I' for Inactive)
REMARK    1  A    between atoms: C3_3  and  C10_12 
REMARK    2  A    between atoms: C10_12  and  C11_13 
REMARK    3  A    between atoms: C11_13  and  N2_14 
REMARK    4  A    between atoms: N2_14  and  C12_15 
REMARK    5  A    between atoms: C12_15  and  C13_16 
ROOT
ATOM      1  C10 <0> d          -2.494  -0.316  -0.984  0.00  0.00     0.064 C 
ENDROOT
BRANCH   1   2
ATOM      2  C3  <0> d          -1.410  -0.545   0.038  0.00  0.00    -0.044 A 
ATOM      3  C2  <0> d           0.002  -0.004   0.002  0.00  0.00     0.108 A 
ATOM      4  C1  <0> d          -0.019   1.526   0.010  0.00  0.00     0.037 C 
ATOM      5  N1  <0> d           0.658  -0.508   1.214  0.00  0.00    -0.381 N 
ATOM      6  C9  <0> d          -0.205  -1.235   1.884  0.00  0.00     0.039 A 
ATOM      7  H18 <0> d           1.576  -0.333   1.475  0.00  0.00     0.160 HD
ATOM      8  C4  <0> d          -1.503  -1.275   1.172  0.00  0.00    -0.002 A 
ATOM      9  C8  <0> d          -0.093  -1.946   3.110  0.00  0.00     0.033 A 
ATOM     10  C5  <0> d          -2.599  -2.045   1.771  0.00  0.00     0.056 A 
ATOM     11  C6  <0> d          -2.387  -2.687   2.945  0.00  0.00     0.117 A 
ATOM     12  C7  <0> d          -1.146  -2.633   3.600  0.00  0.00     0.044 A 
ATOM     13  F1  <0> d          -3.394  -3.396   3.499  0.00  0.00    -0.206 F 
ENDBRANCH   1   2
BRANCH   1  14
ATOM     14  C11 <0> d          -3.765  -1.048  -0.551  0.00  0.00     0.237 C 
BRANCH  14  15
ATOM     15  N2  <0> d          -4.822  -0.825  -1.547  0.00  0.00    -0.071 N 
ATOM     16  H12 <0> d          -5.012   0.163  -1.620  0.00  0.00     0.277 HD
ATOM     17  H19 <0> d          -4.520  -1.176  -2.443  0.00  0.00     0.277 HD
BRANCH  15  18
ATOM     18  C12 <0> d          -6.043  -1.529  -1.131  0.00  0.00     0.275 C 
BRANCH  18  19
ATOM     19  C13 <0> d          -7.127  -1.299  -2.153  0.00  0.00     0.028 A 
ATOM     20  C18 <0> d          -7.267  -2.168  -3.220  0.00  0.00     0.045 A 
ATOM     21  C17 <0> d          -8.267  -1.960  -4.154  0.00  0.00     0.024 A 
ATOM     22 Cl1  <0> d          -6.194  -3.522  -3.383  0.00  0.00    -0.084 Cl
ATOM     23  C16 <0> d          -9.118  -0.879  -4.028  0.00  0.00     0.005 A 
ATOM     24  C15 <0> d          -8.976  -0.006  -2.965  0.00  0.00     0.043 A 
ATOM     25  C14 <0> d          -7.980  -0.216  -2.026  0.00  0.00     0.126 A 
ATOM     26  F2  <0> d          -7.841   0.636  -0.987  0.00  0.00    -0.205 F 
ENDBRANCH  18  19
ENDBRANCH  15  18
ENDBRANCH  14  15
ENDBRANCH   1  14
TORSDOF 5
