REMARK  2 active torsions:
REMARK  status: ('A' for Active; 'I' for Inactive)
REMARK    1  A    between atoms: C3_3  and  C9_11 
REMARK    2  A    between atoms: N1_15  and  C13_16 
ROOT
ATOM      1  C9  <0> d           3.670   2.195  -0.023  0.00  0.00     0.122 C 
ATOM      2  C10 <0> d           4.242   2.278   1.407  0.00  0.00     0.032 C 
ATOM      3  C11 <0> d           4.814   3.719   1.469  0.00  0.00     0.022 C 
ATOM      4  C12 <0> d           3.787   4.499   0.612  0.00  0.00     0.125 C 
ATOM      5  N1  <0> d           3.422   3.571  -0.479  0.00  0.00    -0.356 N 
ENDROOT
BRANCH   1   6
ATOM      6  C3  <0> d           2.378   1.418  -0.014  0.00  0.00     0.001 A 
ATOM      7  C2  <0> d           1.170   2.088   0.002  0.00  0.00     0.012 A 
ATOM      8  C1  <0> d          -0.017   1.378   0.010  0.00  0.00     0.003 A 
ATOM      9  C6  <0> d           0.002  -0.004   0.002  0.00  0.00     0.040 A 
ATOM     10  C5  <0> d           1.212  -0.683  -0.013  0.00  0.00     0.102 A 
ATOM     11  C4  <0> d           2.404   0.031  -0.023  0.00  0.00     0.110 A 
ATOM     12  O1  <0> d           1.214  -2.044  -0.013  0.00  0.00    -0.346 OA
ATOM     13  O2  <0> d           3.602  -0.615  -0.043  0.00  0.00    -0.346 OA
ATOM     14  C8  <0> d           3.594  -1.997   0.328  0.00  0.00     0.202 C 
ATOM     15  C7  <0> d           2.434  -2.685  -0.404  0.00  0.00     0.202 C 
ENDBRANCH   1   6
BRANCH   5  16
ATOM     16  C13 <0> d           2.930   3.933  -1.720  0.00  0.00     0.141 A 
ATOM     17  N4  <0> d           2.633   3.011  -2.631  0.00  0.00    -0.224 NA
ATOM     18  C18 <0> d           2.158   3.353  -3.815  0.00  0.00     0.237 A 
ATOM     19  N3  <0> d           1.962   4.604  -4.169  0.00  0.00    -0.223 NA
ATOM     20  C17 <0> d           2.235   5.600  -3.326  0.00  0.00     0.142 A 
ATOM     21  C14 <0> d           2.737   5.283  -2.051  0.00  0.00     0.057 A 
ATOM     22  N2  <0> d           2.142   6.963  -3.396  0.00  0.00    -0.350 N 
ATOM     23  C15 <0> d           2.938   6.557  -1.363  0.00  0.00     0.036 A 
ATOM     24  C16 <0> d           2.565   7.523  -2.219  0.00  0.00     0.091 A 
ATOM     25  H2  <0> d           1.825   7.460  -4.166  0.00  0.00     0.166 HD
ENDBRANCH   5  16
TORSDOF 2
