REMARK  4 active torsions:
REMARK  status: ('A' for Active; 'I' for Inactive)
REMARK    1  A    between atoms: C7_7  and  C11_12 
REMARK    2  A    between atoms: C11_12  and  C12_13 
REMARK    3  A    between atoms: C11_12  and  N1_17 
REMARK    4  A    between atoms: C12_13  and  C13_14 
ROOT
ATOM      1  C1  <0> d          -0.019   1.526   0.010  0.00  0.00     0.046 C 
ATOM      2  C2  <0> d           0.002  -0.004   0.002  0.00  0.00     0.061 C 
ATOM      3  C3  <0> d          -1.435  -0.540   0.040  0.00  0.00     0.042 C 
ATOM      4  C4  <0> d          -1.382  -2.065  -0.081  0.00  0.00     0.044 C 
ATOM      5  C5  <0> d          -0.362  -2.616   0.883  0.00  0.00    -0.024 A 
ATOM      6  C6  <0> d          -0.413  -3.961   1.210  0.00  0.00     0.019 A 
ATOM      7  C7  <0> d           0.507  -4.500   2.088  0.00  0.00    -0.027 A 
ATOM      8  C8  <0> d           1.486  -3.696   2.643  0.00  0.00     0.012 A 
ATOM      9  C9  <0> d           1.540  -2.355   2.323  0.00  0.00     0.038 A 
ATOM     10  C10 <0> d           0.613  -1.808   1.441  0.00  0.00     0.076 A 
ATOM     11  O1  <0> d           0.692  -0.482   1.158  0.00  0.00    -0.340 OA
ATOM     12  C14 <0> d           0.706  -0.503  -1.262  0.00  0.00     0.046 C 
ENDROOT
BRANCH   7  13
ATOM     13  C11 <0> d           0.446  -5.964   2.439  0.00  0.00     0.226 C 
BRANCH  13  14
ATOM     14  C12 <0> d           1.486  -6.730   1.620  0.00  0.00     0.150 C 
BRANCH  14  15
ATOM     15  C13 <0> d           1.342  -8.208   1.880  0.00  0.00     0.174 C 
ATOM     16  O2  <0> d           0.486  -8.611   2.649  0.00  0.00    -0.648 OA
ATOM     17  O3  <0> d           2.081  -9.000   1.321  0.00  0.00    -0.648 OA
ENDBRANCH  14  15
ENDBRANCH  13  14
BRANCH  13  18
ATOM     18  N1  <0> d           0.726  -6.136   3.871  0.00  0.00    -0.070 N 
ATOM     19  H14 <0> d           0.040  -5.631   4.411  0.00  0.00     0.275 HD
ATOM     20  H15 <0> d           0.685  -7.117   4.106  0.00  0.00     0.275 HD
ATOM     21  H19 <0> d           1.647  -5.779   4.078  0.00  0.00     0.275 HD
ENDBRANCH  13  18
ENDBRANCH   7  13
TORSDOF 4
