REMARK  6 active torsions:
REMARK  status: ('A' for Active; 'I' for Inactive)
REMARK    1  A    between atoms: C2_2  and  C3_3 
REMARK    2  A    between atoms: C3_3  and  N1_5 
REMARK    3  A    between atoms: N2_8  and  S1_11 
REMARK    4  A    between atoms: S1_11  and  C9_14 
REMARK    5  A    between atoms: N3_16  and  C12_20 
REMARK    6  A    between atoms: C11_18  and  N5_19 
ROOT
ATOM      1  S1  <0> d          -5.163   2.530  -2.823  0.00  0.00     0.266 S 
ATOM      2  O1  <0> d          -4.595   3.605  -3.558  0.00  0.00    -0.200 OA
ATOM      3  O2  <0> d          -6.252   1.761  -3.316  0.00  0.00    -0.200 OA
ENDROOT
BRANCH   1   4
ATOM      4  N2  <0> d          -3.933   1.465  -2.514  0.00  0.00    -0.303 N 
ATOM      5  C6  <0> d          -4.210   0.045  -2.251  0.00  0.00     0.163 C 
ATOM      6  C5  <0> d          -3.480  -0.363  -0.967  0.00  0.00     0.256 C 
ATOM      7  N1  <0> d          -2.053  -0.037  -1.093  0.00  0.00    -0.064 N 
ATOM      8  C8  <0> d          -1.880   1.417  -1.201  0.00  0.00     0.256 C 
ATOM      9  H26 <0> d          -1.681  -0.481  -1.919  0.00  0.00     0.280 HD
ATOM     10  C7  <0> d          -2.532   1.913  -2.496  0.00  0.00     0.163 C 
BRANCH   7  11
ATOM     11  C3  <0> d          -1.335  -0.527   0.091  0.00  0.00     0.184 C 
ATOM     12  C4  <0> d          -1.990   0.034   1.354  0.00  0.00     0.040 C 
BRANCH  11  13
ATOM     13  C2  <0> d          -1.390  -2.056   0.124  0.00  0.00     0.028 C 
ATOM     14  C1  <0> d          -0.620  -2.620  -1.071  0.00  0.00     0.007 C 
ENDBRANCH  11  13
ENDBRANCH   7  11
ENDBRANCH   1   4
BRANCH   1  15
ATOM     15  C9  <0> d          -5.677   3.195  -1.274  0.00  0.00     0.143 A 
ATOM     16  C11 <0> d          -6.274   2.478  -0.224  0.00  0.00     0.166 A 
ATOM     17  N4  <0> d          -6.508   3.317   0.758  0.00  0.00    -0.153 NA
ATOM     18  N3  <0> d          -6.077   4.588   0.359  0.00  0.00    -0.278 N 
ATOM     19  C10 <0> d          -5.573   4.487  -0.888  0.00  0.00     0.141 A 
BRANCH  16  20
ATOM     20  N5  <0> d          -6.565   1.109  -0.224  0.00  0.00    -0.381 N 
ATOM     21  H19 <0> d          -6.352   0.568  -1.000  0.00  0.00     0.157 HD
ATOM     22  H20 <0> d          -6.980   0.702   0.552  0.00  0.00     0.157 HD
ENDBRANCH  16  20
BRANCH  18  23
ATOM     23  C12 <0> d          -6.160   5.814   1.157  0.00  0.00     0.146 C 
ATOM     24  C13 <0> d          -7.607   6.036   1.603  0.00  0.00     0.028 C 
ENDBRANCH  18  23
ENDBRANCH   1  15
TORSDOF 6
