REMARK  6 active torsions:
REMARK  status: ('A' for Active; 'I' for Inactive)
REMARK    1  A    between atoms: C3_3  and  N5_30 
REMARK    2  A    between atoms: C6_6  and  C7_7 
REMARK    3  A    between atoms: C7_7  and  N1_8 
REMARK    4  A    between atoms: C10_12  and  N2_15 
REMARK    5  A    between atoms: C14_18  and  C17_21 
REMARK    6  A    between atoms: C14_18  and  N4_24 
REMARK       I    between atoms: C17_21  and  N3_23 
ROOT
ATOM      1  N1  <0> d          -1.674  -0.806  -1.160  0.00  0.00    -0.282 N 
ATOM      2  C8  <0> d          -2.416   0.074  -1.843  0.00  0.00     0.229 A 
ATOM      3  O1  <0> d          -2.763   1.163  -1.438  0.00  0.00    -0.273 OA
ATOM      4  C9  <0> d          -2.753  -0.505  -3.200  0.00  0.00     0.146 A 
ATOM      5  C10 <0> d          -2.069  -1.887  -3.182  0.00  0.00     0.288 A 
ATOM      6  C11 <0> d          -1.413  -1.942  -1.820  0.00  0.00     0.258 A 
ATOM      7  O2  <0> d          -0.758  -2.868  -1.392  0.00  0.00    -0.271 OA
ENDROOT
BRANCH   5   8
ATOM      8  N2  <0> d          -3.065  -2.958  -3.328  0.00  0.00    -0.058 N 
ATOM      9  C16 <0> d          -2.387  -4.260  -3.309  0.00  0.00     0.239 C 
ATOM     10  C15 <0> d          -3.426  -5.381  -3.379  0.00  0.00     0.077 C 
ATOM     11  C14 <0> d          -4.231  -5.243  -4.674  0.00  0.00     0.210 C 
ATOM     12  C13 <0> d          -4.873  -3.853  -4.719  0.00  0.00     0.077 C 
ATOM     13  C12 <0> d          -3.780  -2.788  -4.598  0.00  0.00     0.239 C 
ATOM     14  H37 <0> d          -3.723  -2.911  -2.565  0.00  0.00     0.281 HD
BRANCH  11  15
ATOM     15  C17 <0> d          -3.315  -5.412  -5.858  0.00  0.00     0.252 C 
ATOM     16  O3  <0> d          -2.119  -5.262  -5.726  0.00  0.00    -0.271 OA
ATOM     17  N3  <0> d          -3.824  -5.732  -7.064  0.00  0.00    -0.368 N 
ATOM     18  H18 <0> d          -4.771  -5.922  -7.156  0.00  0.00     0.159 HD
ATOM     19  H19 <0> d          -3.244  -5.771  -7.841  0.00  0.00     0.159 HD
ENDBRANCH  11  15
BRANCH  11  20
ATOM     20  N4  <0> d          -5.281  -6.270  -4.712  0.00  0.00    -0.053 N 
ATOM     21  C22 <0> d          -4.668  -7.598  -4.592  0.00  0.00     0.236 C 
ATOM     22  C21 <0> d          -5.748  -8.675  -4.712  0.00  0.00     0.028 C 
ATOM     23  C20 <0> d          -6.779  -8.484  -3.596  0.00  0.00     0.003 C 
ATOM     24  C19 <0> d          -7.357  -7.069  -3.686  0.00  0.00     0.028 C 
ATOM     25  C18 <0> d          -6.218  -6.051  -3.604  0.00  0.00     0.236 C 
ATOM     26  H36 <0> d          -5.779  -6.208  -5.588  0.00  0.00     0.281 HD
ENDBRANCH  11  20
ENDBRANCH   5   8
BRANCH   1  27
ATOM     27  C7  <0> d          -1.181  -0.546   0.195  0.00  0.00     0.173 C 
BRANCH  27  28
ATOM     28  C6  <0> d           0.165   0.127   0.120  0.00  0.00    -0.040 A 
ATOM     29  C1  <0> d           0.245   1.506   0.074  0.00  0.00     0.011 A 
ATOM     30  C2  <0> d           1.478   2.126   0.005  0.00  0.00     0.030 A 
ATOM     31  C3  <0> d           2.637   1.362  -0.018  0.00  0.00     0.037 A 
ATOM     32  C4  <0> d           2.553  -0.024   0.028  0.00  0.00     0.030 A 
ATOM     33  C5  <0> d           1.318  -0.637   0.097  0.00  0.00     0.011 A 
BRANCH  31  34
ATOM     34  N5  <0> d           3.887   1.986  -0.088  0.00  0.00    -0.318 N 
ATOM     35  C26 <0> d           4.066   3.308  -0.257  0.00  0.00     0.224 C 
ATOM     36  C25 <0> d           5.543   3.632  -0.293  0.00  0.00     0.105 C 
ATOM     37  O4  <0> d           3.174   4.122  -0.362  0.00  0.00    -0.273 OA
ATOM     38  C24 <0> d           6.224   2.268  -0.549  0.00  0.00     0.029 C 
ATOM     39  C23 <0> d           5.171   1.282   0.006  0.00  0.00     0.133 C 
ENDBRANCH  31  34
ENDBRANCH  27  28
ENDBRANCH   1  27
TORSDOF 6
