REMARK  4 active torsions:
REMARK  status: ('A' for Active; 'I' for Inactive)
REMARK    1  A    between atoms: C4_4  and  C7_7 
REMARK    2  A    between atoms: C7_7  and  C8_8 
REMARK    3  A    between atoms: C7_7  and  O2_22 
REMARK    4  A    between atoms: C8_8  and  N1_9 
ROOT
ATOM      1  N1  <0> d           2.380   5.636   0.023  0.00  0.00    -0.305 N 
ATOM      2  C9  <0> d           1.159   6.230   0.037  0.00  0.00     0.213 A 
ATOM      3  N2  <0> d           0.061   5.522   0.040  0.00  0.00    -0.235 NA
ATOM      4  C10 <0> d           0.107   4.192   0.029  0.00  0.00     0.115 A 
ATOM      5  C11 <0> d           1.320   3.492   0.013  0.00  0.00     0.075 A 
ATOM      6  C12 <0> d           2.506   4.296   0.010  0.00  0.00     0.262 A 
ATOM      7  O1  <0> d           3.608   3.776  -0.003  0.00  0.00    -0.267 OA
ATOM      8  C13 <0> d           1.219   2.025   0.001  0.00  0.00    -0.026 A 
ATOM      9  C14 <0> d          -0.018   1.501   0.010  0.00  0.00    -0.008 A 
ATOM     10  S1  <0> d          -1.111   2.904   0.022  0.00  0.00    -0.073 SA
ATOM     11  C15 <0> d           0.002  -0.004   0.002  0.00  0.00     0.047 C 
ATOM     12  C16 <0> d           1.441  -0.374   0.424  0.00  0.00     0.010 C 
ATOM     13  C17 <0> d           2.229   0.874  -0.019  0.00  0.00     0.041 C 
ENDROOT
BRANCH   1  14
ATOM     14  C8  <0> d           3.584   6.471   0.021  0.00  0.00     0.169 C 
BRANCH  14  15
ATOM     15  C7  <0> d           4.014   6.748   1.463  0.00  0.00     0.169 C 
BRANCH  15  16
ATOM     16  C4  <0> d           5.178   7.705   1.464  0.00  0.00    -0.028 A 
ATOM     17  C3  <0> d           4.970   9.048   1.720  0.00  0.00     0.010 A 
ATOM     18  C2  <0> d           6.037   9.925   1.722  0.00  0.00     0.001 A 
ATOM     19  C1  <0> d           7.314   9.461   1.468  0.00  0.00     0.000 A 
ATOM     20  C6  <0> d           7.523   8.119   1.212  0.00  0.00     0.001 A 
ATOM     21  C5  <0> d           6.456   7.240   1.215  0.00  0.00     0.010 A 
ENDBRANCH  15  16
BRANCH  15  22
ATOM     22  O2  <0> d           4.404   5.524   2.088  0.00  0.00    -0.389 OA
ATOM     23  H16 <0> d           5.141   5.076   1.651  0.00  0.00     0.210 HD
ENDBRANCH  15  22
ENDBRANCH  14  15
ENDBRANCH   1  14
TORSDOF 4
