REMARK  6 active torsions:
REMARK  status: ('A' for Active; 'I' for Inactive)
REMARK    1  A    between atoms: C2_2  and  N1_3 
REMARK    2  A    between atoms: N1_3  and  C3_4 
REMARK    3  A    between atoms: C3_4  and  C4_5 
REMARK    4  A    between atoms: C4_5  and  C5_6 
REMARK    5  A    between atoms: C4_5  and  O3_19 
REMARK    6  A    between atoms: C5_6  and  N2_7 
ROOT
ATOM      1  N2  <0> d           2.149  -4.433  -3.674  0.00  0.00    -0.311 N 
ATOM      2  C6  <0> d           3.518  -4.735  -3.647  0.00  0.00     0.072 A 
ATOM      3  C7  <0> d           4.179  -4.909  -2.442  0.00  0.00     0.056 A 
ATOM      4  C8  <0> d           5.531  -5.206  -2.437  0.00  0.00     0.036 A 
ATOM      5  C9  <0> d           6.221  -5.328  -3.630  0.00  0.00     0.026 A 
ATOM      6  C10 <0> d           5.565  -5.156  -4.835  0.00  0.00     0.041 A 
ATOM      7  C11 <0> d           4.213  -4.860  -4.848  0.00  0.00     0.096 A 
ATOM      8  O1  <0> d           3.551  -4.690  -6.024  0.00  0.00    -0.340 OA
ATOM      9  C12 <0> d           2.181  -5.098  -6.056  0.00  0.00     0.279 C 
ATOM     10  C13 <0> d           1.468  -4.584  -4.831  0.00  0.00     0.248 C 
ATOM     11  O2  <0> d           0.289  -4.305  -4.886  0.00  0.00    -0.271 OA
ATOM     12 Cl1  <0> d           6.363  -5.426  -0.929  0.00  0.00    -0.084 Cl
ENDROOT
BRANCH   1  13
ATOM     13  C5  <0> d           1.466  -3.965  -2.466  0.00  0.00     0.165 C 
BRANCH  13  14
ATOM     14  C4  <0> d           1.647  -2.452  -2.330  0.00  0.00     0.162 C 
BRANCH  14  15
ATOM     15  C3  <0> d           1.049  -1.983  -1.003  0.00  0.00     0.265 C 
BRANCH  15  16
ATOM     16  N1  <0> d           1.223  -0.530  -0.873  0.00  0.00    -0.073 N 
ATOM     17  H7  <0> d           0.754  -0.066  -1.636  0.00  0.00     0.277 HD
ATOM     18  H18 <0> d           2.206  -0.306  -0.896  0.00  0.00     0.277 HD
BRANCH  16  19
ATOM     19  C2  <0> d           0.648  -0.080   0.402  0.00  0.00     0.228 C 
ATOM     20  C1  <0> d           0.830   1.433   0.537  0.00  0.00     0.034 C 
ENDBRANCH  16  19
ENDBRANCH  15  16
ENDBRANCH  14  15
BRANCH  14  21
ATOM     21  O3  <0> d           0.983  -1.794  -3.411  0.00  0.00    -0.392 OA
ATOM     22  H17 <0> d           0.021  -1.898  -3.403  0.00  0.00     0.210 HD
ENDBRANCH  14  21
ENDBRANCH  13  14
ENDBRANCH   1  13
TORSDOF 6
