REMARK  9 active torsions:
REMARK  status: ('A' for Active; 'I' for Inactive)
REMARK    1  A    between atoms: C4_4  and  N3_31 
REMARK    2  A    between atoms: C6_6  and  N1_7 
REMARK    3  A    between atoms: C13_14  and  C14_15 
REMARK    4  A    between atoms: C13_14  and  C15_17 
REMARK    5  A    between atoms: C13_14  and  N3_31 
REMARK    6  A    between atoms: C14_15  and  O1_16 
REMARK    7  A    between atoms: C15_17  and  C16_18 
REMARK    8  A    between atoms: C15_17  and  O4_27 
REMARK    9  A    between atoms: C19_21  and  N2_24 
ROOT
ATOM      1  N3  <0> d          -1.042   4.514  -2.439  0.00  0.00    -0.040 N 
ATOM      2  H32 <0> d          -1.888   4.162  -2.903  0.00  0.00     0.284 HD
ATOM      3  H33 <0> d          -0.213   4.217  -2.967  0.00  0.00     0.284 HD
ENDROOT
BRANCH   1   4
ATOM      4  C4  <0> d          -0.975   3.930  -1.160  0.00  0.00     0.113 C 
ATOM      5  C3  <0> d          -0.923   2.427  -1.102  0.00  0.00     0.073 C 
ATOM      6  C2  <0> d          -0.141   1.989   0.140  0.00  0.00    -0.037 C 
ATOM      7  C1  <0> d          -0.142   0.462   0.234  0.00  0.00     0.015 C 
ATOM      8  C12 <0> d          -0.811   2.580   1.384  0.00  0.00     0.066 C 
ATOM      9  C22 <0> d           1.299   2.496   0.044  0.00  0.00     0.015 C 
ATOM     10  C6  <0> d          -0.883   4.079   1.238  0.00  0.00     0.009 C 
ATOM     11  C5  <0> d          -0.957   4.671  -0.040  0.00  0.00     0.057 C 
BRANCH  10  12
ATOM     12  N1  <0> d          -0.875   4.831   2.300  0.00  0.00    -0.384 N 
ATOM     13  C11 <0> d          -0.948   4.235   3.640  0.00  0.00     0.122 C 
ATOM     14  C10 <0> d          -2.106   4.883   4.406  0.00  0.00     0.020 C 
ATOM     15  C9  <0> d          -1.926   6.403   4.403  0.00  0.00     0.003 C 
ATOM     16  C8  <0> d          -1.951   6.919   2.962  0.00  0.00     0.020 C 
ATOM     17  C7  <0> d          -0.786   6.293   2.180  0.00  0.00     0.122 C 
ENDBRANCH  10  12
ENDBRANCH   1   4
BRANCH   1  18
ATOM     18  C13 <0> d          -1.093   6.017  -2.451  0.00  0.00     0.247 C 
BRANCH  18  19
ATOM     19  C14 <0> d           0.329   6.580  -2.405  0.00  0.00     0.200 C 
BRANCH  19  20
ATOM     20  O1  <0> d           1.043   6.166  -3.571  0.00  0.00    -0.399 OA
ATOM     21  H23 <0> d           1.955   6.488  -3.609  0.00  0.00     0.209 HD
ENDBRANCH  19  20
ENDBRANCH  18  19
BRANCH  18  22
ATOM     22  C15 <0> d          -1.766   6.439  -3.757  0.00  0.00     0.184 C 
BRANCH  22  23
ATOM     23  C16 <0> d          -3.201   5.979  -3.755  0.00  0.00    -0.027 A 
ATOM     24  C21 <0> d          -3.544   4.780  -4.351  0.00  0.00     0.012 A 
ATOM     25  C20 <0> d          -4.860   4.357  -4.348  0.00  0.00     0.037 A 
ATOM     26  C19 <0> d          -5.834   5.134  -3.749  0.00  0.00     0.102 A 
ATOM     27  C18 <0> d          -5.492   6.333  -3.152  0.00  0.00     0.037 A 
ATOM     28  C17 <0> d          -4.175   6.753  -3.151  0.00  0.00     0.012 A 
BRANCH  26  29
ATOM     29  N2  <0> d          -7.243   4.682  -3.746  0.00  0.00    -0.116 N 
ATOM     30  O2  <0> d          -7.545   3.625  -4.272  0.00  0.00    -0.532 OA
ATOM     31  O3  <0> d          -8.101   5.366  -3.219  0.00  0.00    -0.532 OA
ENDBRANCH  26  29
ENDBRANCH  22  23
BRANCH  22  32
ATOM     32  O4  <0> d          -1.723   7.863  -3.877  0.00  0.00    -0.389 OA
ATOM     33  H28 <0> d          -2.101   8.333  -3.121  0.00  0.00     0.210 HD
ENDBRANCH  22  32
ENDBRANCH  18  22
ENDBRANCH   1  18
TORSDOF 9
