REMARK  5 active torsions:
REMARK  status: ('A' for Active; 'I' for Inactive)
REMARK    1  A    between atoms: C4_4  and  C7_8 
REMARK       I    between atoms: C7_8  and  N1_10 
REMARK    2  A    between atoms: N1_10  and  C8_11 
REMARK    3  A    between atoms: C12_15  and  C14_17 
REMARK    4  A    between atoms: C14_17  and  N2_18 
REMARK    5  A    between atoms: C17_21  and  C20_24 
REMARK       I    between atoms: C20_24  and  N3_26 
ROOT
ATOM      1  C8  <0> d          -3.508  -4.504  -0.096  0.00  0.00     0.035 A 
ATOM      2  C9  <0> d          -2.920  -5.763  -0.093  0.00  0.00     0.029 A 
ATOM      3  C10 <0> d          -3.710  -6.892  -0.184  0.00  0.00     0.003 A 
ATOM      4  C11 <0> d          -5.084  -6.770  -0.279  0.00  0.00     0.009 A 
ATOM      5  C12 <0> d          -5.672  -5.519  -0.282  0.00  0.00    -0.030 A 
ATOM      6  C13 <0> d          -4.888  -4.386  -0.184  0.00  0.00     0.038 A 
ENDROOT
BRANCH   5   7
ATOM      7  C14 <0> d          -7.170  -5.391  -0.385  0.00  0.00     0.273 C 
BRANCH   7   8
ATOM      8  N2  <0> d          -7.756  -5.393   0.963  0.00  0.00    -0.067 N 
ATOM      9  C19 <0> d          -9.220  -5.389   0.858  0.00  0.00     0.236 C 
ATOM     10  C18 <0> d          -9.835  -5.473   2.257  0.00  0.00     0.042 C 
ATOM     11  C17 <0> d          -9.377  -4.266   3.083  0.00  0.00     0.081 C 
ATOM     12  C16 <0> d          -7.846  -4.239   3.122  0.00  0.00     0.042 C 
ATOM     13  C15 <0> d          -7.305  -4.201   1.691  0.00  0.00     0.236 C 
ATOM     14  H26 <0> d          -7.457  -6.220   1.457  0.00  0.00     0.280 HD
BRANCH  11  15
ATOM     15  C20 <0> d          -9.916  -4.382   4.485  0.00  0.00     0.219 C 
ATOM     16  O3  <0> d          -9.152  -4.437   5.425  0.00  0.00    -0.273 OA
ATOM     17  N3  <0> d         -11.246  -4.425   4.695  0.00  0.00    -0.370 N 
ATOM     18  H24 <0> d         -11.857  -4.381   3.943  0.00  0.00     0.159 HD
ATOM     19  H25 <0> d         -11.593  -4.499   5.598  0.00  0.00     0.159 HD
ENDBRANCH  11  15
ENDBRANCH   7   8
ENDBRANCH   5   7
BRANCH   1  20
ATOM     20  N1  <0> d          -2.711  -3.358  -0.003  0.00  0.00    -0.323 N 
ATOM     21  C7  <0> d          -1.499  -3.331  -0.594  0.00  0.00     0.258 C 
ATOM     22  O2  <0> d          -1.063  -4.329  -1.134  0.00  0.00    -0.267 OA
ATOM     23  H8  <0> d          -3.030  -2.584   0.486  0.00  0.00     0.169 HD
BRANCH  21  24
ATOM     24  C4  <0> d          -0.703  -2.091  -0.584  0.00  0.00     0.064 A 
ATOM     25  C3  <0> d          -1.073  -0.802   0.019  0.00  0.00     0.051 A 
ATOM     26  C2  <0> d          -0.044   0.026  -0.220  0.00  0.00     0.050 A 
ATOM     27  C1  <0> d           0.035   1.468   0.211  0.00  0.00     0.076 C 
ATOM     28  O1  <0> d           0.900  -0.634  -0.909  0.00  0.00    -0.319 OA
ATOM     29  C5  <0> d           0.531  -1.899  -1.132  0.00  0.00     0.065 A 
ATOM     30  C6  <0> d           1.339  -2.936  -1.870  0.00  0.00     0.077 C 
ENDBRANCH  21  24
ENDBRANCH   1  20
TORSDOF 5
