REMARK  6 active torsions:
REMARK  status: ('A' for Active; 'I' for Inactive)
REMARK    1  A    between atoms: C2_2  and  C4_4 
REMARK    2  A    between atoms: C4_4  and  N1_5 
REMARK    3  A    between atoms: N1_5  and  C5_6 
REMARK    4  A    between atoms: N3_13  and  C10_16 
REMARK    5  A    between atoms: C10_16  and  C11_17 
REMARK    6  A    between atoms: C11_17  and  O3_18 
ROOT
ATOM      1  C5  <0> d          -2.575  -2.682  -0.130  0.00  0.00     0.105 C 
ATOM      2  C6  <0> d          -2.566  -4.046  -0.354  0.00  0.00     0.115 A 
ATOM      3  C7  <0> d          -3.818  -4.812  -0.491  0.00  0.00     0.264 A 
ATOM      4  O1  <0> d          -4.899  -4.261  -0.409  0.00  0.00    -0.267 OA
ATOM      5  N2  <0> d          -3.732  -6.140  -0.709  0.00  0.00    -0.299 N 
ATOM      6  C8  <0> d          -2.547  -6.760  -0.801  0.00  0.00     0.183 A 
ATOM      7  S1  <0> d          -2.535  -8.449  -1.080  0.00  0.00    -0.040 SA
ATOM      8  N3  <0> d          -1.371  -6.127  -0.688  0.00  0.00    -0.288 N 
ATOM      9  C9  <0> d          -1.303  -4.797  -0.474  0.00  0.00     0.267 A 
ATOM     10  O2  <0> d          -0.229  -4.233  -0.377  0.00  0.00    -0.267 OA
ATOM     11  H12 <0> d          -4.546  -6.659  -0.801  0.00  0.00     0.171 HD
ENDROOT
BRANCH   1  12
ATOM     12  N1  <0> d          -1.423  -1.983  -0.178  0.00  0.00    -0.397 N 
ATOM     13  H10 <0> d          -0.601  -2.421  -0.449  0.00  0.00     0.158 HD
BRANCH  12  14
ATOM     14  C4  <0> d          -1.414  -0.562   0.178  0.00  0.00     0.122 C 
BRANCH  14  15
ATOM     15  C2  <0> d           0.007  -0.011   0.040  0.00  0.00    -0.005 C 
ATOM     16  C1  <0> d          -0.004   1.498   0.290  0.00  0.00     0.011 C 
ATOM     17  C3  <0> d           0.919  -0.691   1.062  0.00  0.00     0.011 C 
ENDBRANCH  14  15
ENDBRANCH  12  14
ENDBRANCH   1  12
BRANCH   8  18
ATOM     18  C10 <0> d          -0.130  -6.897  -0.804  0.00  0.00     0.161 C 
BRANCH  18  19
ATOM     19  C11 <0> d           0.314  -6.931  -2.268  0.00  0.00     0.187 C 
BRANCH  19  20
ATOM     20  O3  <0> d           0.648  -5.609  -2.695  0.00  0.00    -0.394 OA
ATOM     21  C12 <0> d           1.078  -5.528  -4.055  0.00  0.00     0.201 C 
ENDBRANCH  19  20
ENDBRANCH  18  19
ENDBRANCH   8  18
TORSDOF 6
