REMARK  5 active torsions:
REMARK  status: ('A' for Active; 'I' for Inactive)
REMARK    1  A    between atoms: C2_2  and  O1_3 
REMARK    2  A    between atoms: O1_3  and  C3_4 
REMARK    3  A    between atoms: C3_4  and  C4_6 
REMARK    4  A    between atoms: C7_10  and  N1_11 
REMARK       I    between atoms: N1_11  and  C8_12 
REMARK    5  A    between atoms: C8_12  and  C9_14 
ROOT
ATOM      1  C4  <0> d           2.233   0.791  -0.015  0.00  0.00     0.080 A 
ATOM      2  C5  <0> d           1.314  -0.332  -0.012  0.00  0.00    -0.023 A 
ATOM      3  C6  <0> d           0.002  -0.004   0.002  0.00  0.00     0.018 A 
ATOM      4  S1  <0> d          -0.022   1.764   0.012  0.00  0.00    -0.074 SA
ATOM      5  C7  <0> d           1.684   2.068  -0.003  0.00  0.00     0.094 A 
ATOM      6  C19 <0> d          -1.152  -0.957   0.006  0.00  0.00     0.281 C 
ATOM      7  N2  <0> d          -0.648  -2.292  -0.368  0.00  0.00    -0.070 N 
ATOM      8  C20 <0> d           0.540  -2.641   0.424  0.00  0.00     0.239 C 
ATOM      9  C21 <0> d           1.736  -1.796  -0.022  0.00  0.00     0.068 C 
ATOM     10  C22 <0> d          -1.696  -3.311  -0.221  0.00  0.00     0.270 C 
ATOM     11  H29 <0> d          -0.354  -2.267  -1.428  0.00  0.00     0.279 HD
ENDROOT
BRANCH   5  12
ATOM     12  N1  <0> d           2.342   3.288  -0.003  0.00  0.00    -0.319 N 
ATOM     13  C8  <0> d           1.635   4.435   0.010  0.00  0.00     0.240 C 
ATOM     14  O3  <0> d           0.422   4.399   0.022  0.00  0.00    -0.272 OA
ATOM     15  H6  <0> d           3.442   3.320  -0.014  0.00  0.00     0.169 HD
BRANCH  13  16
ATOM     16  C9  <0> d           2.350   5.761   0.010  0.00  0.00     0.117 C 
ATOM     17  C13 <0> d           1.442   7.042  -0.005  0.00  0.00    -0.009 C 
ATOM     18  C12 <0> d           2.630   8.067  -0.035  0.00  0.00     0.033 C 
ATOM     19  C14 <0> d           0.578   7.122  -1.265  0.00  0.00     0.018 C 
ATOM     20  C15 <0> d           0.603   7.168   1.269  0.00  0.00     0.018 C 
ATOM     21  C11 <0> d           3.445   7.601   1.211  0.00  0.00     0.020 C 
ATOM     22  C16 <0> d           3.427   7.532  -1.234  0.00  0.00     0.205 C 
ATOM     23  C18 <0> d           2.265   9.552  -0.080  0.00  0.00     0.025 C 
ATOM     24  C10 <0> d           3.265   6.045   1.240  0.00  0.00     0.029 C 
ATOM     25  O4  <0> d           4.066   8.175  -2.032  0.00  0.00    -0.288 OA
ATOM     26  C17 <0> d           3.246   6.043  -1.205  0.00  0.00     0.214 C 
ATOM     27  O5  <0> d           3.708   5.236  -1.975  0.00  0.00    -0.288 OA
ENDBRANCH  13  16
ENDBRANCH   5  12
BRANCH   1  28
ATOM     28  C3  <0> d           3.683   0.587  -0.030  0.00  0.00     0.296 C 
ATOM     29  O2  <0> d           4.276   0.507  -1.089  0.00  0.00    -0.259 OA
BRANCH  28  30
ATOM     30  O1  <0> d           4.362   0.487   1.131  0.00  0.00    -0.318 OA
BRANCH  30  31
ATOM     31  C2  <0> d           5.797   0.285   1.041  0.00  0.00     0.174 C 
ATOM     32  C1  <0> d           6.390   0.196   2.449  0.00  0.00     0.034 C 
ENDBRANCH  30  31
ENDBRANCH  28  30
ENDBRANCH   1  28
TORSDOF 5
