REMARK  4 active torsions:
REMARK  status: ('A' for Active; 'I' for Inactive)
REMARK    1  A    between atoms: C3_3  and  C10_12 
REMARK    2  A    between atoms: C11_13  and  C13_16 
REMARK       I    between atoms: C13_16  and  N3_18 
REMARK    3  A    between atoms: N3_18  and  C14_19 
REMARK    4  A    between atoms: C15_20  and  C22_28 
REMARK       I    between atoms: C22_28  and  N4_30 
ROOT
ATOM      1  C10 <0> d          -0.238  -0.294  -2.452  0.00  0.00     0.042 C 
ATOM      2  C11 <0> d          -0.913   0.893  -2.681  0.00  0.00     0.113 C 
ATOM      3  C12 <0> d          -0.850   1.515  -3.970  0.00  0.00     0.105 C 
ATOM      4  N2  <0> d          -0.800   2.009  -4.992  0.00  0.00    -0.191 NA
ENDROOT
BRANCH   2   5
ATOM      5  C13 <0> d          -1.693   1.514  -1.604  0.00  0.00     0.267 C 
ATOM      6  O1  <0> d          -1.659   1.047  -0.481  0.00  0.00    -0.267 OA
ATOM      7  N3  <0> d          -2.446   2.603  -1.859  0.00  0.00    -0.316 N 
ATOM      8  H10 <0> d          -2.473   2.975  -2.754  0.00  0.00     0.170 HD
BRANCH   7   9
ATOM      9  C14 <0> d          -3.182   3.189  -0.842  0.00  0.00     0.093 A 
ATOM     10  S1  <0> d          -3.282   2.714   0.766  0.00  0.00    -0.075 SA
ATOM     11  C17 <0> d          -4.391   3.949   1.377  0.00  0.00    -0.008 A 
ATOM     12  C16 <0> d          -4.675   4.717   0.303  0.00  0.00    -0.026 A 
ATOM     13  C18 <0> d          -4.914   4.122   2.769  0.00  0.00     0.047 C 
ATOM     14  C15 <0> d          -4.009   4.299  -0.919  0.00  0.00     0.073 A 
ATOM     15  C21 <0> d          -5.617   5.907   0.408  0.00  0.00     0.041 C 
ATOM     16  C20 <0> d          -6.449   5.762   1.683  0.00  0.00     0.005 C 
ATOM     17  C19 <0> d          -5.528   5.525   2.883  0.00  0.00     0.005 C 
BRANCH  14  18
ATOM     18  C22 <0> d          -4.204   5.020  -2.180  0.00  0.00     0.254 C 
ATOM     19  O2  <0> d          -5.102   4.695  -2.935  0.00  0.00    -0.268 OA
ATOM     20  N4  <0> d          -3.389   6.043  -2.504  0.00  0.00    -0.361 N 
ATOM     21  C23 <0> d          -3.583   6.764  -3.764  0.00  0.00     0.149 C 
ATOM     22  H19 <0> d          -2.673   6.303  -1.903  0.00  0.00     0.162 HD
ENDBRANCH  14  18
ENDBRANCH   7   9
ENDBRANCH   2   5
BRANCH   1  23
ATOM     23  C3  <0> d          -0.389  -0.964  -1.218  0.00  0.00     0.000 A 
ATOM     24  C2  <0> d           0.592  -1.187  -0.269  0.00  0.00     0.017 A 
ATOM     25  C1  <0> d           2.028  -0.746  -0.383  0.00  0.00     0.069 C 
ATOM     26  N1  <0> d           0.067  -1.865   0.770  0.00  0.00    -0.358 N 
ATOM     27  C9  <0> d          -1.275  -2.112   0.566  0.00  0.00     0.043 A 
ATOM     28  H1  <0> d           0.565  -2.139   1.556  0.00  0.00     0.166 HD
ATOM     29  C4  <0> d          -1.624  -1.568  -0.680  0.00  0.00     0.003 A 
ATOM     30  C8  <0> d          -2.248  -2.756   1.323  0.00  0.00     0.030 A 
ATOM     31  C5  <0> d          -2.930  -1.676  -1.150  0.00  0.00     0.014 A 
ATOM     32  C6  <0> d          -3.879  -2.320  -0.385  0.00  0.00     0.001 A 
ATOM     33  C7  <0> d          -3.537  -2.857   0.847  0.00  0.00     0.002 A 
ENDBRANCH   1  23
TORSDOF 4
