REMARK  4 active torsions:
REMARK  status: ('A' for Active; 'I' for Inactive)
REMARK    1  A    between atoms: C3_3  and  S2_6 
REMARK    2  A    between atoms: S2_6  and  N1_9 
REMARK    3  A    between atoms: C8_13  and  C10_15 
REMARK       I    between atoms: C10_15  and  N2_17 
REMARK    4  A    between atoms: N2_17  and  C11_18 
ROOT
ATOM      1  N1  <0> d          -2.163   1.185  -1.141  0.00  0.00    -0.305 N 
ATOM      2  C5  <0> d          -2.923   1.530   0.068  0.00  0.00     0.135 C 
ATOM      3  C6  <0> d          -2.156   1.023   1.294  0.00  0.00     0.021 C 
ATOM      4  C7  <0> d          -0.730   1.580   1.266  0.00  0.00     0.017 C 
ATOM      5  C8  <0> d          -0.013   1.086   0.008  0.00  0.00     0.097 C 
ATOM      6  C9  <0> d          -0.755   1.594  -1.232  0.00  0.00     0.149 C 
ENDROOT
BRANCH   5   7
ATOM      7  C10 <0> d           1.401   1.608  -0.003  0.00  0.00     0.229 C 
ATOM      8  O3  <0> d           1.779   2.316  -0.912  0.00  0.00    -0.273 OA
ATOM      9  N2  <0> d           2.245   1.289   0.998  0.00  0.00    -0.311 N 
ATOM     10  H13 <0> d           1.942   0.723   1.726  0.00  0.00     0.170 HD
BRANCH   9  11
ATOM     11  C11 <0> d           3.549   1.771   0.989  0.00  0.00     0.139 A 
ATOM     12  N4  <0> d           3.977   2.542  -0.005  0.00  0.00    -0.224 NA
ATOM     13  C14 <0> d           5.210   3.006  -0.013  0.00  0.00     0.235 A 
ATOM     14  N3  <0> d           6.068   2.718   0.945  0.00  0.00    -0.246 NA
ATOM     15  C13 <0> d           5.717   1.949   1.967  0.00  0.00     0.046 A 
ATOM     16  C12 <0> d           4.432   1.448   2.019  0.00  0.00     0.013 A 
ATOM     17  C15 <0> d           6.498   1.478   3.173  0.00  0.00     0.060 C 
ATOM     18  C17 <0> d           4.257   0.605   3.260  0.00  0.00     0.045 C 
ATOM     19  C16 <0> d           5.691   0.289   3.739  0.00  0.00     0.011 C 
ENDBRANCH   9  11
ENDBRANCH   5   7
BRANCH   1  20
ATOM     20  S2  <0> d          -2.880   0.349  -2.378  0.00  0.00     0.267 S 
ATOM     21  O1  <0> d          -4.277   0.588  -2.273  0.00  0.00    -0.200 OA
ATOM     22  O2  <0> d          -2.142   0.651  -3.554  0.00  0.00    -0.200 OA
BRANCH  20  23
ATOM     23  C3  <0> d          -2.638  -1.367  -2.057  0.00  0.00     0.120 A 
ATOM     24  C2  <0> d          -3.423  -2.224  -1.361  0.00  0.00     0.033 A 
ATOM     25  C1  <0> d          -3.030  -3.543  -1.237  0.00  0.00     0.009 A 
ATOM     26  C4  <0> d          -1.871  -3.941  -1.817  0.00  0.00     0.051 A 
ATOM     27  S1  <0> d          -1.298  -2.428  -2.572  0.00  0.00    -0.088 SA
ENDBRANCH  20  23
ENDBRANCH   1  20
TORSDOF 4
