REMARK  5 active torsions:
REMARK  status: ('A' for Active; 'I' for Inactive)
REMARK    1  A    between atoms: N1_2  and  C2_3 
REMARK       I    between atoms: N1_2  and  C11_15 
REMARK    2  A    between atoms: C2_3  and  C3_4 
REMARK    3  A    between atoms: C11_15  and  C12_17 
REMARK    4  A    between atoms: N4_21  and  C17_23 
REMARK    5  A    between atoms: C17_23  and  C18_24 
REMARK       I    between atoms: C18_24  and  N5_26 
ROOT
ATOM      1  C1  <0> d           0.780   1.325  -0.083  0.00  0.00     0.153 C 
ATOM      2  N1  <0> d           0.376  -0.083  -0.050  0.00  0.00    -0.350 N 
ATOM      3  C11 <0> d          -0.102  -0.673  -1.163  0.00  0.00     0.225 C 
ATOM      4  O1  <0> d          -0.513  -1.813  -1.116  0.00  0.00    -0.273 OA
ENDROOT
BRANCH   3   5
ATOM      5  C12 <0> d          -0.124   0.083  -2.467  0.00  0.00     0.104 C 
ATOM      6  C16 <0> d          -0.375  -0.892  -3.619  0.00  0.00     0.249 C 
ATOM      7  N4  <0> d          -0.401  -0.158  -4.890  0.00  0.00    -0.062 N 
ATOM      8  C15 <0> d          -1.519   0.794  -4.893  0.00  0.00     0.235 C 
ATOM      9  H30 <0> d           0.467   0.344  -5.004  0.00  0.00     0.280 HD
ATOM     10  C14 <0> d          -1.311   1.834  -3.790  0.00  0.00     0.029 C 
ATOM     11  C13 <0> d          -1.246   1.125  -2.434  0.00  0.00     0.017 C 
BRANCH   7  12
ATOM     12  C17 <0> d          -0.565  -1.107  -5.999  0.00  0.00     0.336 C 
BRANCH  12  13
ATOM     13  C18 <0> d          -0.459  -0.371  -7.309  0.00  0.00     0.241 C 
ATOM     14  O2  <0> d          -0.266   0.827  -7.319  0.00  0.00    -0.272 OA
ATOM     15  N5  <0> d          -0.578  -1.043  -8.472  0.00  0.00    -0.369 N 
ATOM     16  H28 <0> d          -0.733  -2.001  -8.464  0.00  0.00     0.159 HD
ATOM     17  H29 <0> d          -0.510  -0.569  -9.315  0.00  0.00     0.159 HD
ENDBRANCH  12  13
ENDBRANCH   7  12
ENDBRANCH   3   5
BRANCH   2  18
ATOM     18  C2  <0> d           0.492  -0.849   1.193  0.00  0.00     0.187 C 
BRANCH  18  19
ATOM     19  C3  <0> d          -0.786  -0.725   1.981  0.00  0.00     0.080 A 
ATOM     20  N3  <0> d          -1.824  -1.518   1.890  0.00  0.00    -0.177 NA
ATOM     21  N2  <0> d          -2.802  -1.065   2.786  0.00  0.00    -0.281 N 
ATOM     22  C5  <0> d          -2.314   0.023   3.415  0.00  0.00     0.036 A 
ATOM     23  H1  <0> d          -3.676  -1.462   2.926  0.00  0.00     0.189 HD
ATOM     24  C4  <0> d          -1.072   0.260   2.930  0.00  0.00    -0.006 A 
ATOM     25  C6  <0> d          -3.009   0.831   4.480  0.00  0.00     0.059 C 
ATOM     26  C10 <0> d          -0.169   1.395   3.343  0.00  0.00     0.043 C 
ATOM     27  C9  <0> d          -0.498   1.804   4.781  0.00  0.00     0.005 C 
ATOM     28  C8  <0> d          -1.592   2.869   4.776  0.00  0.00     0.001 C 
ATOM     29  C7  <0> d          -2.873   2.321   4.153  0.00  0.00     0.006 C 
ENDBRANCH  18  19
ENDBRANCH   2  18
TORSDOF 5
