REMARK  7 active torsions:
REMARK  status: ('A' for Active; 'I' for Inactive)
REMARK    1  A    between atoms: C2_2  and  C3_3 
REMARK    2  A    between atoms: C2_2  and  S1_6 
REMARK    3  A    between atoms: S1_6  and  C5_7 
REMARK    4  A    between atoms: C10_12  and  N2_13 
REMARK       I    between atoms: N2_13  and  C11_14 
REMARK    5  A    between atoms: C11_14  and  C12_16 
REMARK       I    between atoms: C12_16  and  N3_18 
REMARK    6  A    between atoms: N3_18  and  C13_19 
REMARK    7  A    between atoms: C13_19  and  C14_20 
ROOT
ATOM      1  C3  <0> d          -0.481   1.862   1.915  0.00  0.00     0.139 C 
ATOM      2  C4  <0> d           0.061   0.568   2.359  0.00  0.00     0.060 C 
ATOM      3  N1  <0> d           0.480  -0.431   2.701  0.00  0.00    -0.197 NA
ENDROOT
BRANCH   1   4
ATOM      4  C2  <0> d          -1.026   1.726   0.491  0.00  0.00     0.061 C 
ATOM      5  C1  <0> d          -1.476   3.097  -0.016  0.00  0.00     0.022 C 
BRANCH   4   6
ATOM      6  S1  <0> d          -2.439   0.588   0.491  0.00  0.00    -0.122 SA
BRANCH   6   7
ATOM      7  C5  <0> d          -2.757   0.303  -1.218  0.00  0.00     0.027 A 
ATOM      8  C10 <0> d          -3.866  -0.449  -1.608  0.00  0.00     0.052 A 
ATOM      9  C9  <0> d          -4.113  -0.664  -2.956  0.00  0.00     0.031 A 
ATOM     10  C8  <0> d          -3.256  -0.145  -3.908  0.00  0.00     0.002 A 
ATOM     11  C7  <0> d          -2.153   0.595  -3.521  0.00  0.00     0.002 A 
ATOM     12  C6  <0> d          -1.901   0.820  -2.181  0.00  0.00     0.021 A 
BRANCH   8  13
ATOM     13  N2  <0> d          -4.729  -0.979  -0.643  0.00  0.00    -0.318 N 
ATOM     14  C11 <0> d          -6.051  -1.063  -0.895  0.00  0.00     0.314 C 
ATOM     15  O1  <0> d          -6.482  -0.753  -1.987  0.00  0.00    -0.262 OA
ATOM     16  H11 <0> d          -4.377  -1.285   0.206  0.00  0.00     0.169 HD
BRANCH  14  17
ATOM     17  C12 <0> d          -6.984  -1.536   0.170  0.00  0.00     0.309 C 
ATOM     18  O2  <0> d          -6.554  -1.846   1.261  0.00  0.00    -0.262 OA
ATOM     19  N3  <0> d          -8.306  -1.621  -0.082  0.00  0.00    -0.347 N 
ATOM     20  H12 <0> d          -8.650  -1.373  -0.954  0.00  0.00     0.163 HD
BRANCH  19  21
ATOM     21  C13 <0> d          -9.222  -2.085   0.963  0.00  0.00     0.181 C 
BRANCH  21  22
ATOM     22  C14 <0> d         -10.632  -2.087   0.430  0.00  0.00     0.044 A 
ATOM     23  N5  <0> d         -11.208  -3.076  -0.272  0.00  0.00    -0.347 N 
ATOM     24  C16 <0> d         -12.431  -2.738  -0.563  0.00  0.00     0.083 A 
ATOM     25  H24 <0> d         -10.782  -3.911  -0.521  0.00  0.00     0.167 HD
ATOM     26  N4  <0> d         -12.670  -1.504  -0.058  0.00  0.00    -0.345 N 
ATOM     27  C17 <0> d         -13.447  -3.546  -1.335  0.00  0.00     0.076 C 
ATOM     28  C15 <0> d         -11.533  -1.093   0.571  0.00  0.00     0.119 A 
ATOM     29  C20 <0> d         -13.936  -0.779  -0.188  0.00  0.00     0.130 C 
ATOM     30  C19 <0> d         -14.759  -1.419  -1.311  0.00  0.00     0.021 C 
ATOM     31  C18 <0> d         -14.832  -2.933  -1.091  0.00  0.00     0.009 C 
ENDBRANCH  21  22
ENDBRANCH  19  21
ENDBRANCH  14  17
ENDBRANCH   8  13
ENDBRANCH   6   7
ENDBRANCH   4   6
ENDBRANCH   1   4
TORSDOF 7
