REMARK  3 active torsions:
REMARK  status: ('A' for Active; 'I' for Inactive)
REMARK    1  A    between atoms: C8_9  and  N2_12 
REMARK    2  A    between atoms: N2_12  and  C10_13 
REMARK    3  A    between atoms: C13_16  and  O2_19 
ROOT
ATOM      1  C1  <0> d          -0.018   1.461   0.010  0.00  0.00     0.159 C 
ATOM      2  N1  <0> d           0.002  -0.004   0.002  0.00  0.00    -0.320 N 
ATOM      3  C2  <0> d          -1.146  -0.797   0.003  0.00  0.00     0.045 A 
ATOM      4  C3  <0> d          -2.495  -0.448   0.012  0.00  0.00     0.030 A 
ATOM      5  C4  <0> d          -3.464  -1.429   0.011  0.00  0.00     0.002 A 
ATOM      6  C5  <0> d          -3.107  -2.765   0.002  0.00  0.00     0.001 A 
ATOM      7  C6  <0> d          -1.769  -3.120  -0.007  0.00  0.00     0.012 A 
ATOM      8  C7  <0> d          -0.800  -2.143  -0.007  0.00  0.00     0.008 A 
ATOM      9  C8  <0> d           0.711  -2.193  -0.015  0.00  0.00     0.313 A 
ATOM     10  C9  <0> d           1.128  -0.738  -0.013  0.00  0.00     0.259 A 
ATOM     11  O1  <0> d           2.264  -0.314  -0.022  0.00  0.00    -0.270 OA
ENDROOT
BRANCH   9  12
ATOM     12  N2  <0> d           1.197  -2.865  -1.227  0.00  0.00    -0.054 N 
ATOM     13  H9  <0> d           0.772  -3.778  -1.299  0.00  0.00     0.279 HD
ATOM     14  H21 <0> d           0.952  -2.316  -2.037  0.00  0.00     0.279 HD
BRANCH  12  15
ATOM     15  C10 <0> d           2.657  -3.009  -1.156  0.00  0.00     0.187 C 
ATOM     16  C15 <0> d           3.177  -3.595  -2.470  0.00  0.00     0.035 C 
ATOM     17  C14 <0> d           4.698  -3.744  -2.395  0.00  0.00     0.034 C 
ATOM     18  C13 <0> d           5.063  -4.679  -1.240  0.00  0.00     0.118 C 
ATOM     19  C12 <0> d           4.543  -4.093   0.074  0.00  0.00     0.034 C 
ATOM     20  C11 <0> d           3.022  -3.943  -0.001  0.00  0.00     0.035 C 
BRANCH  18  21
ATOM     21  O2  <0> d           6.483  -4.818  -1.171  0.00  0.00    -0.396 OA
ATOM     22  H20 <0> d           6.882  -5.185  -1.972  0.00  0.00     0.210 HD
ENDBRANCH  18  21
ENDBRANCH  12  15
ENDBRANCH   9  12
TORSDOF 3
