REMARK  5 active torsions:
REMARK  status: ('A' for Active; 'I' for Inactive)
REMARK    1  A    between atoms: C5_5  and  C6_7 
REMARK    2  A    between atoms: C6_7  and  C7_8 
REMARK    3  A    between atoms: C7_8  and  C8_9 
REMARK       I    between atoms: C8_9  and  N1_11 
REMARK    4  A    between atoms: N1_11  and  C10_13 
REMARK    5  A    between atoms: C10_13  and  C11_14 
REMARK       I    between atoms: C11_14  and  N2_16 
ROOT
ATOM      1  C8  <0> d           2.957  -5.364  -0.039  0.00  0.00     0.243 C 
ATOM      2  O1  <0> d           2.224  -6.337  -0.041  0.00  0.00    -0.268 OA
ATOM      3  N1  <0> d           4.295  -5.529  -0.046  0.00  0.00    -0.344 N 
ATOM      4  C9  <0> d           5.177  -4.360  -0.044  0.00  0.00     0.153 C 
ENDROOT
BRANCH   1   5
ATOM      5  C7  <0> d           2.405  -4.062  -0.030  0.00  0.00     0.075 C 
BRANCH   5   6
ATOM      6  C6  <0> d           1.059  -3.896  -0.023  0.00  0.00     0.024 C 
BRANCH   6   7
ATOM      7  C5  <0> d           0.506  -2.592  -0.014  0.00  0.00     0.005 A 
ATOM      8  C4  <0> d          -0.829  -2.206  -0.006  0.00  0.00     0.020 A 
ATOM      9  C3  <0> d          -1.057  -0.851   0.002  0.00  0.00     0.015 A 
ATOM     10  C2  <0> d           0.002  -0.004   0.002  0.00  0.00    -0.021 A 
ATOM     11  C1  <0> d          -0.018   1.503   0.010  0.00  0.00     0.056 C 
ATOM     12  S1  <0> d           1.342  -1.017  -0.017  0.00  0.00    -0.095 SA
ENDBRANCH   6   7
ENDBRANCH   5   6
ENDBRANCH   1   5
BRANCH   3  13
ATOM     13  C10 <0> d           4.866  -6.878  -0.056  0.00  0.00     0.228 C 
BRANCH  13  14
ATOM     14  C11 <0> d           5.056  -7.333  -1.480  0.00  0.00     0.233 C 
ATOM     15  O2  <0> d           4.744  -6.603  -2.396  0.00  0.00    -0.272 OA
ATOM     16  N2  <0> d           5.572  -8.552  -1.734  0.00  0.00    -0.369 N 
ATOM     17  H13 <0> d           5.821  -9.136  -1.001  0.00  0.00     0.159 HD
ATOM     18  H14 <0> d           5.694  -8.845  -2.651  0.00  0.00     0.159 HD
ENDBRANCH  13  14
ENDBRANCH   3  13
TORSDOF 5
