REMARK  4 active torsions:
REMARK  status: ('A' for Active; 'I' for Inactive)
REMARK    1  A    between atoms: C4_4  and  N1_7 
REMARK    2  A    between atoms: N3_14  and  N5_17 
REMARK       I    between atoms: N5_17  and  C12_18 
REMARK    3  A    between atoms: C12_18  and  C13_20 
REMARK    4  A    between atoms: N6_24  and  C17_26 
ROOT
ATOM      1  N1  <0> d          -1.415  -2.917   7.534  0.00  0.00    -0.215 N 
ATOM      2  C7  <0> d          -1.213  -1.956   6.591  0.00  0.00     0.170 A 
ATOM      3  C8  <0> d          -2.427  -1.811   5.901  0.00  0.00     0.101 A 
ATOM      4  C9  <0> d          -3.342  -2.716   6.471  0.00  0.00     0.160 A 
ATOM      5  N2  <0> d          -2.738  -3.362   7.430  0.00  0.00    -0.177 NA
ATOM      6  C10 <0> d          -2.493  -0.825   4.822  0.00  0.00     0.283 A 
ATOM      7  O1  <0> d          -3.519  -0.648   4.190  0.00  0.00    -0.265 OA
ATOM      8  N3  <0> d          -1.370  -0.120   4.551  0.00  0.00    -0.210 N 
ATOM      9  C11 <0> d          -0.239  -0.328   5.272  0.00  0.00     0.238 A 
ATOM     10  N4  <0> d          -0.164  -1.197   6.237  0.00  0.00    -0.221 NA
ENDROOT
BRANCH   8  11
ATOM     11  N5  <0> d          -1.376   0.834   3.524  0.00  0.00    -0.259 N 
ATOM     12  C12 <0> d          -0.766   0.567   2.352  0.00  0.00     0.242 C 
ATOM     13  O2  <0> d          -0.212  -0.499   2.187  0.00  0.00    -0.271 OA
ATOM     14  H9  <0> d          -1.820   1.686   3.657  0.00  0.00     0.190 HD
BRANCH  12  15
ATOM     15  C13 <0> d          -0.773   1.592   1.248  0.00  0.00     0.106 C 
ATOM     16  C16 <0> d          -0.018   1.072   0.005  0.00  0.00     0.147 C 
ATOM     17  N6  <0> d          -0.759   1.590  -1.151  0.00  0.00    -0.317 N 
ATOM     18  C15 <0> d          -1.991   1.997  -0.799  0.00  0.00     0.225 C 
ATOM     19  C14 <0> d          -2.202   1.794   0.685  0.00  0.00     0.119 C 
ATOM     20  O3  <0> d          -2.813   2.461  -1.560  0.00  0.00    -0.273 OA
BRANCH  17  21
ATOM     21  C17 <0> d          -0.248   1.653  -2.452  0.00  0.00     0.037 A 
ATOM     22  C22 <0> d           1.077   1.319  -2.696  0.00  0.00     0.029 A 
ATOM     23  C21 <0> d           1.578   1.382  -3.982  0.00  0.00     0.002 A 
ATOM     24  C20 <0> d           0.761   1.777  -5.025  0.00  0.00     0.000 A 
ATOM     25  C19 <0> d          -0.559   2.111  -4.785  0.00  0.00     0.002 A 
ATOM     26  C18 <0> d          -1.068   2.043  -3.503  0.00  0.00     0.029 A 
ENDBRANCH  17  21
ENDBRANCH  12  15
ENDBRANCH   8  11
BRANCH   1  27
ATOM     27  C4  <0> d          -0.462  -3.380   8.450  0.00  0.00     0.060 A 
ATOM     28  C3  <0> d          -0.851  -3.749   9.731  0.00  0.00     0.031 A 
ATOM     29  C2  <0> d           0.090  -4.207  10.632  0.00  0.00     0.002 A 
ATOM     30  C1  <0> d           1.419  -4.296  10.260  0.00  0.00     0.000 A 
ATOM     31  C6  <0> d           1.810  -3.930   8.985  0.00  0.00     0.002 A 
ATOM     32  C5  <0> d           0.872  -3.477   8.078  0.00  0.00     0.031 A 
ENDBRANCH   1  27
TORSDOF 4
