REMARK  4 active torsions:
REMARK  status: ('A' for Active; 'I' for Inactive)
REMARK    1  A    between atoms: N2_5  and  C6_8 
REMARK    2  A    between atoms: C6_8  and  C7_9 
REMARK    3  A    between atoms: C9_12  and  C10_14 
REMARK    4  A    between atoms: C10_14  and  O1_15 
ROOT
ATOM      1  C6  <0> d           1.453  -3.974  -0.034  0.00  0.00     0.339 C 
ENDROOT
BRANCH   1   2
ATOM      2  N2  <0> d           1.378  -2.507  -0.025  0.00  0.00     0.097 N 
ATOM      3  C3  <0> d           0.693  -2.008  -1.226  0.00  0.00     0.300 C 
ATOM      4  C2  <0> d           0.688  -0.477  -1.207  0.00  0.00     0.264 C 
ATOM      5  N1  <0> d           0.002  -0.004   0.002  0.00  0.00    -0.072 N 
ATOM      6  C1  <0> d          -0.018   1.465   0.010  0.00  0.00     0.269 C 
ATOM      7  C5  <0> d           0.713  -0.490   1.192  0.00  0.00     0.264 C 
ATOM      8  H18 <0> d          -0.945  -0.353   0.010  0.00  0.00     0.279 HD
ATOM      9  C4  <0> d           0.717  -2.021   1.194  0.00  0.00     0.300 C 
ENDBRANCH   1   2
BRANCH   1  10
ATOM     10  C7  <0> d           2.367  -4.437   1.071  0.00  0.00     0.103 A 
ATOM     11  S1  <0> d           4.028  -4.700   1.014  0.00  0.00    -0.074 SA
ATOM     12  C9  <0> d           4.255  -5.210   2.710  0.00  0.00     0.025 A 
ATOM     13  C8  <0> d           2.979  -5.131   3.168  0.00  0.00     0.134 A 
ATOM     14  N3  <0> d           2.060  -4.737   2.309  0.00  0.00    -0.255 NA
BRANCH  12  15
ATOM     15  C10 <0> d           5.512  -5.620   3.432  0.00  0.00     0.211 C 
BRANCH  15  16
ATOM     16  O1  <0> d           5.700  -7.030   3.298  0.00  0.00    -0.396 OA
ATOM     17  H17 <0> d           6.493  -7.365   3.740  0.00  0.00     0.209 HD
ENDBRANCH  15  16
ENDBRANCH  12  15
ENDBRANCH   1  10
TORSDOF 4
