REMARK  5 active torsions:
REMARK  status: ('A' for Active; 'I' for Inactive)
REMARK    1  A    between atoms: C4_5  and  N2_7 
REMARK       I    between atoms: N2_7  and  C5_8 
REMARK    2  A    between atoms: C5_8  and  C6_10 
REMARK    3  A    between atoms: N3_13  and  C11_16 
REMARK    4  A    between atoms: C11_16  and  C13_18 
REMARK    5  A    between atoms: C13_18  and  C14_20 
ROOT
ATOM      1  C6  <0> d           0.089  -5.172   3.144  0.00  0.00     0.081 C 
ATOM      2  C7  <0> d           1.345  -4.924   3.985  0.00  0.00     0.042 C 
ATOM      3  C8  <0> d           1.399  -5.944   5.124  0.00  0.00     0.236 C 
ATOM      4  N3  <0> d           1.440  -7.302   4.569  0.00  0.00    -0.060 N 
ATOM      5  C9  <0> d           0.206  -7.572   3.821  0.00  0.00     0.236 C 
ATOM      6  C10 <0> d           0.107  -6.615   2.631  0.00  0.00     0.042 C 
ATOM      7  H25 <0> d           2.233  -7.387   3.950  0.00  0.00     0.280 HD
ENDROOT
BRANCH   4   8
ATOM      8  C11 <0> d           1.570  -8.273   5.663  0.00  0.00     0.258 C 
ATOM      9  C12 <0> d           2.860  -7.999   6.438  0.00  0.00     0.049 C 
BRANCH   8  10
ATOM     10  C13 <0> d           1.613  -9.668   5.095  0.00  0.00     0.192 C 
ATOM     11  O2  <0> d           1.905  -9.840   3.929  0.00  0.00    -0.290 OA
BRANCH  10  12
ATOM     12  C14 <0> d           1.311 -10.780   5.920  0.00  0.00     0.040 A 
ATOM     13  C17 <0> d           1.306 -12.202   5.526  0.00  0.00     0.006 A 
ATOM     14  C16 <0> d           0.952 -12.919   6.679  0.00  0.00     0.043 A 
ATOM     15  C18 <0> d           1.567 -12.876   4.337  0.00  0.00     0.014 A 
ATOM     16  N4  <0> d           0.748 -12.005   7.693  0.00  0.00    -0.364 N 
ATOM     17  C21 <0> d           0.866 -14.306   6.620  0.00  0.00     0.030 A 
ATOM     18  C15 <0> d           0.957 -10.750   7.253  0.00  0.00     0.104 A 
ATOM     19  H2  <0> d           0.489 -12.235   8.599  0.00  0.00     0.165 HD
ATOM     20  C20 <0> d           1.119 -14.961   5.434  0.00  0.00     0.002 A 
ATOM     21  C19 <0> d           1.472 -14.251   4.296  0.00  0.00     0.001 A 
ENDBRANCH  10  12
ENDBRANCH   8  10
ENDBRANCH   4   8
BRANCH   1  22
ATOM     22  C5  <0> d           0.071  -4.222   1.974  0.00  0.00     0.228 C 
ATOM     23  N2  <0> d           0.053  -2.891   2.187  0.00  0.00    -0.305 N 
ATOM     24  H7  <0> d           0.053  -2.545   3.093  0.00  0.00     0.171 HD
ATOM     25  O1  <0> d           0.071  -4.655   0.841  0.00  0.00    -0.273 OA
BRANCH  23  26
ATOM     26  C4  <0> d           0.036  -2.015   1.108  0.00  0.00     0.173 A 
ATOM     27  S1  <0> d           0.032  -2.379  -0.535  0.00  0.00    -0.062 SA
ATOM     28  C3  <0> d           0.006  -0.706  -1.158  0.00  0.00     0.080 A 
ATOM     29  C2  <0> d           0.002  -0.004   0.002  0.00  0.00     0.040 A 
ATOM     30  C1  <0> d          -0.018   1.503   0.010  0.00  0.00     0.071 C 
ATOM     31  N1  <0> d           0.023  -0.700   1.124  0.00  0.00    -0.229 NA
ENDBRANCH  23  26
ENDBRANCH   1  22
TORSDOF 5
