REMARK  5 active torsions:
REMARK  status: ('A' for Active; 'I' for Inactive)
REMARK    1  A    between atoms: O1_2  and  C2_3 
REMARK    2  A    between atoms: C5_6  and  C8_10 
REMARK       I    between atoms: C8_10  and  N1_12 
REMARK    3  A    between atoms: N1_12  and  C9_13 
REMARK    4  A    between atoms: N2_15  and  N3_16 
REMARK       I    between atoms: N3_16  and  C10_17 
REMARK    5  A    between atoms: C10_17  and  C11_19 
ROOT
ATOM      1  C8  <0> d          -6.223   0.728   0.039  0.00  0.00     0.257 C 
ATOM      2  O2  <0> d          -7.177   1.481   0.048  0.00  0.00    -0.267 OA
ATOM      3  N1  <0> d          -4.971   1.226   0.035  0.00  0.00    -0.298 N 
ATOM      4  H7  <0> d          -4.210   0.625   0.028  0.00  0.00     0.171 HD
ENDROOT
BRANCH   3   5
ATOM      5  C9  <0> d          -4.776   2.560   0.041  0.00  0.00     0.193 C 
ATOM      6  S1  <0> d          -6.120   3.620   0.053  0.00  0.00    -0.039 SA
ATOM      7  N2  <0> d          -3.524   3.058   0.037  0.00  0.00    -0.273 N 
ATOM      8  H8  <0> d          -3.384   4.018   0.041  0.00  0.00     0.189 HD
BRANCH   7   9
ATOM      9  N3  <0> d          -2.425   2.190   0.027  0.00  0.00    -0.263 N 
ATOM     10  C10 <0> d          -1.173   2.688   0.022  0.00  0.00     0.277 C 
ATOM     11  O3  <0> d          -0.997   3.893   0.028  0.00  0.00    -0.265 OA
ATOM     12  H9  <0> d          -2.565   1.230   0.022  0.00  0.00     0.190 HD
BRANCH  10  13
ATOM     13  C11 <0> d          -0.022   1.780   0.012  0.00  0.00     0.074 A 
ATOM     14  S2  <0> d           0.002  -0.004   0.002  0.00  0.00    -0.097 SA
ATOM     15  C14 <0> d           1.719  -0.241  -0.016  0.00  0.00     0.050 A 
ATOM     16  C13 <0> d           2.208   1.027  -0.013  0.00  0.00     0.009 A 
ATOM     17  C12 <0> d           1.330   2.083   0.001  0.00  0.00     0.025 A 
ENDBRANCH  10  13
ENDBRANCH   7   9
ENDBRANCH   3   5
BRANCH   1  18
ATOM     18  C5  <0> d          -6.436  -0.732   0.033  0.00  0.00     0.033 A 
ATOM     19  C4  <0> d          -5.340  -1.600   0.017  0.00  0.00     0.020 A 
ATOM     20  C3  <0> d          -5.543  -2.962   0.016  0.00  0.00     0.039 A 
ATOM     21  C2  <0> d          -6.835  -3.474   0.020  0.00  0.00     0.084 A 
ATOM     22  C7  <0> d          -7.928  -2.615   0.031  0.00  0.00     0.040 A 
ATOM     23  C6  <0> d          -7.734  -1.251   0.037  0.00  0.00     0.038 A 
ATOM     24  I1  <0> d          -9.872  -3.395   0.038  0.00  0.00    -0.042 I 
BRANCH  21  25
ATOM     25  O1  <0> d          -7.031  -4.817   0.014  0.00  0.00    -0.355 OA
ATOM     26  C1  <0> d          -5.864  -5.643   0.004  0.00  0.00     0.210 C 
ENDBRANCH  21  25
ENDBRANCH   1  18
TORSDOF 5
