REMARK  6 active torsions:
REMARK  status: ('A' for Active; 'I' for Inactive)
REMARK    1  A    between atoms: C5_5  and  N1_8 
REMARK       I    between atoms: N1_8  and  C8_9 
REMARK    2  A    between atoms: C8_9  and  C9_11 
REMARK    3  A    between atoms: C9_11  and  N3_29 
REMARK    4  A    between atoms: C11_13  and  C13_15 
REMARK    5  A    between atoms: C11_13  and  N3_29 
REMARK       I    between atoms: C13_15  and  N2_17 
REMARK    6  A    between atoms: N2_17  and  C14_18 
ROOT
ATOM      1  C11 <0> d          -1.431   3.424   1.941  0.00  0.00     0.275 C 
ATOM      2  C12 <0> d          -1.385   4.583   2.938  0.00  0.00     0.050 C 
ENDROOT
BRANCH   1   3
ATOM      3  C13 <0> d          -2.314   3.795   0.778  0.00  0.00     0.253 C 
ATOM      4  O2  <0> d          -3.337   3.177   0.571  0.00  0.00    -0.271 OA
ATOM      5  N2  <0> d          -1.968   4.815  -0.032  0.00  0.00    -0.324 N 
ATOM      6  H18 <0> d          -1.136   5.291   0.115  0.00  0.00     0.169 HD
BRANCH   5   7
ATOM      7  C14 <0> d          -2.810   5.189  -1.086  0.00  0.00     0.046 A 
ATOM      8  C19 <0> d          -3.280   6.493  -1.173  0.00  0.00    -0.034 A 
ATOM      9  C18 <0> d          -4.111   6.858  -2.213  0.00  0.00     0.015 A 
ATOM     10  C20 <0> d          -2.883   7.508  -0.132  0.00  0.00     0.050 C 
ATOM     11  C17 <0> d          -4.476   5.927  -3.168  0.00  0.00    -0.061 A 
ATOM     12  C16 <0> d          -4.011   4.627  -3.084  0.00  0.00     0.015 A 
ATOM     13  C21 <0> d          -5.383   6.329  -4.302  0.00  0.00     0.048 C 
ATOM     14  C15 <0> d          -3.174   4.257  -2.049  0.00  0.00    -0.034 A 
ATOM     15  C22 <0> d          -2.662   2.843  -1.962  0.00  0.00     0.050 C 
ENDBRANCH   5   7
ENDBRANCH   1   3
BRANCH   1  16
ATOM     16  N3  <0> d          -1.975   2.209   2.584  0.00  0.00    -0.054 N 
ATOM     17  C10 <0> d          -1.010   1.686   3.573  0.00  0.00     0.271 C 
ATOM     18  H30 <0> d          -2.136   1.495   1.864  0.00  0.00     0.281 HD
BRANCH  16  19
ATOM     19  C9  <0> d          -3.259   2.521   3.246  0.00  0.00     0.338 C 
BRANCH  19  20
ATOM     20  C8  <0> d          -3.897   1.233   3.700  0.00  0.00     0.248 C 
ATOM     21  N1  <0> d          -5.093   1.256   4.320  0.00  0.00    -0.326 N 
ATOM     22  H9  <0> d          -5.578   2.091   4.409  0.00  0.00     0.169 HD
ATOM     23  O1  <0> d          -3.334   0.176   3.507  0.00  0.00    -0.271 OA
BRANCH  21  24
ATOM     24  C5  <0> d          -5.636   0.074   4.836  0.00  0.00     0.034 A 
ATOM     25  C4  <0> d          -6.376   0.103   6.011  0.00  0.00     0.030 A 
ATOM     26  C3  <0> d          -6.911  -1.066   6.518  0.00  0.00     0.009 A 
ATOM     27  C2  <0> d          -6.710  -2.264   5.857  0.00  0.00    -0.062 A 
ATOM     28  C1  <0> d          -7.294  -3.536   6.413  0.00  0.00     0.048 C 
ATOM     29  C7  <0> d          -5.973  -2.296   4.687  0.00  0.00     0.009 A 
ATOM     30  C6  <0> d          -5.441  -1.130   4.172  0.00  0.00     0.030 A 
ENDBRANCH  21  24
ENDBRANCH  19  20
ENDBRANCH  16  19
ENDBRANCH   1  16
TORSDOF 6
