REMARK  6 active torsions:
REMARK  status: ('A' for Active; 'I' for Inactive)
REMARK    1  A    between atoms: C3_3  and  C5_8 
REMARK    2  A    between atoms: C5_8  and  C6_9 
REMARK    3  A    between atoms: C6_9  and  C7_10 
REMARK    4  A    between atoms: C7_10  and  N3_11 
REMARK       I    between atoms: N3_11  and  C8_12 
REMARK    5  A    between atoms: C8_12  and  C9_14 
REMARK    6  A    between atoms: C9_14  and  N4_16 
ROOT
ATOM      1  N3  <0> d           3.083   0.951  -4.742  0.00  0.00    -0.359 N 
ATOM      2  C8  <0> d           3.309   1.381  -5.999  0.00  0.00     0.248 C 
ATOM      3  O1  <0> d           2.400   1.847  -6.653  0.00  0.00    -0.271 OA
ATOM      4  H15 <0> d           3.810   0.578  -4.219  0.00  0.00     0.162 HD
ENDROOT
BRANCH   1   5
ATOM      5  C7  <0> d           1.739   1.046  -4.166  0.00  0.00     0.123 C 
BRANCH   5   6
ATOM      6  C6  <0> d           1.756   0.493  -2.739  0.00  0.00     0.024 C 
BRANCH   6   7
ATOM      7  C5  <0> d           0.353   0.593  -2.137  0.00  0.00     0.044 C 
BRANCH   7   8
ATOM      8  C3  <0> d           0.369   0.048  -0.732  0.00  0.00    -0.015 A 
ATOM      9  C2  <0> d           0.706   0.735   0.384  0.00  0.00     0.031 A 
ATOM     10  C1  <0> d           1.131   2.180   0.444  0.00  0.00     0.070 C 
ATOM     11  N2  <0> d           0.597  -0.106   1.433  0.00  0.00    -0.282 N 
ATOM     12  N1  <0> d           0.173  -1.350   0.947  0.00  0.00    -0.187 NA
ATOM     13  H1  <0> d           0.779   0.112   2.361  0.00  0.00     0.189 HD
ATOM     14  C4  <0> d           0.039  -1.257  -0.351  0.00  0.00     0.147 A 
ENDBRANCH   7   8
ENDBRANCH   6   7
ENDBRANCH   5   6
ENDBRANCH   1   5
BRANCH   2  15
ATOM     15  C9  <0> d           4.691   1.283  -6.592  0.00  0.00     0.276 C 
ATOM     16  C10 <0> d           5.639   2.213  -5.832  0.00  0.00     0.050 C 
BRANCH  15  17
ATOM     17  N4  <0> d           4.646   1.679  -8.006  0.00  0.00    -0.051 N 
ATOM     18  C14 <0> d           3.851   0.700  -8.770  0.00  0.00     0.185 C 
ATOM     19  C13 <0> d           2.679   1.468  -9.416  0.00  0.00     0.035 C 
ATOM     20  C15 <0> d           3.311  -0.379  -7.830  0.00  0.00     0.040 C 
ATOM     21  C12 <0> d           3.196   2.931  -9.449  0.00  0.00     0.035 C 
ATOM     22  C11 <0> d           4.007   3.006  -8.131  0.00  0.00     0.185 C 
ATOM     23  C16 <0> d           5.069   4.103  -8.219  0.00  0.00     0.040 C 
ATOM     24  H29 <0> d           5.583   1.719  -8.378  0.00  0.00     0.281 HD
ENDBRANCH  15  17
ENDBRANCH   2  15
TORSDOF 6
