REMARK  4 active torsions:
REMARK  status: ('A' for Active; 'I' for Inactive)
REMARK    1  A    between atoms: C8_9  and  C9_14 
REMARK       I    between atoms: C9_14  and  N3_16 
REMARK    2  A    between atoms: N3_16  and  C10_17 
REMARK    3  A    between atoms: C13_20  and  N4_23 
REMARK       I    between atoms: N4_23  and  C16_24 
REMARK    4  A    between atoms: C16_24  and  C17_26 
ROOT
ATOM      1  C9  <0> d           2.276   0.228   1.857  0.00  0.00     0.265 C 
ATOM      2  O3  <0> d           1.659   1.067   2.479  0.00  0.00    -0.269 OA
ATOM      3  N3  <0> d           2.831  -0.817   2.502  0.00  0.00    -0.324 N 
ATOM      4  H10 <0> d           3.261  -1.526   1.998  0.00  0.00     0.169 HD
ENDROOT
BRANCH   1   5
ATOM      5  C8  <0> d           2.422   0.354   0.362  0.00  0.00     0.286 C 
ATOM      6  N1  <0> d           2.044   1.703  -0.055  0.00  0.00    -0.359 N 
ATOM      7  C6  <0> d           0.735   2.175  -0.024  0.00  0.00     0.054 A 
ATOM      8  H8  <0> d           2.741   2.299  -0.370  0.00  0.00     0.162 HD
ATOM      9  C5  <0> d          -0.360   1.322  -0.013  0.00  0.00     0.105 A 
ATOM     10  C7  <0> d           0.519   3.553  -0.012  0.00  0.00     0.037 A 
ATOM     11  C4  <0> d          -1.643   1.826   0.001  0.00  0.00     0.028 A 
ATOM     12  S1  <0> d          -0.101  -0.427  -0.010  0.00  0.00     0.263 S 
ATOM     13  C3  <0> d          -1.850   3.194   0.002  0.00  0.00     0.008 A 
ATOM     14  C2  <0> d          -0.766   4.054   0.000  0.00  0.00    -0.060 A 
ATOM     15  C1  <0> d          -0.991   5.544   0.012  0.00  0.00     0.048 C 
ATOM     16  N2  <0> d           1.530  -0.615  -0.306  0.00  0.00    -0.284 N 
ATOM     17  O1  <0> d          -0.337  -0.879   1.316  0.00  0.00    -0.200 OA
ATOM     18  O2  <0> d          -0.793  -0.951  -1.135  0.00  0.00    -0.200 OA
ATOM     19  H9  <0> d           1.871  -1.317  -0.882  0.00  0.00     0.175 HD
ENDBRANCH   1   5
BRANCH   3  20
ATOM     20  C10 <0> d           2.788  -0.879   3.901  0.00  0.00     0.035 A 
ATOM     21  C15 <0> d           2.687  -2.109   4.538  0.00  0.00     0.032 A 
ATOM     22  C14 <0> d           2.644  -2.171   5.916  0.00  0.00     0.032 A 
ATOM     23  C13 <0> d           2.702  -1.003   6.666  0.00  0.00     0.035 A 
ATOM     24  C12 <0> d           2.804   0.227   6.028  0.00  0.00     0.032 A 
ATOM     25  C11 <0> d           2.852   0.288   4.650  0.00  0.00     0.032 A 
BRANCH  23  26
ATOM     26  N4  <0> d           2.659  -1.066   8.063  0.00  0.00    -0.321 N 
ATOM     27  C16 <0> d           3.253  -2.088   8.711  0.00  0.00     0.279 C 
ATOM     28  O4  <0> d           3.754  -2.999   8.079  0.00  0.00    -0.265 OA
ATOM     29  H15 <0> d           2.202  -0.373   8.566  0.00  0.00     0.169 HD
BRANCH  27  30
ATOM     30  C17 <0> d           3.295  -2.102  10.176  0.00  0.00     0.142 A 
ATOM     31  O5  <0> d           2.780  -1.159  10.993  0.00  0.00    -0.317 OA
ATOM     32  C20 <0> d           3.005  -1.505  12.268  0.00  0.00     0.143 A 
ATOM     33  C19 <0> d           3.671  -2.680  12.289  0.00  0.00     0.027 A 
ATOM     34  C18 <0> d           3.857  -3.074  10.954  0.00  0.00     0.045 A 
ENDBRANCH  27  30
ENDBRANCH  23  26
ENDBRANCH   3  20
TORSDOF 4
