REMARK  3 active torsions:
REMARK  status: ('A' for Active; 'I' for Inactive)
REMARK    1  A    between atoms: C3_3  and  C7_9 
REMARK    2  A    between atoms: C5_5  and  N2_8 
REMARK       I    between atoms: C7_9  and  N3_11 
REMARK    3  A    between atoms: N3_11  and  C9_13 
ROOT
ATOM      1  C7  <0> d          -0.126   0.216  -2.389  0.00  0.00     0.255 C 
ATOM      2  O1  <0> d          -0.014   1.424  -2.317  0.00  0.00    -0.267 OA
ATOM      3  N3  <0> d          -0.293  -0.375  -3.589  0.00  0.00    -0.347 N 
ATOM      4  C8  <0> d          -0.523  -1.819  -3.669  0.00  0.00     0.153 C 
ENDROOT
BRANCH   1   5
ATOM      5  C3  <0> d          -0.078  -0.606  -1.161  0.00  0.00     0.058 A 
ATOM      6  C2  <0> d           0.996  -0.496  -0.277  0.00  0.00     0.046 A 
ATOM      7  C1  <0> d           2.114   0.468  -0.578  0.00  0.00     0.071 C 
ATOM      8  N1  <0> d           1.046  -1.230   0.816  0.00  0.00    -0.263 NA
ATOM      9  C6  <0> d           0.090  -2.084   1.127  0.00  0.00     0.145 A 
ATOM     10  C5  <0> d          -1.014  -2.255   0.300  0.00  0.00     0.044 A 
ATOM     11  C4  <0> d          -1.108  -1.506  -0.868  0.00  0.00     0.049 A 
BRANCH  10  12
ATOM     12  N2  <0> d          -2.017  -3.167   0.639  0.00  0.00    -0.398 N 
ATOM     13  H7  <0> d          -2.785  -3.281   0.057  0.00  0.00     0.156 HD
ATOM     14  H8  <0> d          -1.946  -3.686   1.455  0.00  0.00     0.156 HD
ENDBRANCH  10  12
ENDBRANCH   1   5
BRANCH   3  15
ATOM     15  C9  <0> d          -0.245   0.428  -4.814  0.00  0.00     0.101 C 
ATOM     16  C12 <0> d          -1.602   0.322  -5.551  0.00  0.00     0.165 C 
ATOM     17  S1  <0> d          -1.115   0.469  -7.318  0.00  0.00     0.146 S 
ATOM     18  C11 <0> d           0.715   0.559  -7.123  0.00  0.00     0.142 C 
ATOM     19  O2  <0> d          -1.587   1.709  -7.827  0.00  0.00    -0.228 OA
ATOM     20  O3  <0> d          -1.449  -0.737  -7.992  0.00  0.00    -0.228 OA
ATOM     21  C10 <0> d           0.885  -0.089  -5.720  0.00  0.00     0.041 C 
ENDBRANCH   3  15
TORSDOF 3
