REMARK  5 active torsions:
REMARK  status: ('A' for Active; 'I' for Inactive)
REMARK    1  A    between atoms: C4_4  and  C7_8 
REMARK    2  A    between atoms: C10_12  and  C13_18 
REMARK    3  A    between atoms: C12_14  and  N4_17 
REMARK    4  A    between atoms: N5_21  and  C18_24 
REMARK    5  A    between atoms: C18_24  and  C19_25 
ROOT
ATOM      1  C7  <0> d          -1.403   2.084  -0.586  0.00  0.00     0.094 A 
ATOM      2  C8  <0> d          -2.739   1.687  -0.472  0.00  0.00     0.086 A 
ATOM      3  C9  <0> d          -3.514   2.835  -0.425  0.00  0.00     0.155 A 
ATOM      4  N1  <0> d          -4.837   3.028  -0.319  0.00  0.00    -0.233 NA
ATOM      5  C10 <0> d          -5.346   4.241  -0.300  0.00  0.00     0.044 A 
ATOM      6  C11 <0> d          -4.513   5.356  -0.392  0.00  0.00     0.077 A 
ATOM      7  C12 <0> d          -3.160   5.177  -0.501  0.00  0.00     0.127 A 
ATOM      8  N2  <0> d          -2.659   3.903  -0.517  0.00  0.00    -0.199 N 
ATOM      9  N3  <0> d          -1.355   3.403  -0.616  0.00  0.00    -0.164 NA
ENDROOT
BRANCH   5  10
ATOM     10  C13 <0> d          -6.836   4.426  -0.180  0.00  0.00     0.041 C 
ATOM     11  C17 <0> d          -7.207   4.645   1.290  0.00  0.00     0.038 C 
ATOM     12  C16 <0> d          -8.713   4.894   1.399  0.00  0.00     0.236 C 
ATOM     13  N5  <0> d          -9.075   6.074   0.603  0.00  0.00    -0.067 N 
ATOM     14  C15 <0> d          -8.772   5.869  -0.819  0.00  0.00     0.236 C 
ATOM     15  H30 <0> d          -8.464   6.917   0.958  0.00  0.00     0.280 HD
ATOM     16  C14 <0> d          -7.267   5.648  -0.996  0.00  0.00     0.038 C 
BRANCH  13  17
ATOM     17  C18 <0> d         -10.489   6.425   0.795  0.00  0.00     0.277 C 
BRANCH  17  18
ATOM     18  C19 <0> d         -10.731   7.825   0.293  0.00  0.00     0.011 A 
ATOM     19  C21 <0> d         -10.360   8.968   0.914  0.00  0.00     0.035 A 
ATOM     20  N7  <0> d         -10.757  10.003   0.143  0.00  0.00    -0.278 N 
ATOM     21  C22 <0> d          -9.631   9.069   2.229  0.00  0.00     0.070 C 
ATOM     22  N6  <0> d         -11.400   9.478  -0.984  0.00  0.00    -0.185 NA
ATOM     23  C23 <0> d         -10.555  11.424   0.437  0.00  0.00     0.179 C 
ATOM     24  C20 <0> d         -11.384   8.172  -0.894  0.00  0.00     0.149 A 
ENDBRANCH  17  18
ENDBRANCH  13  17
ENDBRANCH   5  10
BRANCH   7  25
ATOM     25  N4  <0> d          -2.316   6.263  -0.593  0.00  0.00    -0.384 N 
ATOM     26  H10 <0> d          -1.230   6.109  -0.680  0.00  0.00     0.157 HD
ATOM     27  H11 <0> d          -2.728   7.283  -0.579  0.00  0.00     0.157 HD
ENDBRANCH   7  25
BRANCH   1  28
ATOM     28  C4  <0> d          -0.233   1.173  -0.666  0.00  0.00     0.026 A 
ATOM     29  C3  <0> d          -0.249  -0.293  -0.636  0.00  0.00     0.048 A 
ATOM     30  C2  <0> d           1.034  -0.681  -0.742  0.00  0.00     0.050 A 
ATOM     31  C1  <0> d           1.519  -2.107  -0.756  0.00  0.00     0.076 C 
ATOM     32  O1  <0> d           1.812   0.408  -0.830  0.00  0.00    -0.319 OA
ATOM     33  C5  <0> d           1.073   1.526  -0.787  0.00  0.00     0.062 A 
ATOM     34  C6  <0> d           1.601   2.935  -0.860  0.00  0.00     0.077 C 
ENDBRANCH   1  28
TORSDOF 5
