REMARK  4 active torsions:
REMARK  status: ('A' for Active; 'I' for Inactive)
REMARK    1  A    between atoms: N1_5  and  C5_7 
REMARK    2  A    between atoms: C8_10  and  C11_13 
REMARK       I    between atoms: C11_13  and  N3_15 
REMARK    3  A    between atoms: N3_15  and  C12_16 
REMARK    4  A    between atoms: C13_17  and  C21_26 
REMARK       I    between atoms: C21_26  and  N4_28 
ROOT
ATOM      1  C11 <0> d           1.730  -2.628  -0.028  0.00  0.00     0.256 C 
ATOM      2  O1  <0> d           0.514  -2.626  -0.017  0.00  0.00    -0.267 OA
ATOM      3  N3  <0> d           2.406  -1.462  -0.028  0.00  0.00    -0.316 N 
ATOM      4  H10 <0> d           3.376  -1.463  -0.037  0.00  0.00     0.169 HD
ENDROOT
BRANCH   3   5
ATOM      5  C12 <0> d           1.716  -0.261  -0.015  0.00  0.00     0.093 A 
ATOM      6  S1  <0> d           0.002  -0.004   0.002  0.00  0.00    -0.075 SA
ATOM      7  C15 <0> d          -0.022   1.766   0.012  0.00  0.00    -0.008 A 
ATOM      8  C14 <0> d           1.279   2.129   0.001  0.00  0.00    -0.026 A 
ATOM      9  C16 <0> d          -1.213   2.674   0.033  0.00  0.00     0.051 C 
ATOM     10  C13 <0> d           2.228   1.029  -0.013  0.00  0.00     0.073 A 
ATOM     11  C19 <0> d           1.684   3.598   0.004  0.00  0.00     0.041 C 
ATOM     12  C18 <0> d           0.485   4.440  -0.437  0.00  0.00     0.009 C 
ATOM     13  C17 <0> d          -0.741   4.085   0.409  0.00  0.00    -0.014 C 
ATOM     14  C20 <0> d          -1.860   5.091   0.138  0.00  0.00     0.010 C 
BRANCH  10  15
ATOM     15  C21 <0> d           3.674   1.273  -0.026  0.00  0.00     0.252 C 
ATOM     16  O2  <0> d           4.264   1.380  -1.085  0.00  0.00    -0.268 OA
ATOM     17  N4  <0> d           4.350   1.378   1.135  0.00  0.00    -0.366 N 
ATOM     18  H20 <0> d           3.880   1.292   1.979  0.00  0.00     0.159 HD
ATOM     19  H21 <0> d           5.306   1.539   1.127  0.00  0.00     0.159 HD
ENDBRANCH  10  15
ENDBRANCH   3   5
BRANCH   1  20
ATOM     20  C8  <0> d           2.466  -3.907  -0.041  0.00  0.00     0.032 A 
ATOM     21  C7  <0> d           1.767  -5.117  -0.041  0.00  0.00     0.019 A 
ATOM     22  C6  <0> d           2.457  -6.309  -0.053  0.00  0.00     0.032 A 
ATOM     23  C5  <0> d           3.847  -6.309  -0.066  0.00  0.00     0.058 A 
ATOM     24  C10 <0> d           4.546  -5.107  -0.067  0.00  0.00     0.032 A 
ATOM     25  C9  <0> d           3.863  -3.911  -0.059  0.00  0.00     0.019 A 
BRANCH  23  26
ATOM     26  N1  <0> d           4.545  -7.521  -0.078  0.00  0.00    -0.238 N 
ATOM     27  C4  <0> d           5.714  -7.765  -0.724  0.00  0.00     0.035 A 
ATOM     28  C3  <0> d           6.054  -9.053  -0.484  0.00  0.00     0.055 A 
ATOM     29  C22 <0> d           6.495  -6.779  -1.555  0.00  0.00     0.070 C 
ATOM     30  C2  <0> d           5.061  -9.617   0.325  0.00  0.00     0.053 A 
ATOM     31  C1  <0> d           5.037 -11.037   0.829  0.00  0.00     0.072 C 
ATOM     32  N2  <0> d           4.158  -8.703   0.568  0.00  0.00    -0.172 NA
ENDBRANCH  23  26
ENDBRANCH   1  20
TORSDOF 4
