REMARK  4 active torsions:
REMARK  status: ('A' for Active; 'I' for Inactive)
REMARK    1  A    between atoms: C8_9  and  C11_13 
REMARK    2  A    between atoms: C11_13  and  S1_14 
REMARK    3  A    between atoms: S1_14  and  C12_15 
REMARK    4  A    between atoms: C13_18  and  C15_21 
ROOT
ATOM      1  C11 <0> d           1.058  -4.777   3.640  0.00  0.00     0.134 C 
ENDROOT
BRANCH   1   2
ATOM      2  C8  <0> d           0.788  -4.083   2.330  0.00  0.00     0.022 A 
ATOM      3  N1  <0> d           0.532  -2.752   2.338  0.00  0.00    -0.358 N 
ATOM      4  C6  <0> d           0.277  -2.059   1.176  0.00  0.00     0.047 A 
ATOM      5  H9  <0> d           0.528  -2.276   3.183  0.00  0.00     0.166 HD
ATOM      6  C5  <0> d           0.281  -2.742  -0.053  0.00  0.00     0.047 A 
ATOM      7  C7  <0> d           0.020  -0.691   1.195  0.00  0.00     0.037 A 
ATOM      8  C4  <0> d           0.024  -2.051  -1.237  0.00  0.00    -0.045 A 
ATOM      9  C10 <0> d           0.560  -4.189  -0.052  0.00  0.00     0.186 A 
ATOM     10  C3  <0> d          -0.231  -0.708  -1.195  0.00  0.00     0.014 A 
ATOM     11  C19 <0> d           0.027  -2.780  -2.556  0.00  0.00     0.049 C 
ATOM     12  C2  <0> d          -0.237  -0.029   0.015  0.00  0.00    -0.059 A 
ATOM     13  C1  <0> d          -0.520   1.451   0.038  0.00  0.00     0.048 C 
ATOM     14  C9  <0> d           0.810  -4.810   1.194  0.00  0.00     0.081 A 
ATOM     15  O1  <0> d           0.576  -4.829  -1.090  0.00  0.00    -0.287 OA
ENDBRANCH   1   2
BRANCH   1  16
ATOM     16  S1  <0> d           2.728  -4.360   4.212  0.00  0.00    -0.114 SA
BRANCH  16  17
ATOM     17  C12 <0> d           2.894  -5.261   5.778  0.00  0.00     0.339 C 
ATOM     18  N4  <0> d           2.720  -6.711   5.548  0.00  0.00    -0.025 N 
ATOM     19  C13 <0> d           1.547  -7.121   6.356  0.00  0.00     0.334 C 
ATOM     20  C14 <0> d           3.917  -7.438   5.990  0.00  0.00     0.275 C 
ATOM     21  H23 <0> d           2.547  -6.888   4.570  0.00  0.00     0.284 HD
ATOM     22  N3  <0> d           0.773  -5.866   6.542  0.00  0.00    -0.223 NA
ATOM     23  N2  <0> d           1.824  -4.851   6.715  0.00  0.00    -0.221 NA
ATOM     24  H13 <0> d           0.208  -5.666   5.730  0.00  0.00     0.143 HD
ATOM     25  H12 <0> d           2.162  -4.839   7.666  0.00  0.00     0.143 HD
BRANCH  19  26
ATOM     26  C15 <0> d           0.724  -8.143   5.614  0.00  0.00     0.098 A 
ATOM     27  O2  <0> d           1.202  -9.081   4.780  0.00  0.00    -0.324 OA
ATOM     28  C18 <0> d           0.185  -9.817   4.304  0.00  0.00     0.142 A 
ATOM     29  C17 <0> d          -0.962  -9.346   4.826  0.00  0.00     0.027 A 
ATOM     30  C16 <0> d          -0.614  -8.267   5.671  0.00  0.00     0.038 A 
ENDBRANCH  19  26
ENDBRANCH  16  17
ENDBRANCH   1  16
TORSDOF 4
