REMARK  4 active torsions:
REMARK  status: ('A' for Active; 'I' for Inactive)
REMARK    1  A    between atoms: C5_5  and  C7_7 
REMARK    2  A    between atoms: C8_10  and  C9_12 
REMARK    3  A    between atoms: C9_12  and  C10_13 
REMARK    4  A    between atoms: C10_13  and  N3_14 
ROOT
ATOM      1  C7  <0> d           1.249  -2.160  -0.023  0.00  0.00     0.204 A 
ATOM      2  N1  <0> d           2.320  -2.919  -0.033  0.00  0.00    -0.121 NA
ATOM      3  N2  <0> d           1.964  -4.155  -0.038  0.00  0.00    -0.126 NA
ATOM      4  C8  <0> d           0.662  -4.234  -0.032  0.00  0.00     0.171 A 
ATOM      5  O1  <0> d           0.179  -2.980  -0.017  0.00  0.00    -0.273 OA
ENDROOT
BRANCH   1   6
ATOM      6  C5  <0> d           1.222  -0.682  -0.014  0.00  0.00     0.035 A 
ATOM      7  C4  <0> d           2.416   0.041  -0.021  0.00  0.00     0.021 A 
ATOM      8  C3  <0> d           2.383   1.421  -0.013  0.00  0.00     0.019 A 
ATOM      9  I1  <0> d           4.253  -0.965  -0.046  0.00  0.00    -0.044 I 
ATOM     10  C2  <0> d           1.170   2.087   0.002  0.00  0.00     0.001 A 
ATOM     11  C1  <0> d          -0.017   1.375   0.010  0.00  0.00     0.001 A 
ATOM     12  C6  <0> d           0.002  -0.004   0.002  0.00  0.00     0.017 A 
ENDBRANCH   1   6
BRANCH   4  13
ATOM     13  C9  <0> d          -0.152  -5.502  -0.036  0.00  0.00     0.115 C 
BRANCH  13  14
ATOM     14  C10 <0> d          -0.421  -5.940   1.405  0.00  0.00     0.237 C 
BRANCH  14  15
ATOM     15  N3  <0> d          -1.216  -7.176   1.402  0.00  0.00    -0.079 N 
ATOM     16  H9  <0> d          -2.093  -7.010   0.931  0.00  0.00     0.274 HD
ATOM     17  H10 <0> d          -0.707  -7.901   0.919  0.00  0.00     0.274 HD
ATOM     18  H11 <0> d          -1.393  -7.464   2.352  0.00  0.00     0.274 HD
ENDBRANCH  14  15
ENDBRANCH  13  14
ENDBRANCH   4  13
TORSDOF 4
