REMARK  5 active torsions:
REMARK  status: ('A' for Active; 'I' for Inactive)
REMARK    1  A    between atoms: C6_6  and  C8_8 
REMARK       I    between atoms: C8_8  and  N1_10 
REMARK    2  A    between atoms: N1_10  and  N2_11 
REMARK       I    between atoms: N2_11  and  C9_12 
REMARK    3  A    between atoms: C9_12  and  C10_14 
REMARK    4  A    between atoms: C10_14  and  C11_15 
REMARK    5  A    between atoms: C11_15  and  C12_16 
ROOT
ATOM      1  N2  <0> d           0.083  -4.905   3.652  0.00  0.00    -0.267 N 
ATOM      2  C9  <0> d           0.100  -6.252   3.639  0.00  0.00     0.236 C 
ATOM      3  O2  <0> d           0.103  -6.849   2.583  0.00  0.00    -0.272 OA
ATOM      4  H9  <0> d           0.080  -4.428   4.496  0.00  0.00     0.190 HD
ENDROOT
BRANCH   2   5
ATOM      5  C10 <0> d           0.115  -7.018   4.937  0.00  0.00     0.112 C 
BRANCH   5   6
ATOM      6  C11 <0> d           0.134  -8.519   4.644  0.00  0.00     0.088 C 
BRANCH   6   7
ATOM      7  C12 <0> d           0.149  -9.285   5.942  0.00  0.00     0.108 A 
ATOM      8  N4  <0> d           0.167 -10.642   5.915  0.00  0.00    -0.311 N 
ATOM      9  C19 <0> d           0.187 -11.364   7.051  0.00  0.00     0.260 A 
ATOM     10  H20 <0> d           0.169 -11.101   5.060  0.00  0.00     0.170 HD
ATOM     11  C14 <0> d           0.177 -10.679   8.309  0.00  0.00     0.075 A 
ATOM     12  O3  <0> d           0.208 -12.582   7.010  0.00  0.00    -0.267 OA
ATOM     13  C13 <0> d           0.153  -9.274   8.236  0.00  0.00     0.116 A 
ATOM     14  C15 <0> d           0.189 -11.223   9.654  0.00  0.00    -0.031 A 
ATOM     15  N3  <0> d           0.140  -8.631   7.072  0.00  0.00    -0.227 NA
ATOM     16  S1  <0> d           0.148  -8.772   9.937  0.00  0.00    -0.074 SA
ATOM     17  C16 <0> d           0.177 -10.383  10.701  0.00  0.00    -0.012 A 
ATOM     18  C17 <0> d           0.185 -10.720  12.170  0.00  0.00     0.057 C 
ATOM     19  C18 <0> d           0.214 -12.714   9.873  0.00  0.00     0.050 C 
ENDBRANCH   6   7
ENDBRANCH   5   6
ENDBRANCH   2   5
BRANCH   1  20
ATOM     20  N1  <0> d           0.068  -4.193   2.445  0.00  0.00    -0.263 N 
ATOM     21  C8  <0> d           0.051  -2.845   2.458  0.00  0.00     0.270 C 
ATOM     22  O1  <0> d           0.048  -2.248   3.516  0.00  0.00    -0.266 OA
ATOM     23  H8  <0> d           0.071  -4.670   1.601  0.00  0.00     0.190 HD
BRANCH  21  24
ATOM     24  C6  <0> d           0.036  -2.095   1.184  0.00  0.00     0.034 A 
ATOM     25  C5  <0> d           0.039  -2.778  -0.033  0.00  0.00     0.017 A 
ATOM     26  C4  <0> d           0.024  -2.071  -1.218  0.00  0.00     0.002 A 
ATOM     27  C3  <0> d           0.006  -0.688  -1.201  0.00  0.00     0.007 A 
ATOM     28  C2  <0> d           0.002  -0.004   0.002  0.00  0.00    -0.061 A 
ATOM     29  C1  <0> d          -0.018   1.503   0.010  0.00  0.00     0.048 C 
ATOM     30  C7  <0> d           0.023  -0.699   1.194  0.00  0.00     0.024 A 
ENDBRANCH  21  24
ENDBRANCH   1  20
TORSDOF 5
