REMARK  3 active torsions:
REMARK  status: ('A' for Active; 'I' for Inactive)
REMARK    1  A    between atoms: N2_6  and  N3_7 
REMARK       I    between atoms: N3_7  and  C5_8 
REMARK    2  A    between atoms: C5_8  and  C6_10 
REMARK       I    between atoms: C6_10  and  N4_12 
REMARK    3  A    between atoms: N4_12  and  C7_13 
ROOT
ATOM      1  N3  <0> d           2.700  -3.817   1.159  0.00  0.00    -0.239 N 
ATOM      2  C5  <0> d           3.525  -4.883   1.132  0.00  0.00     0.329 C 
ATOM      3  O1  <0> d           3.778  -5.428   0.077  0.00  0.00    -0.261 OA
ATOM      4  H8  <0> d           2.498  -3.381   2.002  0.00  0.00     0.192 HD
ENDROOT
BRANCH   2   5
ATOM      5  C6  <0> d           4.127  -5.392   2.398  0.00  0.00     0.315 C 
ATOM      6  O2  <0> d           3.873  -4.847   3.453  0.00  0.00    -0.262 OA
ATOM      7  N4  <0> d           4.951  -6.458   2.372  0.00  0.00    -0.319 N 
ATOM      8  H9  <0> d           5.213  -6.848   1.523  0.00  0.00     0.169 HD
BRANCH   7   9
ATOM      9  C7  <0> d           5.429  -7.001   3.567  0.00  0.00     0.036 A 
ATOM     10  C12 <0> d           4.636  -6.982   4.707  0.00  0.00     0.048 A 
ATOM     11  C11 <0> d           5.110  -7.526   5.886  0.00  0.00     0.013 A 
ATOM     12  C10 <0> d           6.378  -8.079   5.934  0.00  0.00     0.019 A 
ATOM     13 Br1  <0> d           4.028  -7.509   7.436  0.00  0.00    -0.051 Br
ATOM     14  C9  <0> d           7.172  -8.093   4.801  0.00  0.00     0.004 A 
ATOM     15  C8  <0> d           6.702  -7.557   3.619  0.00  0.00     0.029 A 
ENDBRANCH   7   9
ENDBRANCH   2   5
BRANCH   1  16
ATOM     16  N2  <0> d           2.135  -3.338  -0.031  0.00  0.00    -0.181 NA
ATOM     17  C4  <0> d           1.434  -2.268  -0.020  0.00  0.00     0.035 C 
ATOM     18  C3  <0> d           0.890  -1.674  -1.304  0.00  0.00     0.084 C 
ATOM     19  C13 <0> d           1.118  -1.549   1.275  0.00  0.00     0.084 C 
ATOM     20  C2  <0> d           1.212  -0.175  -1.312  0.00  0.00     0.240 C 
ATOM     21  N1  <0> d           0.694   0.443  -0.086  0.00  0.00    -0.074 N 
ATOM     22  C1  <0> d           0.855   1.901  -0.171  0.00  0.00     0.269 C 
ATOM     23  C14 <0> d           1.424  -0.060   1.084  0.00  0.00     0.240 C 
ATOM     24  H18 <0> d          -0.286   0.221   0.010  0.00  0.00     0.279 HD
ENDBRANCH   1  16
TORSDOF 3
