REMARK  3 active torsions:
REMARK  status: ('A' for Active; 'I' for Inactive)
REMARK    1  A    between atoms: C3_3  and  C5_6 
REMARK    2  A    between atoms: C6_7  and  C7_8 
REMARK    3  A    between atoms: N2_15  and  C12_18 
ROOT
ATOM      1  C7  <0> d          -1.383   6.826   1.302  0.00  0.00     0.023 C 
ATOM      2  C8  <0> d          -0.954   8.046   0.776  0.00  0.00     0.101 A 
ATOM      3  C9  <0> d           0.328   8.167   0.063  0.00  0.00     0.265 A 
ATOM      4  O2  <0> d           1.052   7.200  -0.087  0.00  0.00    -0.267 OA
ATOM      5  N1  <0> d           0.676   9.375  -0.424  0.00  0.00    -0.274 N 
ATOM      6  C10 <0> d          -0.110  10.449  -0.260  0.00  0.00     0.337 A 
ATOM      7  O3  <0> d           0.263  11.511  -0.718  0.00  0.00    -0.246 OA
ATOM      8  N2  <0> d          -1.286  10.412   0.382  0.00  0.00    -0.229 N 
ATOM      9  C11 <0> d          -1.762   9.268   0.915  0.00  0.00     0.272 A 
ATOM     10  O4  <0> d          -2.831   9.247   1.497  0.00  0.00    -0.266 OA
ATOM     11  H7  <0> d           1.516   9.471  -0.900  0.00  0.00     0.173 HD
ENDROOT
BRANCH   1  12
ATOM     12  C6  <0> d          -0.550   5.712   1.243  0.00  0.00     0.004 C 
ATOM     13  C5  <0> d          -1.017   4.480   1.651  0.00  0.00     0.037 C 
BRANCH  13  14
ATOM     14  C3  <0> d          -0.175   3.353   1.591  0.00  0.00     0.074 A 
ATOM     15  C2  <0> d          -0.511   2.061   1.961  0.00  0.00     0.039 A 
ATOM     16  C1  <0> d           0.625   1.275   1.738  0.00  0.00     0.027 A 
ATOM     17  C4  <0> d           1.588   2.090   1.245  0.00  0.00     0.142 A 
ATOM     18  O1  <0> d           1.104   3.336   1.159  0.00  0.00    -0.323 OA
ENDBRANCH  13  14
ENDBRANCH   1  12
BRANCH   8  19
ATOM     19  C12 <0> d          -2.038  11.589   0.503  0.00  0.00     0.047 A 
ATOM     20  C17 <0> d          -1.813  12.451   1.568  0.00  0.00     0.033 A 
ATOM     21  C16 <0> d          -2.554  13.611   1.685  0.00  0.00     0.044 A 
ATOM     22  C15 <0> d          -3.522  13.913   0.742  0.00  0.00     0.116 A 
ATOM     23  C14 <0> d          -3.748  13.054  -0.320  0.00  0.00     0.044 A 
ATOM     24  F1  <0> d          -4.247  15.047   0.859  0.00  0.00    -0.206 F 
ATOM     25  C13 <0> d          -3.005  11.897  -0.444  0.00  0.00     0.033 A 
ENDBRANCH   8  19
TORSDOF 3
