REMARK  6 active torsions:
REMARK  status: ('A' for Active; 'I' for Inactive)
REMARK    1  A    between atoms: C2_3  and  C8_15 
REMARK    2  A    between atoms: C3_4  and  S1_7 
REMARK    3  A    between atoms: S1_7  and  N2_10 
REMARK    4  A    between atoms: N2_10  and  C5_11 
REMARK    5  A    between atoms: C5_11  and  C6_12 
REMARK    6  A    between atoms: C6_12  and  O4_13 
ROOT
ATOM      1  C1  <0> d           0.316   1.320   0.329  0.00  0.00     0.144 C 
ATOM      2  N1  <0> d           0.214  -0.133   0.136  0.00  0.00    -0.190 NA
ATOM      3  C2  <0> d           0.653  -0.520  -1.226  0.00  0.00     0.148 C 
ATOM      4  C3  <0> d           1.353  -1.884  -1.049  0.00  0.00     0.179 C 
ATOM      5  C4  <0> d           1.268  -2.165   0.468  0.00  0.00     0.217 C 
ATOM      6  O1  <0> d           1.115  -0.854   1.058  0.00  0.00    -0.302 OA
ENDROOT
BRANCH   4   7
ATOM      7  S1  <0> d           0.480  -3.170  -1.984  0.00  0.00     0.234 S 
ATOM      8  O2  <0> d          -0.840  -3.328  -1.485  0.00  0.00    -0.205 OA
ATOM      9  O3  <0> d           0.713  -3.005  -3.377  0.00  0.00    -0.205 OA
BRANCH   7  10
ATOM     10  N2  <0> d           1.253  -4.580  -1.591  0.00  0.00    -0.317 N 
ATOM     11  H8  <0> d           1.738  -5.074  -2.271  0.00  0.00     0.172 HD
BRANCH  10  12
ATOM     12  C5  <0> d           1.205  -5.083  -0.216  0.00  0.00     0.158 C 
BRANCH  12  13
ATOM     13  C6  <0> d           1.655  -6.545  -0.191  0.00  0.00     0.187 C 
BRANCH  13  14
ATOM     14  O4  <0> d           3.029  -6.626  -0.576  0.00  0.00    -0.394 OA
ATOM     15  C7  <0> d           3.552  -7.956  -0.585  0.00  0.00     0.201 C 
ENDBRANCH  13  14
ENDBRANCH  12  13
ENDBRANCH  10  12
ENDBRANCH   7  10
ENDBRANCH   4   7
BRANCH   3  16
ATOM     16  C8  <0> d           1.619   0.499  -1.773  0.00  0.00     0.004 A 
ATOM     17  S2  <0> d           3.120   1.132  -1.043  0.00  0.00    -0.105 SA
ATOM     18  C11 <0> d           3.586   2.251  -2.354  0.00  0.00     0.050 A 
ATOM     19  C10 <0> d           2.578   2.075  -3.243  0.00  0.00     0.008 A 
ATOM     20  C9  <0> d           1.570   1.178  -2.946  0.00  0.00     0.017 A 
ENDBRANCH   3  16
TORSDOF 6
