REMARK  6 active torsions:
REMARK  status: ('A' for Active; 'I' for Inactive)
REMARK    1  A    between atoms: C4_4  and  N2_20 
REMARK    2  A    between atoms: C5_5  and  C7_7 
REMARK       I    between atoms: C7_7  and  N1_9 
REMARK    3  A    between atoms: N1_9  and  C8_10 
REMARK    4  A    between atoms: C12_14  and  C14_16 
REMARK       I    between atoms: N2_20  and  C15_21 
REMARK    5  A    between atoms: C15_21  and  C16_23 
REMARK    6  A    between atoms: C19_26  and  N3_29 
ROOT
ATOM      1  C1  <0> d          -0.490   1.431  -0.137  0.00  0.00     0.001 A 
ATOM      2  C2  <0> d           0.698   2.051  -0.490  0.00  0.00     0.002 A 
ATOM      3  C3  <0> d           1.853   1.312  -0.642  0.00  0.00     0.030 A 
ATOM      4  C4  <0> d           1.832  -0.062  -0.441  0.00  0.00     0.050 A 
ATOM      5  C5  <0> d           0.632  -0.693  -0.083  0.00  0.00     0.059 A 
ATOM      6  C6  <0> d          -0.530   0.069   0.067  0.00  0.00     0.019 A 
ENDROOT
BRANCH   5   7
ATOM      7  C7  <0> d           0.596  -2.151   0.133  0.00  0.00     0.258 C 
ATOM      8  O1  <0> d           1.627  -2.795   0.109  0.00  0.00    -0.267 OA
ATOM      9  N1  <0> d          -0.580  -2.770   0.358  0.00  0.00    -0.323 N 
ATOM     10  H5  <0> d          -1.409  -2.271   0.304  0.00  0.00     0.169 HD
BRANCH   9  11
ATOM     11  C8  <0> d          -0.604  -4.133   0.670  0.00  0.00     0.035 A 
ATOM     12  C13 <0> d           0.432  -4.698   1.403  0.00  0.00     0.045 A 
ATOM     13  C12 <0> d           0.403  -6.044   1.714  0.00  0.00     0.050 A 
ATOM     14  C11 <0> d          -0.651  -6.830   1.287  0.00  0.00     0.016 A 
ATOM     15  C10 <0> d          -1.682  -6.272   0.553  0.00  0.00     0.003 A 
ATOM     16  C9  <0> d          -1.661  -4.927   0.244  0.00  0.00     0.029 A 
BRANCH  13  17
ATOM     17  C14 <0> d           1.524  -6.656   2.514  0.00  0.00     0.417 C 
ATOM     18  F1  <0> d           1.276  -8.021   2.695  0.00  0.00    -0.166 F 
ATOM     19  F2  <0> d           2.732  -6.489   1.828  0.00  0.00    -0.166 F 
ATOM     20  F3  <0> d           1.604  -6.027   3.761  0.00  0.00    -0.166 F 
ENDBRANCH  13  17
ENDBRANCH   9  11
ENDBRANCH   5   7
BRANCH   4  21
ATOM     21  N2  <0> d           2.997  -0.809  -0.595  0.00  0.00    -0.322 N 
ATOM     22  C15 <0> d           4.198  -0.234  -0.388  0.00  0.00     0.256 C 
ATOM     23  O2  <0> d           4.263   0.906   0.026  0.00  0.00    -0.267 OA
ATOM     24  H10 <0> d           2.943  -1.743  -0.850  0.00  0.00     0.169 HD
BRANCH  22  25
ATOM     25  C16 <0> d           5.437  -0.992  -0.666  0.00  0.00     0.032 A 
ATOM     26  C21 <0> d           6.683  -0.400  -0.453  0.00  0.00     0.019 A 
ATOM     27  C20 <0> d           7.835  -1.114  -0.709  0.00  0.00     0.037 A 
ATOM     28  C19 <0> d           7.758  -2.411  -1.185  0.00  0.00     0.102 A 
ATOM     29  C18 <0> d           6.526  -3.001  -1.404  0.00  0.00     0.037 A 
ATOM     30  C17 <0> d           5.366  -2.300  -1.147  0.00  0.00     0.019 A 
BRANCH  28  31
ATOM     31  N3  <0> d           8.998  -3.169  -1.463  0.00  0.00    -0.116 N 
ATOM     32  O3  <0> d           8.933  -4.303  -1.879  0.00  0.00    -0.532 OA
ATOM     33  O4  <0> d          10.076  -2.656  -1.273  0.00  0.00    -0.532 OA
ENDBRANCH  28  31
ENDBRANCH  22  25
ENDBRANCH   4  21
TORSDOF 6
