REMARK  4 active torsions:
REMARK  status: ('A' for Active; 'I' for Inactive)
REMARK    1  A    between atoms: C3_5  and  N3_7 
REMARK       I    between atoms: N3_7  and  C4_8 
REMARK    2  A    between atoms: C4_8  and  C5_10 
REMARK    3  A    between atoms: C5_10  and  N4_12 
REMARK    4  A    between atoms: N4_12  and  S2_13 
ROOT
ATOM      1  N3  <0> d           0.060  -3.893   0.865  0.00  0.00    -0.302 N 
ATOM      2  C4  <0> d           0.071  -4.889  -0.043  0.00  0.00     0.246 C 
ATOM      3  O1  <0> d           0.063  -4.630  -1.227  0.00  0.00    -0.271 OA
ATOM      4  H5  <0> d           0.067  -4.100   1.813  0.00  0.00     0.171 HD
ENDROOT
BRANCH   2   5
ATOM      5  C5  <0> d           0.093  -6.325   0.415  0.00  0.00     0.181 C 
ATOM      6  C6  <0> d          -1.149  -6.610   1.261  0.00  0.00     0.043 C 
BRANCH   5   7
ATOM      7  N4  <0> d           0.101  -7.209  -0.753  0.00  0.00    -0.306 N 
ATOM      8  H9  <0> d          -0.387  -6.960  -1.554  0.00  0.00     0.173 HD
BRANCH   7   9
ATOM      9  S2  <0> d           0.945  -8.634  -0.707  0.00  0.00     0.223 S 
ATOM     10  O2  <0> d           0.754  -9.210  -1.992  0.00  0.00    -0.206 OA
ATOM     11  O3  <0> d           2.244  -8.272  -0.261  0.00  0.00    -0.206 OA
ATOM     12  C7  <0> d           0.106  -9.631   0.555  0.00  0.00     0.185 C 
ENDBRANCH   7   9
ENDBRANCH   5   7
ENDBRANCH   2   5
BRANCH   1  13
ATOM     13  C3  <0> d           0.040  -2.568   0.443  0.00  0.00     0.196 A 
ATOM     14  N2  <0> d           0.028  -2.086  -0.784  0.00  0.00    -0.123 NA
ATOM     15  N1  <0> d           0.010  -0.844  -1.014  0.00  0.00    -0.145 NA
ATOM     16  C2  <0> d           0.002  -0.004   0.002  0.00  0.00     0.097 A 
ATOM     17  C1  <0> d          -0.018   1.503   0.010  0.00  0.00     0.081 C 
ATOM     18  S1  <0> d           0.031  -1.158   1.367  0.00  0.00    -0.034 SA
ENDBRANCH   1  13
TORSDOF 4
