REMARK  2 active torsions:
REMARK  status: ('A' for Active; 'I' for Inactive)
REMARK    1  A    between atoms: C2_2  and  C8_14 
REMARK    2  A    between atoms: C8_14  and  C9_15 
ROOT
ATOM      1  C1  <0> d          -0.017   1.382   0.010  0.00  0.00     0.041 A 
ATOM      2  C2  <0> d           1.172   2.086   0.002  0.00  0.00    -0.021 A 
ATOM      3  C3  <0> d           2.382   1.413  -0.013  0.00  0.00     0.020 A 
ATOM      4  C4  <0> d           2.410   0.031  -0.021  0.00  0.00     0.051 A 
ATOM      5  C5  <0> d           1.222  -0.683  -0.013  0.00  0.00     0.064 A 
ATOM      6  C6  <0> d           0.002  -0.004   0.002  0.00  0.00     0.064 A 
ATOM      7  N1  <0> d          -0.998  -0.974   0.006  0.00  0.00    -0.306 N 
ATOM      8  H1  <0> d          -1.953  -0.804   0.016  0.00  0.00     0.170 HD
ATOM      9  C7  <0> d          -0.413  -2.186  -0.006  0.00  0.00     0.325 A 
ATOM     10  O1  <0> d          -1.005  -3.250  -0.005  0.00  0.00    -0.247 OA
ATOM     11  N2  <0> d           0.925  -2.044  -0.018  0.00  0.00    -0.306 N 
ATOM     12  H2  <0> d           1.573  -2.767  -0.028  0.00  0.00     0.170 HD
ATOM     13 Br1  <0> d           4.002   2.388  -0.024  0.00  0.00    -0.050 Br
ENDROOT
BRANCH   2  14
ATOM     14  C8  <0> d           1.151   3.593   0.010  0.00  0.00     0.121 C 
ATOM     15 Br2  <0> d          -0.544   4.229  -0.754  0.00  0.00    -0.083 Br
BRANCH  14  16
ATOM     16  C9  <0> d           1.284   4.097   1.448  0.00  0.00     0.140 C 
ATOM     17  O2  <0> d           0.225   3.568   2.262  0.00  0.00    -0.384 OA
ATOM     18  C12 <0> d          -0.199   4.553   3.213  0.00  0.00     0.168 C 
ATOM     19  C11 <0> d           0.632   5.831   2.964  0.00  0.00     0.029 C 
ATOM     20  C10 <0> d           1.104   5.636   1.497  0.00  0.00     0.035 C 
ENDBRANCH  14  16
ENDBRANCH   2  14
TORSDOF 2
