REMARK  5 active torsions:
REMARK  status: ('A' for Active; 'I' for Inactive)
REMARK    1  A    between atoms: C3_3  and  S2_8 
REMARK    2  A    between atoms: S2_8  and  N2_11 
REMARK    3  A    between atoms: N2_11  and  C6_12 
REMARK    4  A    between atoms: C6_12  and  C7_13 
REMARK    5  A    between atoms: C10_16  and  N3_19 
ROOT
ATOM      1  C7  <0> d          -2.615   4.562  -4.637  0.00  0.00    -0.040 A 
ATOM      2  C8  <0> d          -2.161   5.431  -3.661  0.00  0.00     0.010 A 
ATOM      3  C9  <0> d          -1.561   4.936  -2.520  0.00  0.00     0.024 A 
ATOM      4  C10 <0> d          -1.413   3.565  -2.353  0.00  0.00     0.010 A 
ATOM      5  C11 <0> d          -1.865   2.696  -3.338  0.00  0.00     0.024 A 
ATOM      6  C12 <0> d          -2.469   3.197  -4.475  0.00  0.00     0.010 A 
ENDROOT
BRANCH   1   7
ATOM      7  C6  <0> d          -3.270   5.106  -5.881  0.00  0.00     0.170 C 
BRANCH   7   8
ATOM      8  N2  <0> d          -2.251   5.339  -6.907  0.00  0.00    -0.311 N 
ATOM      9  H7  <0> d          -1.312   5.355  -6.664  0.00  0.00     0.172 HD
BRANCH   8  10
ATOM     10  S2  <0> d          -2.702   5.577  -8.483  0.00  0.00     0.267 S 
ATOM     11  O1  <0> d          -1.506   5.800  -9.219  0.00  0.00    -0.200 OA
ATOM     12  O2  <0> d          -3.612   4.535  -8.806  0.00  0.00    -0.200 OA
BRANCH  10  13
ATOM     13  C3  <0> d          -3.617   7.081  -8.542  0.00  0.00     0.146 A 
ATOM     14  C2  <0> d          -4.192   7.706  -9.601  0.00  0.00     0.062 A 
ATOM     15  C1  <0> d          -4.101   7.118 -10.986  0.00  0.00     0.072 C 
ATOM     16  N1  <0> d          -4.835   8.835  -9.388  0.00  0.00    -0.249 NA
ATOM     17  C4  <0> d          -4.916   9.361  -8.188  0.00  0.00     0.072 A 
ATOM     18  S1  <0> d          -4.038   8.213  -7.225  0.00  0.00    -0.060 SA
ATOM     19  C5  <0> d          -5.596  10.636  -7.757  0.00  0.00     0.079 C 
ENDBRANCH  10  13
ENDBRANCH   8  10
ENDBRANCH   7   8
ENDBRANCH   1   7
BRANCH   4  20
ATOM     20  N3  <0> d          -0.806   3.062  -1.200  0.00  0.00    -0.280 NA
ATOM     21  C16 <0> d          -1.495   3.536   0.008  0.00  0.00     0.123 C 
ATOM     22  C15 <0> d          -0.754   3.029   1.247  0.00  0.00     0.249 C 
ATOM     23  N4  <0> d          -0.728   1.551   1.215  0.00  0.00    -0.073 N 
ATOM     24  C14 <0> d          -0.013   1.086   0.008  0.00  0.00     0.249 C 
ATOM     25  C17 <0> d          -0.062   1.031   2.429  0.00  0.00     0.269 C 
ATOM     26  H25 <0> d          -1.692   1.200   1.187  0.00  0.00     0.279 HD
ATOM     27  C13 <0> d          -0.754   1.593  -1.231  0.00  0.00     0.123 C 
ENDBRANCH   4  20
TORSDOF 5
