REMARK  4 active torsions:
REMARK  status: ('A' for Active; 'I' for Inactive)
REMARK    1  A    between atoms: C3_3  and  C7_8 
REMARK    2  A    between atoms: C7_8  and  C8_9 
REMARK    3  A    between atoms: C9_11  and  C10_14 
REMARK    4  A    between atoms: C10_14  and  N3_21 
ROOT
ATOM      1  C8  <0> d           4.526   1.526   2.258  0.00  0.00     0.160 A 
ATOM      2  N1  <0> d           4.409   2.110   3.456  0.00  0.00    -0.206 NA
ATOM      3  C9  <0> d           4.337   3.404   3.318  0.00  0.00     0.209 A 
ATOM      4  O1  <0> d           4.406   3.691   2.012  0.00  0.00    -0.193 OA
ATOM      5  N2  <0> d           4.535   2.448   1.339  0.00  0.00    -0.111 NA
ENDROOT
BRANCH   3   6
ATOM      6  C10 <0> d           4.199   4.405   4.436  0.00  0.00     0.192 C 
ATOM      7  C16 <0> d           4.900   3.869   5.701  0.00  0.00     0.048 C 
ATOM      8  C15 <0> d           6.154   3.195   5.397  0.00  0.00     0.003 C 
ATOM      9  C14 <0> d           7.184   4.137   4.741  0.00  0.00     0.000 C 
ATOM     10  C13 <0> d           6.848   4.272   3.281  0.00  0.00     0.000 C 
ATOM     11  C12 <0> d           5.965   5.502   2.990  0.00  0.00     0.003 C 
ATOM     12  C11 <0> d           4.854   5.700   4.039  0.00  0.00     0.048 C 
BRANCH   6  13
ATOM     13  N3  <0> d           2.776   4.635   4.721  0.00  0.00    -0.063 N 
ATOM     14  H19 <0> d           2.343   3.765   4.994  0.00  0.00     0.275 HD
ATOM     15  H20 <0> d           2.686   5.305   5.469  0.00  0.00     0.275 HD
ATOM     16  H21 <0> d           2.321   4.991   3.894  0.00  0.00     0.275 HD
ENDBRANCH   6  13
ENDBRANCH   3   6
BRANCH   1  17
ATOM     17  C7  <0> d           4.635   0.043   2.013  0.00  0.00     0.121 C 
BRANCH  17  18
ATOM     18  C3  <0> d           6.086  -0.364   2.033  0.00  0.00    -0.050 A 
ATOM     19  C2  <0> d           6.679  -0.750   3.221  0.00  0.00     0.007 A 
ATOM     20  C1  <0> d           8.010  -1.124   3.240  0.00  0.00     0.002 A 
ATOM     21  C6  <0> d           8.749  -1.111   2.071  0.00  0.00     0.019 A 
ATOM     22  C5  <0> d           8.155  -0.724   0.883  0.00  0.00     0.011 A 
ATOM     23  C4  <0> d           6.824  -0.351   0.864  0.00  0.00     0.026 A 
ATOM     24 Br1  <0> d           9.165  -0.707  -0.716  0.00  0.00    -0.051 Br
ENDBRANCH  17  18
ENDBRANCH   1  17
TORSDOF 4
