REMARK  5 active torsions:
REMARK  status: ('A' for Active; 'I' for Inactive)
REMARK    1  A    between atoms: C2_2  and  C3_3 
REMARK    2  A    between atoms: C3_3  and  N1_4 
REMARK    3  A    between atoms: C8_10  and  N3_15 
REMARK    4  A    between atoms: C9_11  and  C10_12 
REMARK       I    between atoms: C10_12  and  N2_14 
REMARK       I    between atoms: N3_15  and  C11_16 
REMARK    5  A    between atoms: C11_16  and  C12_18 
ROOT
ATOM      1  N1  <0> d           0.762  -1.980   1.234  0.00  0.00    -0.066 N 
ATOM      2  C4  <0> d           1.362  -2.467   2.482  0.00  0.00     0.240 C 
ATOM      3  C5  <0> d           1.113  -3.971   2.636  0.00  0.00     0.068 C 
ATOM      4  C6  <0> d           1.567  -4.654   1.354  0.00  0.00    -0.023 A 
ATOM      5  C7  <0> d           1.756  -3.929   0.228  0.00  0.00     0.018 A 
ATOM      6  S1  <0> d           2.272  -5.109  -0.981  0.00  0.00    -0.074 SA
ATOM      7  C8  <0> d           2.241  -6.507  -0.050  0.00  0.00     0.093 A 
ATOM      8  C9  <0> d           1.832  -6.071   1.202  0.00  0.00     0.073 A 
ATOM      9  C25 <0> d           1.555  -2.454   0.084  0.00  0.00     0.281 C 
ATOM     10  H26 <0> d          -0.182  -2.328   1.157  0.00  0.00     0.280 HD
ENDROOT
BRANCH   7  11
ATOM     11  N3  <0> d           2.552  -7.800  -0.442  0.00  0.00    -0.320 N 
ATOM     12  C11 <0> d           2.936  -8.045  -1.711  0.00  0.00     0.235 C 
ATOM     13  O2  <0> d           3.009  -7.135  -2.509  0.00  0.00    -0.272 OA
ATOM     14  H14 <0> d           2.494  -8.528   0.196  0.00  0.00     0.169 HD
BRANCH  12  15
ATOM     15  C12 <0> d           3.274  -9.450  -2.138  0.00  0.00     0.149 C 
ATOM     16  C20 <0> d           3.668  -9.448  -3.590  0.00  0.00    -0.007 A 
ATOM     17  C19 <0> d           5.001  -9.518  -3.962  0.00  0.00     0.083 A 
ATOM     18  C21 <0> d           2.684  -9.374  -4.560  0.00  0.00     0.011 A 
ATOM     19  O3  <0> d           5.982  -9.591  -3.031  0.00  0.00    -0.310 OA
ATOM     20  C24 <0> d           5.342  -9.515  -5.310  0.00  0.00     0.038 A 
ATOM     21  C18 <0> d           5.696 -10.014  -1.776  0.00  0.00     0.083 A 
ATOM     22  C13 <0> d           4.401  -9.971  -1.287  0.00  0.00    -0.007 A 
ATOM     23  C17 <0> d           6.721 -10.499  -0.972  0.00  0.00     0.038 A 
ATOM     24  C14 <0> d           4.134 -10.410  -0.002  0.00  0.00     0.011 A 
ATOM     25  C15 <0> d           5.155 -10.892   0.794  0.00  0.00     0.001 A 
ATOM     26  C16 <0> d           6.449 -10.936   0.309  0.00  0.00     0.003 A 
ATOM     27  C23 <0> d           4.356  -9.442  -6.273  0.00  0.00     0.003 A 
ATOM     28  C22 <0> d           3.027  -9.371  -5.899  0.00  0.00     0.001 A 
ENDBRANCH  12  15
ENDBRANCH   7  11
BRANCH   8  29
ATOM     29  C10 <0> d           1.675  -7.003   2.323  0.00  0.00     0.252 C 
ATOM     30  O1  <0> d           0.604  -7.549   2.515  0.00  0.00    -0.268 OA
ATOM     31  N2  <0> d           2.716  -7.256   3.141  0.00  0.00    -0.366 N 
ATOM     32  H12 <0> d           3.570  -6.821   2.988  0.00  0.00     0.159 HD
ATOM     33  H13 <0> d           2.612  -7.872   3.882  0.00  0.00     0.159 HD
ENDBRANCH   8  29
BRANCH   1  34
ATOM     34  C3  <0> d           0.742  -0.511   1.242  0.00  0.00     0.234 C 
BRANCH  34  35
ATOM     35  C2  <0> d           0.002  -0.004   0.002  0.00  0.00     0.023 C 
ATOM     36  C1  <0> d          -0.019   1.526   0.010  0.00  0.00     0.007 C 
ENDBRANCH  34  35
ENDBRANCH   1  34
TORSDOF 5
