REMARK  9 active torsions:
REMARK  status: ('A' for Active; 'I' for Inactive)
REMARK    1  A    between atoms: C2_2  and  C3_3 
REMARK    2  A    between atoms: C3_3  and  C4_4 
REMARK    3  A    between atoms: C3_3  and  N2_21 
REMARK    4  A    between atoms: C4_4  and  C5_5 
REMARK    5  A    between atoms: C4_4  and  N1_11 
REMARK    6  A    between atoms: N1_11  and  C9_12 
REMARK    7  A    between atoms: N1_11  and  C11_15 
REMARK    8  A    between atoms: C9_12  and  C10_13 
REMARK    9  A    between atoms: C10_13  and  O1_14 
ROOT
ATOM      1  C4  <0> d           1.048  -2.406  -1.081  0.00  0.00     0.261 C 
ENDROOT
BRANCH   1   2
ATOM      2  C3  <0> d           1.210  -1.167  -1.964  0.00  0.00     0.253 C 
BRANCH   2   3
ATOM      3  C2  <0> d           0.227  -0.086  -1.511  0.00  0.00     0.033 C 
ATOM      4  C1  <0> d           0.479   1.198  -2.305  0.00  0.00     0.007 C 
ENDBRANCH   2   3
BRANCH   2   5
ATOM      5  N2  <0> d           0.937  -1.523  -3.363  0.00  0.00     0.085 N 
ATOM      6  H26 <0> d           1.613  -2.188  -3.705  0.00  0.00     0.313 HD
ATOM      7  H27 <0> d          -0.003  -1.875  -3.469  0.00  0.00     0.313 HD
ENDBRANCH   2   5
ENDBRANCH   1   2
BRANCH   1   8
ATOM      8  C5  <0> d          -0.390  -2.856  -1.107  0.00  0.00     0.017 A 
ATOM      9  S1  <0> d          -1.801  -2.162  -0.262  0.00  0.00    -0.085 SA
ATOM     10  C8  <0> d          -3.039  -3.300  -0.863  0.00  0.00     0.051 A 
ATOM     11  C7  <0> d          -2.304  -4.125  -1.649  0.00  0.00     0.028 A 
ATOM     12 Br1  <0> d          -4.893  -3.347  -0.492  0.00  0.00    -0.043 Br
ATOM     13  C6  <0> d          -0.946  -3.897  -1.774  0.00  0.00     0.018 A 
ENDBRANCH   1   8
BRANCH   1  14
ATOM     14  N1  <0> d           1.433  -2.078   0.298  0.00  0.00    -0.054 N 
ATOM     15  H28 <0> d           0.745  -1.461   0.702  0.00  0.00     0.281 HD
BRANCH  14  16
ATOM     16  C9  <0> d           2.744  -1.415   0.296  0.00  0.00     0.262 C 
BRANCH  16  17
ATOM     17  C10 <0> d           2.550   0.100   0.206  0.00  0.00     0.192 C 
BRANCH  17  18
ATOM     18  O1  <0> d           1.835   0.557   1.356  0.00  0.00    -0.399 OA
ATOM     19  H14 <0> d           1.675   1.510   1.367  0.00  0.00     0.209 HD
ENDBRANCH  17  18
ENDBRANCH  16  17
ENDBRANCH  14  16
BRANCH  14  20
ATOM     20  C11 <0> d           1.510  -3.312   1.091  0.00  0.00     0.189 C 
ATOM     21  C16 <0> d           2.084  -2.995   2.473  0.00  0.00     0.033 C 
ATOM     22  C15 <0> d           2.164  -4.281   3.300  0.00  0.00     0.002 C 
ATOM     23  C14 <0> d           0.763  -4.876   3.453  0.00  0.00     0.000 C 
ATOM     24  C13 <0> d           0.189  -5.193   2.071  0.00  0.00     0.002 C 
ATOM     25  C12 <0> d           0.109  -3.908   1.245  0.00  0.00     0.033 C 
ENDBRANCH  14  20
ENDBRANCH   1  14
TORSDOF 9
