REMARK  4 active torsions:
REMARK  status: ('A' for Active; 'I' for Inactive)
REMARK    1  A    between atoms: C2_2  and  C10_14 
REMARK       I    between atoms: C10_14  and  N2_16 
REMARK    2  A    between atoms: N2_16  and  C11_17 
REMARK    3  A    between atoms: C11_17  and  C12_18 
REMARK    4  A    between atoms: C12_18  and  N3_19 
ROOT
ATOM      1  C1  <0> d          -0.019   1.526   0.010  0.00  0.00     0.068 C 
ATOM      2  C2  <0> d           0.002  -0.004   0.002  0.00  0.00     0.224 C 
ATOM      3  C3  <0> d           0.704  -0.490  -1.241  0.00  0.00     0.267 C 
ATOM      4  O1  <0> d           0.065  -0.745  -2.240  0.00  0.00    -0.269 OA
ATOM      5  N1  <0> d           2.045  -0.638  -1.238  0.00  0.00    -0.322 N 
ATOM      6  C4  <0> d           2.750  -0.460  -0.040  0.00  0.00     0.070 A 
ATOM      7  C5  <0> d           4.133  -0.380  -0.042  0.00  0.00     0.056 A 
ATOM      8  C6  <0> d           4.814  -0.191   1.148  0.00  0.00     0.036 A 
ATOM      9  C7  <0> d           4.116  -0.081   2.338  0.00  0.00     0.026 A 
ATOM     10  C8  <0> d           2.736  -0.165   2.346  0.00  0.00     0.041 A 
ATOM     11  C9  <0> d           2.049  -0.361   1.160  0.00  0.00     0.098 A 
ATOM     12  O2  <0> d           0.694  -0.477   1.160  0.00  0.00    -0.319 OA
ATOM     13 Cl1  <0> d           6.547  -0.092   1.148  0.00  0.00    -0.084 Cl
ATOM     14  H4  <0> d           2.516  -0.866  -2.055  0.00  0.00     0.169 HD
ENDROOT
BRANCH   2  15
ATOM     15  C10 <0> d          -1.412  -0.525   0.015  0.00  0.00     0.262 C 
ATOM     16  O3  <0> d          -1.961  -0.815  -1.027  0.00  0.00    -0.270 OA
ATOM     17  N2  <0> d          -2.067  -0.669   1.184  0.00  0.00    -0.356 N 
ATOM     18  H8  <0> d          -1.628  -0.437   2.017  0.00  0.00     0.162 HD
BRANCH  17  19
ATOM     19  C11 <0> d          -3.441  -1.175   1.196  0.00  0.00     0.150 C 
BRANCH  19  20
ATOM     20  C12 <0> d          -3.948  -1.241   2.639  0.00  0.00     0.253 C 
BRANCH  20  21
ATOM     21  N3  <0> d          -5.326  -1.748   2.651  0.00  0.00    -0.077 N 
ATOM     22  C13 <0> d          -5.771  -1.925   4.040  0.00  0.00     0.269 C 
ATOM     23  C14 <0> d          -6.208  -0.789   1.973  0.00  0.00     0.269 C 
ATOM     24  H19 <0> d          -5.362  -2.635   2.171  0.00  0.00     0.279 HD
ENDBRANCH  20  21
ENDBRANCH  19  20
ENDBRANCH  17  19
ENDBRANCH   2  15
TORSDOF 4
