REMARK  9 active torsions:
REMARK  status: ('A' for Active; 'I' for Inactive)
REMARK    1  A    between atoms: O1_2  and  C2_3 
REMARK    2  A    between atoms: C7_8  and  N1_9 
REMARK    3  A    between atoms: N2_12  and  C12_15 
REMARK    4  A    between atoms: C12_15  and  C13_16 
REMARK    5  A    between atoms: C13_16  and  C14_17 
REMARK       I    between atoms: C14_17  and  N3_19 
REMARK    6  A    between atoms: N3_19  and  C15_20 
REMARK    7  A    between atoms: C18_24  and  C19_25 
REMARK    8  A    between atoms: C19_25  and  O4_27 
REMARK    9  A    between atoms: C24_32  and  O5_33 
ROOT
ATOM      1  C14 <0> d          -0.223  -8.232   3.473  0.00  0.00     0.223 C 
ATOM      2  O2  <0> d          -0.489  -8.951   2.534  0.00  0.00    -0.273 OA
ATOM      3  N3  <0> d          -0.023  -8.765   4.695  0.00  0.00    -0.327 N 
ATOM      4  H21 <0> d           0.267  -8.201   5.428  0.00  0.00     0.168 HD
ENDROOT
BRANCH   1   5
ATOM      5  C13 <0> d          -0.116  -6.742   3.274  0.00  0.00     0.131 C 
BRANCH   5   6
ATOM      6  C12 <0> d          -0.386  -6.403   1.807  0.00  0.00     0.244 C 
BRANCH   6   7
ATOM      7  N2  <0> d          -0.281  -4.950   1.613  0.00  0.00    -0.068 N 
ATOM      8  C9  <0> d          -0.657  -4.614   0.234  0.00  0.00     0.254 C 
ATOM      9  C8  <0> d          -0.660  -3.091   0.063  0.00  0.00     0.150 C 
ATOM     10  N1  <0> d           0.653  -2.574   0.478  0.00  0.00    -0.375 N 
ATOM     11  C11 <0> d           1.186  -2.999   1.782  0.00  0.00     0.150 C 
ATOM     12  C10 <0> d           1.099  -4.522   1.874  0.00  0.00     0.254 C 
ATOM     13  H32 <0> d          -0.904  -4.482   2.254  0.00  0.00     0.280 HD
BRANCH  10  14
ATOM     14  C7  <0> d           1.378  -1.706  -0.347  0.00  0.00     0.064 A 
ATOM     15  C2  <0> d           1.207  -0.328  -0.234  0.00  0.00     0.094 A 
ATOM     16  C3  <0> d           1.931   0.526  -1.048  0.00  0.00     0.039 A 
ATOM     17  C4  <0> d           2.817   0.011  -1.977  0.00  0.00     0.003 A 
ATOM     18  C5  <0> d           2.984  -1.357  -2.094  0.00  0.00     0.002 A 
ATOM     19  C6  <0> d           2.265  -2.216  -1.284  0.00  0.00     0.032 A 
BRANCH  15  20
ATOM     20  O1  <0> d           0.335   0.177   0.680  0.00  0.00    -0.354 OA
ATOM     21  C1  <0> d           0.211   1.600   0.740  0.00  0.00     0.210 C 
ENDBRANCH  15  20
ENDBRANCH  10  14
ENDBRANCH   6   7
ENDBRANCH   5   6
ENDBRANCH   1   5
BRANCH   3  22
ATOM     22  C15 <0> d          -0.227 -10.097   4.899  0.00  0.00     0.060 A 
ATOM     23  C18 <0> d          -0.824 -11.089   3.925  0.00  0.00     0.233 A 
ATOM     24  N4  <0> d          -0.824 -12.383   4.614  0.00  0.00    -0.371 N 
ATOM     25  C17 <0> d          -0.321 -12.225   5.824  0.00  0.00     0.044 A 
ATOM     26  H31 <0> d          -1.146 -13.219   4.243  0.00  0.00     0.161 HD
ATOM     27  C16 <0> d           0.062 -10.818   6.039  0.00  0.00     0.049 A 
ATOM     28  C21 <0> d          -0.107 -13.144   6.880  0.00  0.00     0.030 A 
ATOM     29  C24 <0> d           0.642 -10.445   7.330  0.00  0.00     0.082 A 
ATOM     30  C23 <0> d           0.807 -11.410   8.284  0.00  0.00     0.038 A 
ATOM     31  C22 <0> d           0.435 -12.731   8.052  0.00  0.00     0.005 A 
BRANCH  23  32
ATOM     32  C19 <0> d          -2.232 -10.685   3.570  0.00  0.00     0.287 C 
ATOM     33  O3  <0> d          -3.160 -11.092   4.228  0.00  0.00    -0.262 OA
BRANCH  32  34
ATOM     34  O4  <0> d          -2.454  -9.875   2.524  0.00  0.00    -0.325 OA
ATOM     35  C20 <0> d          -3.814  -9.534   2.245  0.00  0.00     0.213 C 
ENDBRANCH  32  34
ENDBRANCH  23  32
BRANCH  29  36
ATOM     36  O5  <0> d           1.010  -9.164   7.576  0.00  0.00    -0.355 OA
ATOM     37  C25 <0> d           1.569  -8.884   8.861  0.00  0.00     0.210 C 
ENDBRANCH  29  36
ENDBRANCH   3  22
TORSDOF 9
