REMARK  5 active torsions:
REMARK  status: ('A' for Active; 'I' for Inactive)
REMARK    1  A    between atoms: C2_2  and  N1_3 
REMARK    2  A    between atoms: C5_7  and  C6_8 
REMARK    3  A    between atoms: C6_8  and  N3_9 
REMARK    4  A    between atoms: N4_13  and  S1_20 
REMARK    5  A    between atoms: C11_15  and  C13_17 
ROOT
ATOM      1  N3  <0> d          -1.899   1.145  -2.436  0.00  0.00    -0.064 N 
ATOM      2  C7  <0> d          -0.969   1.880  -1.537  0.00  0.00     0.243 C 
ATOM      3  C8  <0> d          -0.849   3.281  -2.175  0.00  0.00     0.052 C 
ATOM      4  C9  <0> d          -1.977   4.176  -1.634  0.00  0.00     0.142 C 
ATOM      5  N4  <0> d          -2.607   4.805  -2.807  0.00  0.00    -0.309 N 
ATOM      6  C10 <0> d          -2.488   3.843  -3.914  0.00  0.00     0.158 C 
ATOM      7  C11 <0> d          -1.171   3.060  -3.677  0.00  0.00     0.096 C 
ATOM      8  C12 <0> d          -1.454   1.546  -3.798  0.00  0.00     0.258 C 
ATOM      9  H22 <0> d          -2.853   1.432  -2.275  0.00  0.00     0.280 HD
ENDROOT
BRANCH   1  10
ATOM     10  C6  <0> d          -1.757  -0.305  -2.252  0.00  0.00     0.293 C 
BRANCH  10  11
ATOM     11  C5  <0> d          -2.338  -0.702  -0.920  0.00  0.00     0.056 A 
ATOM     12  N1  <0> d          -3.654  -0.969  -0.650  0.00  0.00    -0.343 N 
ATOM     13  C3  <0> d          -3.736  -1.289   0.660  0.00  0.00     0.209 A 
ATOM     14  N2  <0> d          -2.542  -1.220   1.183  0.00  0.00    -0.254 NA
ATOM     15  C4  <0> d          -1.664  -0.858   0.236  0.00  0.00     0.144 A 
BRANCH  12  16
ATOM     16  C2  <0> d          -4.764  -0.923  -1.605  0.00  0.00     0.125 C 
ATOM     17  C1  <0> d          -4.861  -2.262  -2.339  0.00  0.00     0.027 C 
ENDBRANCH  12  16
ENDBRANCH  10  11
ENDBRANCH   1  10
BRANCH   7  18
ATOM     18  C13 <0> d          -0.052   3.516  -4.577  0.00  0.00     0.185 C 
ATOM     19  O1  <0> d           0.132   2.964  -5.649  0.00  0.00    -0.647 OA
ATOM     20  O2  <0> d           0.669   4.437  -4.234  0.00  0.00    -0.647 OA
ENDBRANCH   7  18
BRANCH   5  21
ATOM     21  S1  <0> d          -3.313   6.301  -2.867  0.00  0.00     0.224 S 
ATOM     22  O3  <0> d          -4.265   6.211  -3.919  0.00  0.00    -0.206 OA
ATOM     23  O4  <0> d          -3.730   6.560  -1.533  0.00  0.00    -0.206 OA
ATOM     24  C14 <0> d          -1.973   7.431  -3.333  0.00  0.00     0.186 C 
ENDBRANCH   5  21
TORSDOF 5
