REMARK  7 active torsions:
REMARK  status: ('A' for Active; 'I' for Inactive)
REMARK    1  A    between atoms: N1_4  and  S1_9 
REMARK    2  A    between atoms: S1_9  and  C7_12 
REMARK    3  A    between atoms: C7_12  and  C8_13 
REMARK    4  A    between atoms: C8_13  and  N2_14 
REMARK       I    between atoms: N2_14  and  C9_15 
REMARK       I    between atoms: C9_15  and  N3_17 
REMARK    5  A    between atoms: N3_17  and  C10_18 
REMARK    6  A    between atoms: C10_18  and  C11_19 
REMARK    7  A    between atoms: C14_22  and  N5_25 
ROOT
ATOM      1  N2  <0> d           3.185   4.671  -2.835  0.00  0.00    -0.342 N 
ATOM      2  C9  <0> d           3.704   5.598  -3.666  0.00  0.00     0.316 C 
ATOM      3  O4  <0> d           4.326   5.251  -4.651  0.00  0.00    -0.247 OA
ATOM      4  N3  <0> d           3.532   6.909  -3.404  0.00  0.00    -0.339 N 
ATOM      5  H17 <0> d           2.688   4.948  -2.050  0.00  0.00     0.164 HD
ATOM      6  H18 <0> d           3.035   7.185  -2.618  0.00  0.00     0.164 HD
ENDROOT
BRANCH   1   7
ATOM      7  C8  <0> d           3.372   3.246  -3.120  0.00  0.00     0.141 C 
BRANCH   7   8
ATOM      8  C7  <0> d           2.690   2.415  -2.031  0.00  0.00     0.183 C 
BRANCH   8   9
ATOM      9  S1  <0> d           2.921   0.651  -2.383  0.00  0.00     0.230 S 
ATOM     10  O2  <0> d           4.289   0.297  -2.236  0.00  0.00    -0.206 OA
ATOM     11  O3  <0> d           2.200   0.287  -3.553  0.00  0.00    -0.206 OA
BRANCH   9  12
ATOM     12  N1  <0> d           2.147  -0.135  -1.148  0.00  0.00    -0.306 N 
ATOM     13  C3  <0> d           0.725  -0.499  -1.256  0.00  0.00     0.166 C 
ATOM     14  C2  <0> d           0.002  -0.004   0.002  0.00  0.00     0.136 C 
ATOM     15  C1  <0> d          -0.019   1.526   0.010  0.00  0.00     0.041 C 
ATOM     16  O1  <0> d           0.693  -0.479   1.160  0.00  0.00    -0.378 OA
ATOM     17  C5  <0> d           2.033   0.007   1.282  0.00  0.00     0.136 C 
ATOM     18  C4  <0> d           2.859  -0.488   0.090  0.00  0.00     0.166 C 
ATOM     19  C6  <0> d           2.648  -0.514   2.582  0.00  0.00     0.041 C 
ENDBRANCH   9  12
ENDBRANCH   8   9
ENDBRANCH   7   8
ENDBRANCH   1   7
BRANCH   4  20
ATOM     20  C10 <0> d           4.096   7.916  -4.306  0.00  0.00     0.164 C 
BRANCH  20  21
ATOM     21  C11 <0> d           3.764   9.293  -3.792  0.00  0.00    -0.025 A 
ATOM     22  C15 <0> d           4.619   9.935  -2.919  0.00  0.00     0.098 A 
ATOM     23  N4  <0> d           4.342  11.143  -2.466  0.00  0.00    -0.352 N 
ATOM     24  C14 <0> d           3.236  11.780  -2.820  0.00  0.00     0.102 A 
ATOM     25  H30 <0> d           4.962  11.574  -1.857  0.00  0.00     0.166 HD
ATOM     26  C13 <0> d           2.327  11.190  -3.692  0.00  0.00     0.049 A 
ATOM     27  C12 <0> d           2.593   9.926  -4.187  0.00  0.00     0.014 A 
BRANCH  24  28
ATOM     28  N5  <0> d           2.981  13.050  -2.315  0.00  0.00    -0.376 N 
ATOM     29  C16 <0> d           1.760  13.760  -2.702  0.00  0.00     0.150 C 
ATOM     30  C17 <0> d           3.934  13.678  -1.396  0.00  0.00     0.150 C 
ENDBRANCH  24  28
ENDBRANCH  20  21
ENDBRANCH   4  20
TORSDOF 7
