REMARK  7 active torsions:
REMARK  status: ('A' for Active; 'I' for Inactive)
REMARK    1  A    between atoms: C4_4  and  N5_13 
REMARK    2  A    between atoms: C5_6  and  N3_8 
REMARK    3  A    between atoms: N3_8  and  N4_9 
REMARK    4  A    between atoms: N4_9  and  C6_10 
REMARK    5  A    between atoms: N5_13  and  C7_14 
REMARK    6  A    between atoms: C7_14  and  C8_15 
REMARK    7  A    between atoms: C7_14  and  O1_19 
ROOT
ATOM      1  C1  <0> d           1.076   3.524   0.010  0.00  0.00     0.069 C 
ATOM      2  C2  <0> d           1.111   2.017   0.002  0.00  0.00     0.026 A 
ATOM      3  C3  <0> d           2.319   1.348  -0.013  0.00  0.00     0.076 A 
ATOM      4  C4  <0> d           2.307  -0.049  -0.021  0.00  0.00     0.146 A 
ATOM      5  N1  <0> d           1.139  -0.683  -0.013  0.00  0.00    -0.046 NA
ATOM      6  C5  <0> d           0.002  -0.004   0.002  0.00  0.00     0.721 A 
ATOM      7  N2  <0> d          -0.016   1.321   0.009  0.00  0.00    -0.193 N 
ATOM      8  H10 <0> d          -0.985   1.842   0.021  0.00  0.00     0.184 HD
ENDROOT
BRANCH   4   9
ATOM      9  N5  <0> d           3.494  -0.762  -0.037  0.00  0.00    -0.344 N 
ATOM     10  H8  <0> d           3.475  -1.862  -0.043  0.00  0.00     0.163 HD
BRANCH   9  11
ATOM     11  C7  <0> d           4.775  -0.052  -0.045  0.00  0.00     0.274 C 
BRANCH  11  12
ATOM     12  C8  <0> d           5.748  -0.765  -0.986  0.00  0.00     0.231 C 
ATOM     13 Cl1  <0> d           6.003  -2.457  -0.418  0.00  0.00    -0.079 Cl
ATOM     14 Cl2  <0> d           5.063  -0.788  -2.654  0.00  0.00    -0.079 Cl
ATOM     15 Cl3  <0> d           7.325   0.109  -0.997  0.00  0.00    -0.079 Cl
ENDBRANCH  11  12
BRANCH  11  16
ATOM     16  O1  <0> d           5.319  -0.033   1.276  0.00  0.00    -0.372 OA
ATOM     17  H9  <0> d           6.283   0.459   1.468  0.00  0.00     0.212 HD
ENDBRANCH  11  16
ENDBRANCH   9  11
ENDBRANCH   4   9
BRANCH   6  18
ATOM     18  N3  <0> d          -1.197  -0.695   0.010  0.00  0.00    -0.129 N 
ATOM     19  H6  <0> d          -1.198  -1.795   0.004  0.00  0.00     0.205 HD
BRANCH  18  20
ATOM     20  N4  <0> d          -2.410   0.006   0.025  0.00  0.00    -0.270 N 
ATOM     21  H7  <0> d          -2.409   1.106   0.031  0.00  0.00     0.189 HD
BRANCH  20  22
ATOM     22  C6  <0> d          -3.577  -0.667   0.033  0.00  0.00     0.164 C 
ATOM     23  S1  <0> d          -5.059   0.190   0.051  0.00  0.00    -0.050 SA
ATOM     24  S2  <0> d          -3.579  -2.429   0.023  0.00  0.00    -0.019 SA
ENDBRANCH  20  22
ENDBRANCH  18  20
ENDBRANCH   6  18
TORSDOF 7
