REMARK  4 active torsions:
REMARK  status: ('A' for Active; 'I' for Inactive)
REMARK    1  A    between atoms: N1_10  and  S1_11 
REMARK    2  A    between atoms: S1_11  and  C10_14 
REMARK    3  A    between atoms: C10_14  and  C11_15 
REMARK    4  A    between atoms: C11_15  and  N2_16 
ROOT
ATOM      1  C1  <0> d          -0.109   1.363   0.263  0.00  0.00     0.001 C 
ATOM      2  C2  <0> d           1.276   2.004   0.374  0.00  0.00     0.002 C 
ATOM      3  C3  <0> d           1.993   1.890  -0.973  0.00  0.00     0.026 C 
ATOM      4  C4  <0> d           2.139   0.422  -1.361  0.00  0.00     0.099 C 
ATOM      5  C5  <0> d           0.765  -0.249  -1.431  0.00  0.00     0.009 C 
ATOM      6  C6  <0> d           0.046  -0.115  -0.099  0.00  0.00     0.007 C 
ATOM      7  C7  <0> d           0.960  -1.737  -1.745  0.00  0.00     0.008 C 
ATOM      8  C8  <0> d           1.756  -2.392  -0.614  0.00  0.00     0.021 C 
ATOM      9  C9  <0> d           3.136  -1.736  -0.513  0.00  0.00     0.135 C 
ATOM     10  N1  <0> d           2.951  -0.286  -0.365  0.00  0.00    -0.306 N 
ENDROOT
BRANCH  10  11
ATOM     11  S1  <0> d           3.658   0.533   0.888  0.00  0.00     0.230 S 
ATOM     12  O1  <0> d           3.611   1.900   0.501  0.00  0.00    -0.206 OA
ATOM     13  O2  <0> d           2.971   0.085   2.048  0.00  0.00    -0.206 OA
BRANCH  11  14
ATOM     14  C10 <0> d           5.376  -0.050   0.916  0.00  0.00     0.190 C 
BRANCH  14  15
ATOM     15  C11 <0> d           6.169   0.749   1.952  0.00  0.00     0.246 C 
BRANCH  15  16
ATOM     16  N2  <0> d           7.560   0.277   1.974  0.00  0.00    -0.078 N 
ATOM     17  H21 <0> d           8.083   0.804   2.657  0.00  0.00     0.274 HD
ATOM     18  H22 <0> d           7.579  -0.702   2.218  0.00  0.00     0.274 HD
ATOM     19  H23 <0> d           7.973   0.405   1.062  0.00  0.00     0.274 HD
ENDBRANCH  15  16
ENDBRANCH  14  15
ENDBRANCH  11  14
ENDBRANCH  10  11
TORSDOF 4
