REMARK  6 active torsions:
REMARK  status: ('A' for Active; 'I' for Inactive)
REMARK    1  A    between atoms: O1_2  and  C2_3 
REMARK    2  A    between atoms: C2_3  and  C3_4 
REMARK    3  A    between atoms: C3_4  and  C4_5 
REMARK    4  A    between atoms: C5_7  and  C6_10 
REMARK    5  A    between atoms: N4_14  and  C11_16 
REMARK    6  A    between atoms: C11_16  and  C12_17 
ROOT
ATOM      1  C6  <0> d          -4.561  -5.088   1.208  0.00  0.00     0.052 C 
ATOM      2  C7  <0> d          -5.907  -5.681   0.785  0.00  0.00     0.011 C 
ATOM      3  C8  <0> d          -6.034  -7.096   1.357  0.00  0.00     0.031 C 
ATOM      4  C9  <0> d          -5.895  -7.040   2.880  0.00  0.00     0.273 C 
ATOM      5  N4  <0> d          -4.590  -6.466   3.233  0.00  0.00     0.093 N 
ATOM      6  C10 <0> d          -4.463  -5.090   2.735  0.00  0.00     0.280 C 
ENDROOT
BRANCH   1   7
ATOM      7  C5  <0> d          -4.451  -3.652   0.691  0.00  0.00     0.180 A 
ATOM      8  N1  <0> d          -3.165  -3.060   1.087  0.00  0.00    -0.360 N 
ATOM      9  C4  <0> d          -2.522  -2.758   0.011  0.00  0.00     0.090 A 
ATOM     10  H28 <0> d          -2.855  -2.921   1.995  0.00  0.00     0.162 HD
ATOM     11  N3  <0> d          -3.221  -3.069  -1.116  0.00  0.00    -0.309 N 
ATOM     12  N2  <0> d          -4.423  -3.632  -0.786  0.00  0.00    -0.216 NA
ATOM     13  H12 <0> d          -2.910  -2.916  -2.022  0.00  0.00     0.182 HD
ATOM     14  H11 <0> d          -4.505  -4.565  -1.162  0.00  0.00     0.149 HD
BRANCH   9  15
ATOM     15  C3  <0> d          -1.154  -2.126   0.002  0.00  0.00     0.103 C 
BRANCH  15  16
ATOM     16  C2  <0> d          -1.295  -0.603   0.011  0.00  0.00     0.174 C 
BRANCH  16  17
ATOM     17  O1  <0> d           0.002  -0.004   0.002  0.00  0.00    -0.396 OA
ATOM     18  C1  <0> d          -0.017   1.425   0.010  0.00  0.00     0.201 C 
ENDBRANCH  16  17
ENDBRANCH  15  16
ENDBRANCH   9  15
ENDBRANCH   1   7
BRANCH   5  19
ATOM     19  C11 <0> d          -4.364  -6.524   4.683  0.00  0.00     0.311 C 
BRANCH  19  20
ATOM     20  C12 <0> d          -4.251  -7.962   5.117  0.00  0.00    -0.030 C 
ATOM     21  C19 <0> d          -5.456  -8.731   5.415  0.00  0.00     0.007 C 
ATOM     22  C18 <0> d          -5.435  -9.888   6.085  0.00  0.00     0.005 C 
ATOM     23  C17 <0> d          -4.128 -10.395   6.615  0.00  0.00     0.163 C 
ATOM     24  C14 <0> d          -3.029  -9.871   5.704  0.00  0.00    -0.028 C 
ATOM     25  N5  <0> d          -3.965 -11.841   6.586  0.00  0.00    -0.288 NA
ATOM     26  C13 <0> d          -3.020  -8.545   5.236  0.00  0.00     0.018 C 
ATOM     27  C15 <0> d          -2.224 -10.924   5.487  0.00  0.00     0.028 C 
ATOM     28  C16 <0> d          -2.850 -12.098   5.962  0.00  0.00     0.112 C 
ENDBRANCH  19  20
ENDBRANCH   5  19
TORSDOF 6
