REMARK  10 active torsions:
REMARK  status: ('A' for Active; 'I' for Inactive)
REMARK    1  A    between atoms: O1_2  and  C2_3 
REMARK    2  A    between atoms: C2_3  and  C3_5 
REMARK    3  A    between atoms: C4_6  and  N1_10 
REMARK       I    between atoms: N1_10  and  C7_11 
REMARK    4  A    between atoms: C7_11  and  C8_13 
REMARK    5  A    between atoms: C8_13  and  N2_14 
REMARK    6  A    between atoms: N2_14  and  C9_15 
REMARK    7  A    between atoms: N2_14  and  C16_23 
REMARK    8  A    between atoms: C9_15  and  C10_16 
REMARK    9  A    between atoms: C14_20  and  O4_22 
REMARK   10  A    between atoms: C19_26  and  O5_29 
ROOT
ATOM      1  N2  <0> d          -7.201  -3.765   0.101  0.00  0.00    -0.055 N 
ATOM      2  H27 <0> d          -7.115  -4.404   0.877  0.00  0.00     0.281 HD
ENDROOT
BRANCH   1   3
ATOM      3  C8  <0> d          -6.233  -2.671   0.257  0.00  0.00     0.338 C 
BRANCH   3   4
ATOM      4  C7  <0> d          -6.337  -1.736  -0.920  0.00  0.00     0.248 C 
ATOM      5  N1  <0> d          -5.465  -0.717  -1.051  0.00  0.00    -0.324 N 
ATOM      6  H6  <0> d          -4.727  -0.627  -0.428  0.00  0.00     0.169 HD
ATOM      7  O3  <0> d          -7.206  -1.901  -1.750  0.00  0.00    -0.271 OA
BRANCH   5   8
ATOM      8  C4  <0> d          -5.624   0.209  -2.082  0.00  0.00     0.058 A 
ATOM      9  C3  <0> d          -4.841   1.361  -2.177  0.00  0.00     0.106 A 
ATOM     10  S1  <0> d          -5.494   2.126  -3.648  0.00  0.00    -0.094 SA
ATOM     11  C6  <0> d          -6.663   0.988  -4.049  0.00  0.00     0.053 A 
ATOM     12  C5  <0> d          -6.565   0.049  -3.079  0.00  0.00     0.038 A 
BRANCH   9  13
ATOM     13  C2  <0> d          -3.805   1.807  -1.324  0.00  0.00     0.302 C 
ATOM     14  O2  <0> d          -3.489   1.146  -0.352  0.00  0.00    -0.259 OA
BRANCH  13  15
ATOM     15  O1  <0> d          -3.165   2.966  -1.588  0.00  0.00    -0.322 OA
ATOM     16  C1  <0> d          -2.129   3.356  -0.685  0.00  0.00     0.213 C 
ENDBRANCH  13  15
ENDBRANCH   9  13
ENDBRANCH   5   8
ENDBRANCH   3   4
ENDBRANCH   1   3
BRANCH   1  17
ATOM     17  C9  <0> d          -6.935  -4.479  -1.155  0.00  0.00     0.274 C 
BRANCH  17  18
ATOM     18  C10 <0> d          -5.589  -5.153  -1.073  0.00  0.00    -0.030 A 
ATOM     19  C15 <0> d          -5.500  -6.468  -0.660  0.00  0.00     0.045 A 
ATOM     20  C14 <0> d          -4.262  -7.090  -0.590  0.00  0.00     0.066 A 
ATOM     21  C13 <0> d          -3.115  -6.386  -0.925  0.00  0.00     0.036 A 
ATOM     22  C12 <0> d          -3.209  -5.069  -1.332  0.00  0.00     0.003 A 
ATOM     23  C11 <0> d          -4.444  -4.453  -1.406  0.00  0.00     0.009 A 
BRANCH  20  24
ATOM     24  O4  <0> d          -4.172  -8.386  -0.190  0.00  0.00    -0.361 OA
ATOM     25  H15 <0> d          -4.064  -8.496   0.765  0.00  0.00     0.217 HD
ENDBRANCH  20  24
ENDBRANCH  17  18
ENDBRANCH   1  17
BRANCH   1  26
ATOM     26  C16 <0> d          -8.562  -3.213   0.071  0.00  0.00     0.189 C 
ATOM     27  C21 <0> d          -9.577  -4.359   0.055  0.00  0.00     0.036 C 
ATOM     28  C20 <0> d         -10.994  -3.784   0.024  0.00  0.00     0.034 C 
ATOM     29  C19 <0> d         -11.222  -2.919   1.265  0.00  0.00     0.118 C 
ATOM     30  C18 <0> d         -10.207  -1.773   1.280  0.00  0.00     0.034 C 
ATOM     31  C17 <0> d          -8.790  -2.348   1.312  0.00  0.00     0.036 C 
BRANCH  29  32
ATOM     32  O5  <0> d         -12.546  -2.382   1.236  0.00  0.00    -0.396 OA
ATOM     33  H26 <0> d         -13.242  -3.053   1.224  0.00  0.00     0.210 HD
ENDBRANCH  29  32
ENDBRANCH   1  26
TORSDOF 10
