REMARK  8 active torsions:
REMARK  status: ('A' for Active; 'I' for Inactive)
REMARK    1  A    between atoms: C2_2  and  C3_3 
REMARK    2  A    between atoms: C7_9  and  S2_14 
REMARK    3  A    between atoms: S2_14  and  C11_17 
REMARK    4  A    between atoms: C11_17  and  C12_18 
REMARK    5  A    between atoms: C12_18  and  C13_19 
REMARK       I    between atoms: C13_19  and  N2_21 
REMARK    6  A    between atoms: N2_21  and  C14_22 
REMARK    7  A    between atoms: C15_23  and  O6_31 
REMARK    8  A    between atoms: C17_25  and  O5_29 
ROOT
ATOM      1  S2  <0> d           4.457  -7.018  -3.228  0.00  0.00     0.176 S 
ATOM      2  O2  <0> d           4.862  -5.798  -2.624  0.00  0.00    -0.223 OA
ATOM      3  O3  <0> d           5.411  -8.023  -3.542  0.00  0.00    -0.223 OA
ENDROOT
BRANCH   1   4
ATOM      4  C7  <0> d           3.383  -7.769  -2.050  0.00  0.00     0.061 A 
ATOM      5  C6  <0> d           3.232  -9.141  -2.037  0.00  0.00     0.054 A 
ATOM      6  C5  <0> d           2.389  -9.745  -1.110  0.00  0.00     0.053 A 
ATOM      7  N1  <0> d           2.246 -11.130  -1.123  0.00  0.00    -0.325 N 
ATOM      8  C10 <0> d           1.708  -8.943  -0.195  0.00  0.00     0.028 A 
ATOM      9  C4  <0> d           1.282 -11.834  -0.539  0.00  0.00     0.236 C 
ATOM     10  H7  <0> d           2.920 -11.632  -1.608  0.00  0.00     0.169 HD
ATOM     11  C3  <0> d           0.094 -11.201   0.139  0.00  0.00     0.144 C 
ATOM     12  O1  <0> d           1.362 -13.044  -0.553  0.00  0.00    -0.272 OA
ATOM     13  S1  <0> d           0.650  -9.703   1.007  0.00  0.00    -0.113 SA
ATOM     14  C9  <0> d           1.859  -7.566  -0.215  0.00  0.00     0.022 A 
ATOM     15  C8  <0> d           2.699  -6.979  -1.144  0.00  0.00     0.025 A 
BRANCH  11  16
ATOM     16  C2  <0> d          -0.957 -10.829  -0.908  0.00  0.00     0.020 C 
ATOM     17  C1  <0> d          -2.207 -10.293  -0.207  0.00  0.00     0.006 C 
ENDBRANCH  11  16
ENDBRANCH   1   4
BRANCH   1  18
ATOM     18  C11 <0> d           3.406  -6.683  -4.669  0.00  0.00     0.155 C 
BRANCH  18  19
ATOM     19  C12 <0> d           4.242  -6.024  -5.768  0.00  0.00     0.118 C 
BRANCH  19  20
ATOM     20  C13 <0> d           3.369  -5.746  -6.964  0.00  0.00     0.223 C 
ATOM     21  O4  <0> d           2.194  -6.046  -6.941  0.00  0.00    -0.273 OA
ATOM     22  N2  <0> d           3.895  -5.164  -8.061  0.00  0.00    -0.323 N 
ATOM     23  H15 <0> d           4.816  -4.861  -8.055  0.00  0.00     0.169 HD
BRANCH  22  24
ATOM     24  C14 <0> d           3.108  -4.997  -9.212  0.00  0.00     0.090 A 
ATOM     25  C19 <0> d           3.089  -5.983 -10.189  0.00  0.00     0.066 A 
ATOM     26  C18 <0> d           2.311  -5.820 -11.320  0.00  0.00     0.063 A 
ATOM     27 Cl1  <0> d           4.038  -7.423  -9.988  0.00  0.00    -0.082 Cl
ATOM     28  C17 <0> d           1.556  -4.668 -11.485  0.00  0.00     0.072 A 
ATOM     29  C16 <0> d           1.576  -3.678 -10.514  0.00  0.00     0.076 A 
ATOM     30  C15 <0> d           2.351  -3.840  -9.377  0.00  0.00     0.099 A 
BRANCH  28  31
ATOM     31  O5  <0> d           0.795  -4.509 -12.601  0.00  0.00    -0.356 OA
ATOM     32  C20 <0> d           0.822  -5.567 -13.561  0.00  0.00     0.210 C 
ENDBRANCH  28  31
BRANCH  30  33
ATOM     33  O6  <0> d           2.371  -2.871  -8.423  0.00  0.00    -0.353 OA
ATOM     34  C21 <0> d           1.570  -1.712  -8.659  0.00  0.00     0.210 C 
ENDBRANCH  30  33
ENDBRANCH  22  24
ENDBRANCH  19  20
ENDBRANCH  18  19
ENDBRANCH   1  18
TORSDOF 8
