REMARK  3 active torsions:
REMARK  status: ('A' for Active; 'I' for Inactive)
REMARK    1  A    between atoms: O1_2  and  C2_3 
REMARK    2  A    between atoms: C3_4  and  N1_10 
REMARK       I    between atoms: N1_10  and  C8_11 
REMARK       I    between atoms: C8_11  and  N2_13 
REMARK    3  A    between atoms: C11_16  and  C14_19 
ROOT
ATOM      1  N1  <0> d          -1.499  -0.619  -2.252  0.00  0.00    -0.306 N 
ATOM      2  C8  <0> d          -2.189  -0.833  -3.390  0.00  0.00     0.323 C 
ATOM      3  O2  <0> d          -1.650  -1.373  -4.336  0.00  0.00    -0.247 OA
ATOM      4  N2  <0> d          -3.478  -0.449  -3.478  0.00  0.00    -0.330 N 
ATOM      5  C9  <0> d          -4.294  -0.769  -4.662  0.00  0.00     0.132 C 
ATOM      6  C10 <0> d          -5.452  -1.663  -4.210  0.00  0.00     0.059 C 
ATOM      7  C11 <0> d          -6.081  -1.113  -2.964  0.00  0.00    -0.046 C 
ATOM      8  C12 <0> d          -5.502  -0.254  -2.159  0.00  0.00     0.001 C 
ATOM      9  C13 <0> d          -4.128   0.301  -2.394  0.00  0.00     0.155 C 
ATOM     10  H8  <0> d          -1.955  -0.289  -1.463  0.00  0.00     0.171 HD
ENDROOT
BRANCH   1  11
ATOM     11  C3  <0> d          -0.121  -0.874  -2.211  0.00  0.00     0.071 A 
ATOM     12  C2  <0> d           0.698  -0.145  -1.351  0.00  0.00     0.116 A 
ATOM     13  C7  <0> d           2.060  -0.397  -1.318  0.00  0.00     0.069 A 
ATOM     14  C6  <0> d           2.602  -1.379  -2.129  0.00  0.00     0.027 A 
ATOM     15 Cl1  <0> d           3.086   0.513  -0.254  0.00  0.00    -0.081 Cl
ATOM     16  C5  <0> d           1.789  -2.102  -2.982  0.00  0.00     0.004 A 
ATOM     17  C4  <0> d           0.430  -1.852  -3.025  0.00  0.00     0.032 A 
BRANCH  12  18
ATOM     18  O1  <0> d           0.163   0.815  -0.550  0.00  0.00    -0.352 OA
ATOM     19  C1  <0> d           0.090   2.139  -1.084  0.00  0.00     0.210 C 
ENDBRANCH  12  18
ENDBRANCH   1  11
BRANCH   7  20
ATOM     20  C14 <0> d          -7.442  -1.569  -2.621  0.00  0.00    -0.001 A 
ATOM     21  C17 <0> d          -7.810  -2.526  -1.566  0.00  0.00     0.022 A 
ATOM     22  C16 <0> d          -9.211  -2.644  -1.615  0.00  0.00     0.138 A 
ATOM     23  C18 <0> d          -7.091  -3.258  -0.622  0.00  0.00     0.017 A 
ATOM     24  N3  <0> d          -9.654  -1.827  -2.629  0.00  0.00    -0.349 N 
ATOM     25  N4  <0> d          -9.835  -3.449  -0.764  0.00  0.00    -0.242 NA
ATOM     26  C15 <0> d          -8.600  -1.193  -3.222  0.00  0.00     0.102 A 
ATOM     27  H1  <0> d         -10.583  -1.718  -2.886  0.00  0.00     0.167 HD
ATOM     28  C20 <0> d          -9.175  -4.155   0.130  0.00  0.00     0.119 A 
ATOM     29  C19 <0> d          -7.795  -4.084   0.236  0.00  0.00     0.020 A 
ENDBRANCH   7  20
TORSDOF 3
