REMARK  7 active torsions:
REMARK  status: ('A' for Active; 'I' for Inactive)
REMARK    1  A    between atoms: C2_2  and  C3_3 
REMARK    2  A    between atoms: C2_2  and  S2_16 
REMARK       I    between atoms: C3_3  and  N1_5 
REMARK    3  A    between atoms: N1_5  and  C4_6 
REMARK    4  A    between atoms: C7_9  and  S1_12 
REMARK    5  A    between atoms: S1_12  and  N2_15 
REMARK    6  A    between atoms: S2_16  and  C10_17 
REMARK    7  A    between atoms: N4_21  and  C13_22 
ROOT
ATOM      1  C3  <0> d           2.410  -2.734  -0.137  0.00  0.00     0.236 C 
ATOM      2  O1  <0> d           3.452  -2.114  -0.144  0.00  0.00    -0.272 OA
ATOM      3  N1  <0> d           1.237  -2.079  -0.020  0.00  0.00    -0.326 N 
ATOM      4  H5  <0> d           0.409  -2.578   0.062  0.00  0.00     0.169 HD
ENDROOT
BRANCH   1   5
ATOM      5  C2  <0> d           2.425  -4.236  -0.258  0.00  0.00     0.143 C 
ATOM      6  C1  <0> d           2.257  -4.862   1.128  0.00  0.00     0.031 C 
BRANCH   5   7
ATOM      7  S2  <0> d           4.001  -4.768  -0.973  0.00  0.00    -0.077 SA
BRANCH   7   8
ATOM      8  C10 <0> d           3.695  -6.495  -1.139  0.00  0.00     0.173 A 
ATOM      9  N4  <0> d           4.567  -7.416  -1.639  0.00  0.00    -0.300 N 
ATOM     10  C12 <0> d           3.933  -8.638  -1.590  0.00  0.00     0.118 A 
ATOM     11  C11 <0> d           2.712  -8.425  -1.069  0.00  0.00     0.137 A 
ATOM     12  N3  <0> d           2.590  -7.115  -0.796  0.00  0.00    -0.235 NA
BRANCH   9  13
ATOM     13  C13 <0> d           5.863  -7.166  -2.113  0.00  0.00     0.044 A 
ATOM     14  C18 <0> d           6.082  -6.156  -3.038  0.00  0.00     0.072 A 
ATOM     15  C17 <0> d           7.362  -5.910  -3.501  0.00  0.00     0.118 A 
ATOM     16  C16 <0> d           8.422  -6.677  -3.049  0.00  0.00     0.042 A 
ATOM     17  F1  <0> d           7.578  -4.923  -4.399  0.00  0.00    -0.206 F 
ATOM     18  C15 <0> d           8.204  -7.688  -2.130  0.00  0.00     0.005 A 
ATOM     19  C14 <0> d           6.928  -7.934  -1.662  0.00  0.00     0.030 A 
ENDBRANCH   9  13
ENDBRANCH   7   8
ENDBRANCH   5   7
ENDBRANCH   1   5
BRANCH   3  20
ATOM     20  C4  <0> d           1.214  -0.680  -0.019  0.00  0.00     0.034 A 
ATOM     21  C9  <0> d           0.268  -0.001   0.737  0.00  0.00     0.031 A 
ATOM     22  C8  <0> d           0.248   1.380   0.736  0.00  0.00     0.027 A 
ATOM     23  C7  <0> d           1.168   2.086  -0.017  0.00  0.00     0.079 A 
ATOM     24  C6  <0> d           2.111   1.412  -0.771  0.00  0.00     0.027 A 
ATOM     25  C5  <0> d           2.137   0.031  -0.774  0.00  0.00     0.031 A 
BRANCH  23  26
ATOM     26  S1  <0> d           1.139   3.848  -0.015  0.00  0.00     0.256 S 
ATOM     27  O2  <0> d           0.510   4.242   1.197  0.00  0.00    -0.201 OA
ATOM     28  O3  <0> d           2.447   4.276  -0.370  0.00  0.00    -0.201 OA
BRANCH  26  29
ATOM     29  N2  <0> d           0.136   4.322  -1.245  0.00  0.00    -0.324 N 
ATOM     30  H10 <0> d          -0.360   5.152  -1.173  0.00  0.00     0.169 HD
ATOM     31  H11 <0> d           0.045   3.769  -2.037  0.00  0.00     0.169 HD
ENDBRANCH  26  29
ENDBRANCH  23  26
ENDBRANCH   3  20
TORSDOF 7
