REMARK  4 active torsions:
REMARK  status: ('A' for Active; 'I' for Inactive)
REMARK    1  A    between atoms: C2_2  and  C9_12 
REMARK    2  A    between atoms: C9_12  and  N1_13 
REMARK    3  A    between atoms: C13_17  and  C14_18 
REMARK    4  A    between atoms: C14_18  and  O3_19 
ROOT
ATOM      1  C1  <0> d          -0.476   1.602   0.114  0.00  0.00     0.049 A 
ATOM      2  C2  <0> d           0.801   2.131   0.093  0.00  0.00    -0.012 A 
ATOM      3  C3  <0> d           1.899   1.291   0.114  0.00  0.00     0.021 A 
ATOM      4  C4  <0> d           1.723  -0.081   0.153  0.00  0.00     0.059 A 
ATOM      5  C5  <0> d           0.445  -0.616   0.174  0.00  0.00     0.103 A 
ATOM      6  C6  <0> d          -0.659   0.228   0.156  0.00  0.00     0.102 A 
ATOM      7  O1  <0> d          -1.923  -0.277   0.183  0.00  0.00    -0.346 OA
ATOM      8  C7  <0> d          -2.070  -1.661  -0.151  0.00  0.00     0.202 C 
ATOM      9  C8  <0> d          -0.999  -2.456   0.608  0.00  0.00     0.202 C 
ATOM     10  O2  <0> d           0.287  -1.968   0.209  0.00  0.00    -0.346 OA
ATOM     11 Br1  <0> d           3.644   2.018   0.086  0.00  0.00    -0.050 Br
ENDROOT
BRANCH   2  12
ATOM     12  C9  <0> d           0.996   3.624   0.048  0.00  0.00     0.275 C 
BRANCH  12  13
ATOM     13  N1  <0> d           1.420   4.103   1.371  0.00  0.00    -0.061 N 
ATOM     14  C13 <0> d           1.722   5.544   1.303  0.00  0.00     0.212 C 
ATOM     15  C12 <0> d           0.788   6.254   2.306  0.00  0.00     0.037 C 
ATOM     16  C11 <0> d           0.409   5.120   3.293  0.00  0.00     0.030 C 
ATOM     17  C10 <0> d           0.331   3.895   2.348  0.00  0.00     0.236 C 
ATOM     18  H19 <0> d           2.242   3.598   1.668  0.00  0.00     0.280 HD
BRANCH  14  19
ATOM     19  C14 <0> d           1.459   6.066  -0.111  0.00  0.00     0.197 C 
BRANCH  19  20
ATOM     20  O3  <0> d           1.668   7.479  -0.144  0.00  0.00    -0.399 OA
ATOM     21  H18 <0> d           1.519   7.878  -1.012  0.00  0.00     0.209 HD
ENDBRANCH  19  20
ENDBRANCH  14  19
ENDBRANCH  12  13
ENDBRANCH   2  12
TORSDOF 4
