REMARK  6 active torsions:
REMARK  status: ('A' for Active; 'I' for Inactive)
REMARK    1  A    between atoms: C2_2  and  C3_3 
REMARK    2  A    between atoms: C3_3  and  N1_4 
REMARK       I    between atoms: N1_4  and  C4_5 
REMARK       I    between atoms: C4_5  and  N2_7 
REMARK    3  A    between atoms: N2_7  and  C5_8 
REMARK    4  A    between atoms: C12_17  and  C17_24 
REMARK    5  A    between atoms: C18_25  and  C19_26 
REMARK    6  A    between atoms: C22_29  and  O4_32 
ROOT
ATOM      1  C5  <0> d          -0.826   1.631  -1.196  0.00  0.00     0.106 C 
ATOM      2  C6  <0> d          -0.013   1.086   0.008  0.00  0.00     0.061 C 
ATOM      3  C7  <0> d          -0.797   1.614   1.226  0.00  0.00     0.182 C 
ATOM      4  C8  <0> d           0.164   2.075   2.285  0.00  0.00     0.245 C 
ATOM      5  O2  <0> d           1.355   1.945   2.099  0.00  0.00    -0.271 OA
ATOM      6  N3  <0> d          -0.260   2.620   3.420  0.00  0.00    -0.324 N 
ATOM      7  C9  <0> d          -1.572   2.795   3.816  0.00  0.00     0.050 A 
ATOM      8  C10 <0> d          -1.870   2.518   5.156  0.00  0.00     0.031 A 
ATOM      9  C11 <0> d          -3.141   2.685   5.647  0.00  0.00     0.013 A 
ATOM     10  C12 <0> d          -4.164   3.137   4.805  0.00  0.00    -0.035 A 
ATOM     11  C13 <0> d          -3.885   3.409   3.470  0.00  0.00     0.030 A 
ATOM     12  C14 <0> d          -2.589   3.234   2.967  0.00  0.00     0.059 A 
ATOM     13  C15 <0> d          -2.371   3.528   1.542  0.00  0.00     0.257 C 
ATOM     14  O3  <0> d          -2.945   4.479   1.048  0.00  0.00    -0.267 OA
ATOM     15  N4  <0> d          -1.567   2.788   0.768  0.00  0.00    -0.332 N 
ATOM     16  C16 <0> d          -1.289   3.009  -0.662  0.00  0.00     0.152 C 
ATOM     17  H12 <0> d           0.424   2.928   4.036  0.00  0.00     0.169 HD
ENDROOT
BRANCH  10  18
ATOM     18  C17 <0> d          -5.528   3.324   5.330  0.00  0.00     0.012 C 
ATOM     19  C18 <0> d          -5.793   3.060   6.620  0.00  0.00     0.012 C 
BRANCH  19  20
ATOM     20  C19 <0> d          -7.157   3.246   7.145  0.00  0.00    -0.036 A 
ATOM     21  C24 <0> d          -7.435   2.972   8.487  0.00  0.00     0.014 A 
ATOM     22  C23 <0> d          -8.713   3.148   8.974  0.00  0.00     0.037 A 
ATOM     23  C22 <0> d          -9.723   3.597   8.133  0.00  0.00     0.065 A 
ATOM     24  C21 <0> d          -9.451   3.870   6.798  0.00  0.00     0.037 A 
ATOM     25  C20 <0> d          -8.176   3.703   6.304  0.00  0.00     0.014 A 
BRANCH  23  26
ATOM     26  O4  <0> d         -10.981   3.769   8.617  0.00  0.00    -0.361 OA
ATOM     27  H24 <0> d         -11.149   4.654   8.968  0.00  0.00     0.217 HD
ENDBRANCH  23  26
ENDBRANCH  19  20
ENDBRANCH  10  18
BRANCH   1  28
ATOM     28  N2  <0> d           0.027   1.786  -2.378  0.00  0.00    -0.337 N 
ATOM     29  C4  <0> d          -0.517   1.750  -3.610  0.00  0.00     0.316 C 
ATOM     30  N1  <0> d           0.266   1.892  -4.697  0.00  0.00    -0.340 N 
ATOM     31  O1  <0> d          -1.716   1.589  -3.742  0.00  0.00    -0.247 OA
ATOM     32  H8  <0> d           1.222   2.021  -4.593  0.00  0.00     0.164 HD
ATOM     33  H9  <0> d           0.982   1.914  -2.273  0.00  0.00     0.164 HD
BRANCH  30  34
ATOM     34  C3  <0> d          -0.325   1.854  -6.037  0.00  0.00     0.150 C 
BRANCH  34  35
ATOM     35  C2  <0> d           0.758   2.035  -7.070  0.00  0.00    -0.018 C 
ATOM     36  C1  <0> d           0.911   1.148  -8.021  0.00  0.00     0.008 C 
ENDBRANCH  34  35
ENDBRANCH  30  34
ENDBRANCH   1  28
TORSDOF 6
