REMARK  6 active torsions:
REMARK  status: ('A' for Active; 'I' for Inactive)
REMARK    1  A    between atoms: S1_2  and  C2_5 
REMARK    2  A    between atoms: C2_5  and  C3_6 
REMARK    3  A    between atoms: C3_6  and  C4_7 
REMARK    4  A    between atoms: C4_7  and  N1_8 
REMARK       I    between atoms: N1_8  and  C5_9 
REMARK    5  A    between atoms: C5_9  and  C6_11 
REMARK    6  A    between atoms: C9_14  and  C11_19 
ROOT
ATOM      1  C6  <0> d           2.645  -5.644  -4.348  0.00  0.00     0.100 A 
ATOM      2  C7  <0> d           2.110  -6.504  -3.382  0.00  0.00     0.025 A 
ATOM      3  C8  <0> d           2.314  -7.867  -3.504  0.00  0.00     0.032 A 
ATOM      4  C9  <0> d           3.044  -8.364  -4.577  0.00  0.00     0.052 A 
ATOM      5  N2  <0> d           3.566  -7.519  -5.518  0.00  0.00    -0.322 N 
ATOM      6  H1  <0> d           4.073  -7.883  -6.260  0.00  0.00     0.169 HD
ATOM      7  C10 <0> d           3.378  -6.188  -5.431  0.00  0.00     0.261 A 
ATOM      8  O4  <0> d           3.846  -5.451  -6.281  0.00  0.00    -0.267 OA
ENDROOT
BRANCH   1   9
ATOM      9  C5  <0> d           2.444  -4.194  -4.244  0.00  0.00     0.257 C 
ATOM     10  N1  <0> d           1.834  -3.675  -3.160  0.00  0.00    -0.357 N 
ATOM     11  H11 <0> d           1.463  -4.263  -2.484  0.00  0.00     0.162 HD
ATOM     12  O3  <0> d           2.827  -3.461  -5.136  0.00  0.00    -0.267 OA
BRANCH  10  13
ATOM     13  C4  <0> d           1.733  -2.222  -3.002  0.00  0.00     0.123 C 
BRANCH  13  14
ATOM     14  C3  <0> d           1.002  -1.900  -1.697  0.00  0.00     0.034 C 
BRANCH  14  15
ATOM     15  C2  <0> d           0.896  -0.383  -1.532  0.00  0.00     0.141 C 
BRANCH  15  16
ATOM     16  S1  <0> d           0.029  -0.002   0.015  0.00  0.00     0.140 S 
ATOM     17  C1  <0> d           0.006   1.812   0.025  0.00  0.00     0.161 C 
ATOM     18  O1  <0> d           0.830  -0.447   1.101  0.00  0.00    -0.228 OA
ATOM     19  O2  <0> d          -1.309  -0.467  -0.093  0.00  0.00    -0.228 OA
ENDBRANCH  15  16
ENDBRANCH  14  15
ENDBRANCH  13  14
ENDBRANCH  10  13
ENDBRANCH   1   9
BRANCH   4  20
ATOM     20  C11 <0> d           3.258  -9.807  -4.701  0.00  0.00     0.031 A 
ATOM     21  S2  <0> d           2.700 -11.122  -3.634  0.00  0.00    -0.100 SA
ATOM     22  C14 <0> d           3.347 -12.432  -4.464  0.00  0.00     0.050 A 
ATOM     23  C13 <0> d           3.980 -11.874  -5.526  0.00  0.00     0.008 A 
ATOM     24  C12 <0> d           3.952 -10.508  -5.678  0.00  0.00     0.021 A 
ENDBRANCH   4  20
TORSDOF 6
