REMARK  5 active torsions:
REMARK  status: ('A' for Active; 'I' for Inactive)
REMARK    1  A    between atoms: C6_6  and  C8_8 
REMARK    2  A    between atoms: C6_6  and  N3_19 
REMARK    3  A    between atoms: C8_8  and  N1_9 
REMARK    4  A    between atoms: N1_9  and  S1_10 
REMARK    5  A    between atoms: S1_10  and  C9_13 
ROOT
ATOM      1  C8  <0> d           1.592  -2.530   2.294  0.00  0.00     0.171 C 
ENDROOT
BRANCH   1   2
ATOM      2  C6  <0> d           0.658  -1.957   1.227  0.00  0.00     0.143 C 
ATOM      3  C5  <0> d           1.060  -2.499  -0.146  0.00  0.00     0.041 C 
ATOM      4  C4  <0> d           0.126  -1.926  -1.214  0.00  0.00     0.003 C 
ATOM      5  C3  <0> d           0.231  -0.400  -1.218  0.00  0.00     0.004 C 
ATOM      6  C2  <0> d          -0.171   0.142   0.156  0.00  0.00    -0.016 C 
ATOM      7  C1  <0> d          -0.066   1.669   0.152  0.00  0.00     0.010 C 
ATOM      8  C7  <0> d           0.763  -0.431   1.223  0.00  0.00     0.045 C 
BRANCH   2   9
ATOM      9  N3  <0> d          -0.726  -2.352   1.523  0.00  0.00    -0.068 N 
ATOM     10  C12 <0> d          -0.823  -3.818   1.544  0.00  0.00     0.270 C 
ATOM     11  C13 <0> d          -1.117  -1.817   2.834  0.00  0.00     0.270 C 
ATOM     12  H23 <0> d          -1.340  -1.984   0.813  0.00  0.00     0.280 HD
ENDBRANCH   2   9
ENDBRANCH   1   2
BRANCH   1  13
ATOM     13  N1  <0> d           2.961  -2.072   2.042  0.00  0.00    -0.312 N 
ATOM     14  H15 <0> d           3.198  -1.708   1.176  0.00  0.00     0.172 HD
BRANCH  13  15
ATOM     15  S1  <0> d           4.102  -2.177   3.238  0.00  0.00     0.267 S 
ATOM     16  O1  <0> d           5.316  -1.686   2.685  0.00  0.00    -0.200 OA
ATOM     17  O2  <0> d           3.518  -1.620   4.407  0.00  0.00    -0.200 OA
BRANCH  15  18
ATOM     18  C9  <0> d           4.355  -3.889   3.568  0.00  0.00     0.140 A 
ATOM     19  S2  <0> d           3.527  -4.960   4.733  0.00  0.00    -0.043 SA
ATOM     20  C11 <0> d           4.371  -6.375   4.387  0.00  0.00     0.168 A 
ATOM     21  N2  <0> d           5.212  -6.000   3.453  0.00  0.00    -0.239 NA
ATOM     22 Cl1  <0> d           4.179  -7.946   5.098  0.00  0.00    -0.054 Cl
ATOM     23  C10 <0> d           5.237  -4.758   3.012  0.00  0.00     0.151 A 
ENDBRANCH  15  18
ENDBRANCH  13  15
ENDBRANCH   1  13
TORSDOF 5
