REMARK  5 active torsions:
REMARK  status: ('A' for Active; 'I' for Inactive)
REMARK    1  A    between atoms: C2_2  and  C3_3 
REMARK    2  A    between atoms: C3_3  and  C4_4 
REMARK    3  A    between atoms: C4_4  and  C9_10 
REMARK       I    between atoms: C9_10  and  N2_12 
REMARK    4  A    between atoms: N2_12  and  C10_13 
REMARK    5  A    between atoms: C10_13  and  C12_15 
ROOT
ATOM      1  C9  <0> d          -0.814  -2.448  -1.249  0.00  0.00     0.228 C 
ATOM      2  O1  <0> d          -1.187  -3.231  -2.097  0.00  0.00    -0.273 OA
ATOM      3  N2  <0> d          -1.691  -1.958  -0.352  0.00  0.00    -0.349 N 
ATOM      4  H18 <0> d          -1.380  -1.389   0.370  0.00  0.00     0.163 HD
ENDROOT
BRANCH   1   5
ATOM      5  C4  <0> d           0.631  -2.024  -1.200  0.00  0.00     0.065 C 
ATOM      6  C8  <0> d           1.441  -2.847  -2.204  0.00  0.00     0.251 C 
ATOM      7  N1  <0> d           1.340  -4.273  -1.868  0.00  0.00    -0.074 N 
ATOM      8  C7  <0> d           1.935  -4.516  -0.548  0.00  0.00     0.232 C 
ATOM      9  H15 <0> d           1.830  -4.816  -2.562  0.00  0.00     0.277 HD
ATOM     10  H26 <0> d           0.369  -4.546  -1.853  0.00  0.00     0.277 HD
ATOM     11  C6  <0> d           1.145  -3.757   0.520  0.00  0.00     0.029 C 
ATOM     12  C5  <0> d           1.186  -2.258   0.208  0.00  0.00     0.022 C 
BRANCH   5  13
ATOM     13  C3  <0> d           0.740  -0.539  -1.551  0.00  0.00     0.020 C 
BRANCH  13  14
ATOM     14  C2  <0> d           0.110  -0.292  -2.924  0.00  0.00    -0.003 C 
ATOM     15  C1  <0> d           0.110   1.208  -3.223  0.00  0.00     0.005 C 
ENDBRANCH  13  14
ENDBRANCH   5  13
ENDBRANCH   1   5
BRANCH   3  16
ATOM     16  C10 <0> d          -3.115  -2.283  -0.466  0.00  0.00     0.152 C 
ATOM     17  C11 <0> d          -3.388  -3.624   0.219  0.00  0.00     0.040 C 
BRANCH  16  18
ATOM     18  C12 <0> d          -3.932  -1.205   0.198  0.00  0.00     0.151 A 
ATOM     19  N5  <0> d          -5.049  -0.622  -0.300  0.00  0.00    -0.330 N 
ATOM     20  C13 <0> d          -5.445   0.283   0.627  0.00  0.00     0.235 A 
ATOM     21  C14 <0> d          -5.699  -0.913  -1.581  0.00  0.00     0.158 C 
ATOM     22  N4  <0> d          -4.590   0.229   1.612  0.00  0.00    -0.143 NA
ATOM     23  N3  <0> d          -3.691  -0.655   1.357  0.00  0.00    -0.133 NA
ENDBRANCH  16  18
ENDBRANCH   3  16
TORSDOF 5
