REMARK  6 active torsions:
REMARK  status: ('A' for Active; 'I' for Inactive)
REMARK    1  A    between atoms: C2_2  and  C3_3 
REMARK    2  A    between atoms: C2_2  and  C9_13 
REMARK    3  A    between atoms: C3_3  and  N1_4 
REMARK    4  A    between atoms: N1_4  and  C4_5 
REMARK    5  A    between atoms: C5_6  and  N3_12 
REMARK    6  A    between atoms: C9_13  and  N4_14 
ROOT
ATOM      1  N1  <0> d          -1.975  -0.182  -1.333  0.00  0.00    -0.373 N 
ATOM      2  H7  <0> d          -1.516   0.389  -1.968  0.00  0.00     0.161 HD
ENDROOT
BRANCH   1   3
ATOM      3  C3  <0> d          -1.303  -0.590  -0.097  0.00  0.00     0.127 C 
BRANCH   3   4
ATOM      4  C2  <0> d           0.101   0.017  -0.055  0.00  0.00     0.025 C 
ATOM      5  C1  <0> d          -0.005   1.541   0.026  0.00  0.00     0.013 C 
BRANCH   4   6
ATOM      6  C9  <0> d           0.848  -0.509   1.173  0.00  0.00     0.240 C 
BRANCH   6   7
ATOM      7  N4  <0> d           1.067  -1.955   1.031  0.00  0.00    -0.071 N 
ATOM      8  C13 <0> d           1.671  -2.502   2.264  0.00  0.00     0.235 C 
ATOM      9  C12 <0> d           2.649  -3.612   1.834  0.00  0.00     0.029 C 
ATOM     10  C11 <0> d           2.581  -3.633   0.290  0.00  0.00     0.029 C 
ATOM     11  C10 <0> d           2.047  -2.220  -0.053  0.00  0.00     0.235 C 
ATOM     12  H22 <0> d           0.195  -2.422   0.834  0.00  0.00     0.279 HD
ENDBRANCH   6   7
ENDBRANCH   4   6
ENDBRANCH   3   4
ENDBRANCH   1   3
BRANCH   1  13
ATOM     13  C4  <0> d          -3.273  -0.615  -1.595  0.00  0.00     0.149 A 
ATOM     14  N2  <0> d          -3.893  -1.393  -0.726  0.00  0.00    -0.240 NA
ATOM     15  C8  <0> d          -5.126  -1.821  -0.933  0.00  0.00     0.138 A 
ATOM     16  C7  <0> d          -5.814  -1.478  -2.079  0.00  0.00     0.030 A 
ATOM     17  C6  <0> d          -5.200  -0.666  -3.025  0.00  0.00     0.053 A 
ATOM     18 Br1  <0> d          -7.575  -2.107  -2.360  0.00  0.00    -0.050 Br
ATOM     19  C5  <0> d          -3.907  -0.226  -2.779  0.00  0.00     0.073 A 
BRANCH  19  20
ATOM     20  N3  <0> d          -3.247   0.594  -3.702  0.00  0.00    -0.396 N 
ATOM     21  H10 <0> d          -2.344   0.897  -3.523  0.00  0.00     0.156 HD
ATOM     22  H11 <0> d          -3.694   0.859  -4.521  0.00  0.00     0.156 HD
ENDBRANCH  19  20
ENDBRANCH   1  13
TORSDOF 6
