REMARK  4 active torsions:
REMARK  status: ('A' for Active; 'I' for Inactive)
REMARK    1  A    between atoms: C2_2  and  C3_3 
REMARK    2  A    between atoms: C4_6  and  C5_8 
REMARK    3  A    between atoms: C5_8  and  N3_9 
REMARK    4  A    between atoms: C8_12  and  C11_15 
ROOT
ATOM      1  N3  <0> d          -3.351  -2.942  -3.453  0.00  0.00    -0.064 N 
ATOM      2  C6  <0> d          -4.260  -3.537  -2.466  0.00  0.00     0.236 C 
ATOM      3  C7  <0> d          -4.422  -5.031  -2.751  0.00  0.00     0.037 C 
ATOM      4  C8  <0> d          -5.000  -5.217  -4.157  0.00  0.00     0.020 C 
ATOM      5  C9  <0> d          -4.083  -4.529  -5.171  0.00  0.00     0.037 C 
ATOM      6  C10 <0> d          -3.933  -3.053  -4.796  0.00  0.00     0.236 C 
ATOM      7  H26 <0> d          -2.467  -3.429  -3.430  0.00  0.00     0.280 HD
ENDROOT
BRANCH   1   8
ATOM      8  C5  <0> d          -3.137  -1.525  -3.129  0.00  0.00     0.322 C 
BRANCH   8   9
ATOM      9  C4  <0> d          -2.428  -1.415  -1.804  0.00  0.00     0.187 A 
ATOM     10  N2  <0> d          -2.080  -2.426  -1.097  0.00  0.00    -0.154 NA
ATOM     11  N1  <0> d          -1.440  -2.006   0.079  0.00  0.00    -0.283 N 
ATOM     12  C3  <0> d          -1.433  -0.534   0.013  0.00  0.00     0.245 A 
ATOM     13  H7  <0> d          -1.080  -2.565   0.785  0.00  0.00     0.185 HD
ATOM     14  O1  <0> d          -2.089  -0.235  -1.229  0.00  0.00    -0.308 OA
BRANCH  12  15
ATOM     15  C2  <0> d           0.002  -0.004   0.002  0.00  0.00     0.051 C 
ATOM     16  C1  <0> d          -0.019   1.526   0.010  0.00  0.00     0.009 C 
ENDBRANCH  12  15
ENDBRANCH   8   9
ENDBRANCH   1   8
BRANCH   4  17
ATOM     17  C11 <0> d          -5.090  -6.687  -4.475  0.00  0.00    -0.046 A 
ATOM     18  C18 <0> d          -3.948  -7.678  -4.526  0.00  0.00     0.155 A 
ATOM     19  N4  <0> d          -4.551  -8.969  -4.874  0.00  0.00    -0.385 N 
ATOM     20  C17 <0> d          -5.843  -8.801  -5.022  0.00  0.00     0.038 A 
ATOM     21  H25 <0> d          -4.073  -9.807  -4.980  0.00  0.00     0.160 HD
ATOM     22  C12 <0> d          -6.207  -7.387  -4.779  0.00  0.00    -0.005 A 
ATOM     23  C16 <0> d          -6.883  -9.711  -5.357  0.00  0.00     0.030 A 
ATOM     24  C13 <0> d          -7.619  -7.004  -4.899  0.00  0.00     0.014 A 
ATOM     25  C14 <0> d          -8.530  -7.949  -5.224  0.00  0.00     0.001 A 
ATOM     26  C15 <0> d          -8.160  -9.283  -5.448  0.00  0.00     0.002 A 
ENDBRANCH   4  17
TORSDOF 4
