REMARK  4 active torsions:
REMARK  status: ('A' for Active; 'I' for Inactive)
REMARK    1  A    between atoms: C2_2  and  C3_3 
REMARK    2  A    between atoms: C2_2  and  N5_17 
REMARK    3  A    between atoms: C6_6  and  S1_10 
REMARK    4  A    between atoms: S1_10  and  C9_11 
ROOT
ATOM      1  C3  <0> d          -1.410  -0.530   0.021  0.00  0.00    -0.027 A 
ATOM      2  C4  <0> d          -2.179  -0.455  -1.126  0.00  0.00     0.011 A 
ATOM      3  C5  <0> d          -3.476  -0.930  -1.123  0.00  0.00     0.021 A 
ATOM      4  C6  <0> d          -4.008  -1.486   0.035  0.00  0.00     0.026 A 
ATOM      5  C7  <0> d          -3.232  -1.561   1.185  0.00  0.00     0.028 A 
ATOM      6  C8  <0> d          -1.934  -1.087   1.173  0.00  0.00     0.029 A 
ATOM      7 Br1  <0> d          -3.950  -2.316   2.764  0.00  0.00    -0.050 Br
ENDROOT
BRANCH   4   8
ATOM      8  S1  <0> d          -5.661  -2.093   0.043  0.00  0.00    -0.048 SA
BRANCH   8   9
ATOM      9  C9  <0> d          -6.567  -0.853   0.907  0.00  0.00     0.213 A 
ATOM     10  N4  <0> d          -7.873  -0.908   1.258  0.00  0.00    -0.230 N 
ATOM     11  N3  <0> d          -8.129   0.304   1.923  0.00  0.00    -0.044 NA
ATOM     12  C10 <0> d          -8.818  -1.998   1.003  0.00  0.00     0.184 C 
ATOM     13  N2  <0> d          -7.025   0.971   1.919  0.00  0.00    -0.022 NA
ATOM     14  N1  <0> d          -6.102   0.304   1.327  0.00  0.00    -0.101 NA
ENDBRANCH   8   9
ENDBRANCH   4   8
BRANCH   1  15
ATOM     15  C2  <0> d           0.004  -0.010   0.013  0.00  0.00     0.212 C 
ATOM     16  C1  <0> d          -0.011   1.511   0.176  0.00  0.00     0.045 C 
BRANCH  15  17
ATOM     17  N5  <0> d           0.648  -0.360  -1.260  0.00  0.00    -0.071 N 
ATOM     18  H11 <0> d           1.595  -0.012  -1.265  0.00  0.00     0.275 HD
ATOM     19  H12 <0> d           0.658  -1.363  -1.367  0.00  0.00     0.275 HD
ATOM     20  H13 <0> d           0.133   0.054  -2.022  0.00  0.00     0.275 HD
ENDBRANCH  15  17
ENDBRANCH   1  15
TORSDOF 4
