REMARK  5 active torsions:
REMARK  status: ('A' for Active; 'I' for Inactive)
REMARK    1  A    between atoms: C5_6  and  S1_10 
REMARK    2  A    between atoms: S1_10  and  C8_11 
REMARK    3  A    between atoms: C8_11  and  C9_12 
REMARK       I    between atoms: C9_12  and  N3_14 
REMARK    4  A    between atoms: N3_14  and  C10_15 
REMARK    5  A    between atoms: C14_19  and  C16_21 
ROOT
ATOM      1  C9  <0> d           3.314  -2.558  -4.211  0.00  0.00     0.231 C 
ATOM      2  O1  <0> d           4.011  -3.551  -4.234  0.00  0.00    -0.272 OA
ATOM      3  N3  <0> d           2.897  -2.000  -5.364  0.00  0.00    -0.327 N 
ATOM      4  H8  <0> d           2.286  -1.247  -5.346  0.00  0.00     0.169 HD
ENDROOT
BRANCH   1   5
ATOM      5  C8  <0> d           2.915  -1.949  -2.891  0.00  0.00     0.180 C 
BRANCH   5   6
ATOM      6  S1  <0> d           3.627  -2.921  -1.536  0.00  0.00    -0.114 SA
BRANCH   6   7
ATOM      7  C5  <0> d           3.061  -2.068  -0.039  0.00  0.00     0.247 A 
ATOM      8  N1  <0> d           3.547  -0.683  -0.033  0.00  0.00    -0.359 N 
ATOM      9  C4  <0> d           2.506   0.097  -0.020  0.00  0.00     0.057 A 
ATOM     10  H12 <0> d           4.476  -0.401  -0.039  0.00  0.00     0.162 HD
ATOM     11  C3  <0> d           2.352   1.558  -0.009  0.00  0.00     0.031 A 
ATOM     12  C6  <0> d           1.269  -0.732  -0.016  0.00  0.00     0.057 A 
ATOM     13  C2  <0> d           1.116   2.097   0.005  0.00  0.00     0.002 A 
ATOM     14  C1  <0> d          -0.052   1.314   0.008  0.00  0.00     0.002 A 
ATOM     15  C7  <0> d          -0.024  -0.034  -0.001  0.00  0.00     0.031 A 
ATOM     16  N2  <0> d           1.594  -1.992  -0.027  0.00  0.00    -0.359 N 
ATOM     17  H13 <0> d           0.981  -2.743  -0.028  0.00  0.00     0.162 HD
ENDBRANCH   6   7
ENDBRANCH   5   6
ENDBRANCH   1   5
BRANCH   3  18
ATOM     18  C10 <0> d           3.346  -2.507  -6.590  0.00  0.00     0.035 A 
ATOM     19  C15 <0> d           3.564  -3.867  -6.737  0.00  0.00     0.049 A 
ATOM     20  C14 <0> d           4.008  -4.370  -7.963  0.00  0.00     0.064 A 
ATOM     21  C13 <0> d           4.237  -3.494  -9.029  0.00  0.00     0.051 A 
ATOM     22  C12 <0> d           4.021  -2.139  -8.868  0.00  0.00     0.027 A 
ATOM     23 Cl1  <0> d           4.794  -4.109 -10.555  0.00  0.00    -0.083 Cl
ATOM     24  C11 <0> d           3.578  -1.645  -7.656  0.00  0.00     0.031 A 
BRANCH  20  25
ATOM     25  C16 <0> d           4.238  -5.816  -8.131  0.00  0.00     0.211 C 
ATOM     26  O2  <0> d           4.036  -6.580  -7.197  0.00  0.00    -0.644 OA
ATOM     27  O3  <0> d           4.630  -6.253  -9.204  0.00  0.00    -0.644 OA
ENDBRANCH  20  25
ENDBRANCH   3  18
TORSDOF 5
