REMARK  5 active torsions:
REMARK  status: ('A' for Active; 'I' for Inactive)
REMARK    1  A    between atoms: C5_5  and  C8_8 
REMARK       I    between atoms: C8_8  and  N1_10 
REMARK    2  A    between atoms: C10_12  and  C17_20 
REMARK       I    between atoms: C17_20  and  N3_22 
REMARK    3  A    between atoms: N3_22  and  C18_23 
REMARK    4  A    between atoms: C18_23  and  C19_24 
REMARK    5  A    between atoms: C19_24  and  C20_25 
ROOT
ATOM      1  C20 <0> d          -0.699  -6.742   9.432  0.00  0.00    -0.022 A 
ATOM      2  C21 <0> d          -0.138  -7.853   9.933  0.00  0.00     0.013 A 
ATOM      3  N4  <0> d           0.298  -7.621  11.210  0.00  0.00    -0.359 N 
ATOM      4  H2  <0> d           0.737  -8.276  11.775  0.00  0.00     0.166 HD
ATOM      5  C22 <0> d           0.021  -6.324  11.572  0.00  0.00     0.043 A 
ATOM      6  C23 <0> d          -0.612  -5.713  10.472  0.00  0.00     0.000 A 
ATOM      7  C24 <0> d          -1.008  -4.380  10.549  0.00  0.00     0.037 A 
ATOM      8  C25 <0> d          -0.769  -3.663  11.718  0.00  0.00     0.045 A 
ATOM      9  C26 <0> d          -0.136  -4.282  12.805  0.00  0.00     0.025 A 
ATOM     10  C27 <0> d           0.247  -5.589  12.734  0.00  0.00     0.032 A 
ATOM     11  C28 <0> d          -1.171  -2.291  11.811  0.00  0.00     0.099 C 
ATOM     12  N5  <0> d          -1.489  -1.203  11.884  0.00  0.00    -0.191 NA
ATOM     13  C29 <0> d          -0.007  -9.162   9.198  0.00  0.00     0.068 C 
ENDROOT
BRANCH   1  14
ATOM     14  C19 <0> d          -1.300  -6.581   8.059  0.00  0.00     0.061 C 
BRANCH  14  15
ATOM     15  C18 <0> d          -0.219  -6.116   7.081  0.00  0.00     0.127 C 
BRANCH  15  16
ATOM     16  N3  <0> d          -0.803  -5.960   5.746  0.00  0.00    -0.360 N 
ATOM     17  C17 <0> d          -0.032  -5.556   4.717  0.00  0.00     0.224 C 
ATOM     18  O2  <0> d           1.144  -5.323   4.895  0.00  0.00    -0.273 OA
ATOM     19  H23 <0> d          -1.744  -6.147   5.604  0.00  0.00     0.162 HD
BRANCH  17  20
ATOM     20  C10 <0> d          -0.633  -5.396   3.344  0.00  0.00     0.106 C 
ATOM     21  C9  <0> d           0.185  -4.381   2.514  0.00  0.00     0.141 C 
ATOM     22  N1  <0> d           0.175  -4.928   1.137  0.00  0.00    -0.346 N 
ATOM     23  C8  <0> d           0.058  -4.249  -0.021  0.00  0.00     0.253 C 
ATOM     24  C12 <0> d           0.317  -6.392   1.322  0.00  0.00     0.136 C 
ATOM     25  O1  <0> d          -0.047  -4.852  -1.071  0.00  0.00    -0.267 OA
ATOM     26  C11 <0> d          -0.537  -6.713   2.557  0.00  0.00    -0.007 C 
ATOM     27  C16 <0> d           0.140  -7.787   3.404  0.00  0.00     0.039 C 
ATOM     28  C13 <0> d          -1.926  -7.173   2.126  0.00  0.00     0.039 C 
ATOM     29  C15 <0> d           0.171  -9.103   2.622  0.00  0.00     0.233 C 
ATOM     30  N2  <0> d          -1.199  -9.508   2.286  0.00  0.00    -0.075 N 
ATOM     31  C14 <0> d          -1.811  -8.514   1.395  0.00  0.00     0.233 C 
ATOM     32  H18 <0> d          -1.744  -9.580   3.132  0.00  0.00     0.277 HD
ATOM     33  H34 <0> d          -1.180 -10.405   1.824  0.00  0.00     0.277 HD
BRANCH  23  34
ATOM     34  C5  <0> d           0.058  -2.771  -0.014  0.00  0.00     0.032 A 
ATOM     35  C4  <0> d          -0.551  -2.065  -1.053  0.00  0.00     0.017 A 
ATOM     36  C3  <0> d          -0.548  -0.685  -1.040  0.00  0.00     0.007 A 
ATOM     37  C2  <0> d           0.057  -0.001  -0.001  0.00  0.00    -0.062 A 
ATOM     38  C1  <0> d           0.057   1.506   0.006  0.00  0.00     0.048 C 
ATOM     39  C7  <0> d           0.668  -0.695   1.029  0.00  0.00     0.007 A 
ATOM     40  C6  <0> d           0.667  -2.074   1.031  0.00  0.00     0.017 A 
ENDBRANCH  23  34
ENDBRANCH  17  20
ENDBRANCH  15  16
ENDBRANCH  14  15
ENDBRANCH   1  14
TORSDOF 5
