REMARK  1 active torsions:
REMARK  status: ('A' for Active; 'I' for Inactive)
REMARK    1  A    between atoms: C4_4  and  C7_7 
ROOT
ATOM      1  C7  <0> d           3.693  -0.682  -0.038  0.00  0.00     0.088 C 
ATOM      2  N1  <0> d           4.846  -0.056  -0.138  0.00  0.00    -0.174 NA
ATOM      3  N2  <0> d           6.058  -0.768  -0.130  0.00  0.00    -0.246 N 
ATOM      4  C8  <0> d           6.113  -2.043  -0.622  0.00  0.00     0.248 C 
ATOM      5  O1  <0> d           7.148  -2.671  -0.702  0.00  0.00    -0.271 OA
ATOM      6  C9  <0> d           4.799  -2.598  -1.051  0.00  0.00     0.143 C 
ATOM      7  C10 <0> d           3.783  -2.165   0.063  0.00  0.00     0.154 C 
ATOM      8  N3  <0> d           2.640  -2.994  -0.311  0.00  0.00    -0.378 N 
ATOM      9  C11 <0> d           3.218  -4.236  -0.631  0.00  0.00     0.035 A 
ATOM     10  C12 <0> d           4.550  -4.056  -1.076  0.00  0.00    -0.016 A 
ATOM     11  C13 <0> d           5.333  -5.136  -1.423  0.00  0.00     0.010 A 
ATOM     12  C14 <0> d           4.756  -6.398  -1.339  0.00  0.00     0.001 A 
ATOM     13  C15 <0> d           3.451  -6.571  -0.926  0.00  0.00     0.002 A 
ATOM     14  C16 <0> d           2.657  -5.505  -0.558  0.00  0.00     0.029 A 
ATOM     15  H8  <0> d           6.859  -0.353   0.227  0.00  0.00     0.192 HD
ATOM     16  H9  <0> d           1.702  -2.746  -0.334  0.00  0.00     0.160 HD
ENDROOT
BRANCH   1  17
ATOM     17  C4  <0> d           2.404   0.034  -0.021  0.00  0.00    -0.008 A 
ATOM     18  C3  <0> d           2.295   1.297  -0.608  0.00  0.00     0.013 A 
ATOM     19  C2  <0> d           1.086   1.961  -0.589  0.00  0.00     0.001 A 
ATOM     20  C1  <0> d          -0.017   1.379   0.010  0.00  0.00     0.000 A 
ATOM     21  C6  <0> d           0.084   0.128   0.594  0.00  0.00     0.001 A 
ATOM     22  C5  <0> d           1.286  -0.547   0.582  0.00  0.00     0.013 A 
ENDBRANCH   1  17
TORSDOF 1
