REMARK  6 active torsions:
REMARK  status: ('A' for Active; 'I' for Inactive)
REMARK    1  A    between atoms: C3_4  and  C5_7 
REMARK    2  A    between atoms: C5_7  and  N3_8 
REMARK       I    between atoms: N3_8  and  C7_10 
REMARK    3  A    between atoms: C7_10  and  C8_12 
REMARK    4  A    between atoms: C8_12  and  S1_13 
REMARK    5  A    between atoms: S1_13  and  C9_16 
REMARK    6  A    between atoms: C12_19  and  O4_22 
ROOT
ATOM      1  C8  <0> d           3.471  -3.550  -3.237  0.00  0.00     0.248 C 
ENDROOT
BRANCH   1   2
ATOM      2  C7  <0> d           2.047  -3.163  -2.935  0.00  0.00     0.234 C 
ATOM      3  N3  <0> d           1.424  -3.675  -1.855  0.00  0.00    -0.351 N 
ATOM      4  C6  <0> d           2.132  -4.609  -0.976  0.00  0.00     0.153 C 
ATOM      5  O1  <0> d           1.461  -2.390  -3.663  0.00  0.00    -0.272 OA
BRANCH   3   6
ATOM      6  C5  <0> d           0.039  -3.298  -1.561  0.00  0.00     0.166 C 
BRANCH   6   7
ATOM      7  C3  <0> d           0.027  -2.079  -0.676  0.00  0.00    -0.004 A 
ATOM      8  C2  <0> d           0.008  -0.792  -1.094  0.00  0.00     0.122 A 
ATOM      9  N1  <0> d           0.002  -0.004   0.002  0.00  0.00    -0.285 N 
ATOM     10  C1  <0> d          -0.018   1.461   0.010  0.00  0.00     0.179 C 
ATOM     11  N2  <0> d           0.025  -0.834   1.130  0.00  0.00    -0.185 NA
ATOM     12  C4  <0> d           0.034  -2.078   0.723  0.00  0.00     0.149 A 
ENDBRANCH   6   7
ENDBRANCH   3   6
ENDBRANCH   1   2
BRANCH   1  13
ATOM     13  S1  <0> d           4.023  -2.701  -4.743  0.00  0.00     0.183 S 
ATOM     14  O2  <0> d           3.317  -3.197  -5.871  0.00  0.00    -0.222 OA
ATOM     15  O3  <0> d           4.121  -1.303  -4.508  0.00  0.00    -0.222 OA
BRANCH  13  16
ATOM     16  C9  <0> d           5.685  -3.235  -4.981  0.00  0.00     0.059 A 
ATOM     17  C14 <0> d           5.945  -4.364  -5.736  0.00  0.00     0.026 A 
ATOM     18  C13 <0> d           7.248  -4.781  -5.930  0.00  0.00     0.038 A 
ATOM     19  C12 <0> d           8.294  -4.073  -5.356  0.00  0.00     0.065 A 
ATOM     20  C11 <0> d           8.030  -2.945  -4.594  0.00  0.00     0.038 A 
ATOM     21  C10 <0> d           6.726  -2.528  -4.408  0.00  0.00     0.026 A 
BRANCH  19  22
ATOM     22  O4  <0> d           9.576  -4.485  -5.541  0.00  0.00    -0.361 OA
ATOM     23  H17 <0> d           9.890  -5.106  -4.870  0.00  0.00     0.217 HD
ENDBRANCH  19  22
ENDBRANCH  13  16
ENDBRANCH   1  13
TORSDOF 6
