REMARK  11 active torsions:
REMARK  status: ('A' for Active; 'I' for Inactive)
REMARK    1  A    between atoms: C2_2  and  C3_3 
REMARK    2  A    between atoms: C3_3  and  N1_4 
REMARK    3  A    between atoms: N1_4  and  C4_5 
REMARK    4  A    between atoms: N1_4  and  C7_8 
REMARK    5  A    between atoms: C4_5  and  C5_6 
REMARK    6  A    between atoms: C7_8  and  C8_9 
REMARK    7  A    between atoms: C7_8  and  C9_11 
REMARK    8  A    between atoms: C8_9  and  N2_10 
REMARK    9  A    between atoms: C11_13  and  O2_20 
REMARK   10  A    between atoms: C12_14  and  O1_18 
REMARK   11  A    between atoms: O2_20  and  C16_21 
ROOT
ATOM      1  C7  <0> d          -2.092   0.729  -0.945  0.00  0.00     0.246 C 
ENDROOT
BRANCH   1   2
ATOM      2  N1  <0> d          -3.026   0.693   0.189  0.00  0.00    -0.061 N 
ATOM      3  H30 <0> d          -2.770  -0.178   0.810  0.00  0.00     0.280 HD
BRANCH   2   4
ATOM      4  C3  <0> d          -2.889   1.897   1.020  0.00  0.00     0.235 C 
BRANCH   4   5
ATOM      5  C2  <0> d          -3.559   1.658   2.375  0.00  0.00     0.023 C 
ATOM      6  C1  <0> d          -3.417   2.912   3.241  0.00  0.00     0.007 C 
ENDBRANCH   4   5
ENDBRANCH   2   4
BRANCH   2   7
ATOM      7  C4  <0> d          -4.410   0.527  -0.274  0.00  0.00     0.235 C 
BRANCH   7   8
ATOM      8  C5  <0> d          -4.614  -0.907  -0.765  0.00  0.00     0.023 C 
ATOM      9  C6  <0> d          -6.020  -1.050  -1.353  0.00  0.00     0.007 C 
ENDBRANCH   7   8
ENDBRANCH   2   7
ENDBRANCH   1   2
BRANCH   1  10
ATOM     10  C8  <0> d          -0.788   1.401  -0.511  0.00  0.00     0.267 C 
BRANCH  10  11
ATOM     11  N2  <0> d          -0.163   0.611   0.559  0.00  0.00    -0.077 N 
ATOM     12  H18 <0> d           0.775   1.094   0.871  0.00  0.00     0.274 HD
ATOM     13  H19 <0> d           0.052  -0.402   0.189  0.00  0.00     0.274 HD
ATOM     14  H31 <0> d          -0.848   0.550   1.417  0.00  0.00     0.274 HD
ENDBRANCH  10  11
ENDBRANCH   1  10
BRANCH   1  15
ATOM     15  C9  <0> d          -2.707   1.510  -2.078  0.00  0.00    -0.021 A 
ATOM     16  C14 <0> d          -2.956   2.861  -1.927  0.00  0.00     0.036 A 
ATOM     17  C13 <0> d          -3.520   3.583  -2.965  0.00  0.00     0.070 A 
ATOM     18  C12 <0> d          -3.837   2.951  -4.157  0.00  0.00     0.123 A 
ATOM     19 Cl1  <0> d          -3.832   5.280  -2.772  0.00  0.00    -0.081 Cl
ATOM     20  C11 <0> d          -3.586   1.590  -4.307  0.00  0.00     0.104 A 
ATOM     21  C10 <0> d          -3.015   0.875  -3.266  0.00  0.00     0.049 A 
BRANCH  18  22
ATOM     22  O1  <0> d          -4.392   3.658  -5.177  0.00  0.00    -0.351 OA
ATOM     23  C15 <0> d          -3.495   4.260  -6.113  0.00  0.00     0.210 C 
ENDBRANCH  18  22
BRANCH  20  24
ATOM     24  O2  <0> d          -3.894   0.965  -5.475  0.00  0.00    -0.349 OA
BRANCH  24  25
ATOM     25  C16 <0> d          -3.609  -0.432  -5.558  0.00  0.00     0.171 C 
ATOM     26  C17 <0> d          -4.021  -0.956  -6.935  0.00  0.00     0.034 C 
ENDBRANCH  24  25
ENDBRANCH  20  24
ENDBRANCH   1  15
TORSDOF 11
