REMARK  3 active torsions:
REMARK  status: ('A' for Active; 'I' for Inactive)
REMARK    1  A    between atoms: C10_10  and  N1_11 
REMARK    2  A    between atoms: N1_11  and  C11_12 
REMARK    3  A    between atoms: C11_12  and  C17_18 
ROOT
ATOM      1  N1  <0> d           4.630  -0.059   0.033  0.00  0.00    -0.048 N 
ATOM      2  H12 <0> d           3.985  -0.386   0.736  0.00  0.00     0.279 HD
ATOM      3  H23 <0> d           5.463  -0.628   0.050  0.00  0.00     0.279 HD
ENDROOT
BRANCH   1   4
ATOM      4  C10 <0> d           4.001  -0.149  -1.291  0.00  0.00     0.220 C 
ATOM      5  C4  <0> d           5.040   0.105  -2.353  0.00  0.00    -0.021 A 
ATOM      6  C3  <0> d           6.290  -0.476  -2.186  0.00  0.00     0.010 A 
ATOM      7  C5  <0> d           4.789   0.878  -3.464  0.00  0.00    -0.050 A 
ATOM      8  C2  <0> d           7.282  -0.287  -3.127  0.00  0.00     0.001 A 
ATOM      9  C1  <0> d           7.029   0.485  -4.245  0.00  0.00     0.001 A 
ATOM     10  C6  <0> d           5.787   1.064  -4.412  0.00  0.00     0.007 A 
ATOM     11  C7  <0> d           3.462   1.550  -3.701  0.00  0.00     0.039 C 
ATOM     12  C8  <0> d           2.376   0.917  -2.834  0.00  0.00     0.007 C 
ATOM     13  C9  <0> d           2.875   0.878  -1.385  0.00  0.00     0.038 C 
ENDBRANCH   1   4
BRANCH   1  14
ATOM     14  C11 <0> d           4.988   1.339   0.311  0.00  0.00     0.213 C 
ATOM     15  C16 <0> d           5.619   1.438   1.701  0.00  0.00     0.051 C 
ATOM     16  C15 <0> d           6.878   0.570   1.752  0.00  0.00     0.003 C 
ATOM     17  C14 <0> d           7.878   1.058   0.702  0.00  0.00     0.000 C 
ATOM     18  C13 <0> d           7.246   0.960  -0.688  0.00  0.00     0.003 C 
ATOM     19  C12 <0> d           5.988   1.828  -0.739  0.00  0.00     0.051 C 
BRANCH  14  20
ATOM     20  C17 <0> d           3.748   2.194   0.260  0.00  0.00     0.210 C 
ATOM     21  O1  <0> d           2.703   1.780   0.732  0.00  0.00    -0.646 OA
ATOM     22  O2  <0> d           3.791   3.300  -0.252  0.00  0.00    -0.646 OA
ENDBRANCH  14  20
ENDBRANCH   1  14
TORSDOF 3
