REMARK  6 active torsions:
REMARK  status: ('A' for Active; 'I' for Inactive)
REMARK    1  A    between atoms: N1_2  and  C2_3 
REMARK    2  A    between atoms: N1_2  and  S1_10 
REMARK    3  A    between atoms: S1_10  and  C8_13 
REMARK    4  A    between atoms: C8_13  and  C9_14 
REMARK    5  A    between atoms: C14_19  and  C15_20 
REMARK    6  A    between atoms: C15_20  and  N2_21 
ROOT
ATOM      1  S1  <0> d          -0.000  -0.824  -1.437  0.00  0.00     0.236 S 
ATOM      2  O1  <0> d          -0.583  -2.084  -1.135  0.00  0.00    -0.205 OA
ATOM      3  O2  <0> d          -0.624   0.060  -2.357  0.00  0.00    -0.205 OA
ENDROOT
BRANCH   1   4
ATOM      4  N1  <0> d           0.002  -0.004   0.002  0.00  0.00    -0.280 N 
ATOM      5  C1  <0> d          -0.018   1.461   0.010  0.00  0.00     0.169 C 
BRANCH   4   6
ATOM      6  C2  <0> d           0.023  -0.709   1.208  0.00  0.00     0.047 A 
ATOM      7  C7  <0> d          -0.482  -0.127   2.363  0.00  0.00     0.072 A 
ATOM      8  C6  <0> d          -0.464  -0.830   3.554  0.00  0.00     0.118 A 
ATOM      9  C5  <0> d           0.067  -2.108   3.596  0.00  0.00     0.042 A 
ATOM     10  F1  <0> d          -0.960  -0.267   4.678  0.00  0.00    -0.206 F 
ATOM     11  C4  <0> d           0.575  -2.687   2.448  0.00  0.00     0.005 A 
ATOM     12  C3  <0> d           0.555  -1.992   1.255  0.00  0.00     0.030 A 
ENDBRANCH   4   6
ENDBRANCH   1   4
BRANCH   1  13
ATOM     13  C8  <0> d           1.752  -1.031  -1.858  0.00  0.00     0.202 C 
BRANCH  13  14
ATOM     14  C9  <0> d           1.870  -1.774  -3.164  0.00  0.00    -0.035 A 
ATOM     15  C14 <0> d           1.904  -1.074  -4.356  0.00  0.00    -0.026 A 
ATOM     16  C13 <0> d           2.017  -1.755  -5.554  0.00  0.00     0.009 A 
ATOM     17  C12 <0> d           2.086  -3.136  -5.561  0.00  0.00     0.001 A 
ATOM     18  C11 <0> d           2.046  -3.835  -4.369  0.00  0.00     0.001 A 
ATOM     19  C10 <0> d           1.938  -3.155  -3.171  0.00  0.00     0.009 A 
BRANCH  15  20
ATOM     20  C15 <0> d           1.823   0.430  -4.349  0.00  0.00     0.268 C 
BRANCH  20  21
ATOM     21  N2  <0> d           3.143   0.990  -4.025  0.00  0.00    -0.075 N 
ATOM     22  H16 <0> d           3.432   0.665  -3.115  0.00  0.00     0.274 HD
ATOM     23  H17 <0> d           3.813   0.692  -4.718  0.00  0.00     0.274 HD
ATOM     24  H18 <0> d           3.088   1.998  -4.021  0.00  0.00     0.274 HD
ENDBRANCH  20  21
ENDBRANCH  15  20
ENDBRANCH  13  14
ENDBRANCH   1  13
TORSDOF 6
