REMARK  4 active torsions:
REMARK  status: ('A' for Active; 'I' for Inactive)
REMARK    1  A    between atoms: C2_2  and  C3_3 
REMARK    2  A    between atoms: C3_3  and  N1_4 
REMARK    3  A    between atoms: C11_12  and  O4_24 
REMARK    4  A    between atoms: C17_20  and  O3_23 
ROOT
ATOM      1  N1  <0> d          -1.318  -1.702  -1.129  0.00  0.00    -0.060 N 
ATOM      2  C4  <0> d          -0.157  -2.592  -1.045  0.00  0.00     0.237 C 
ATOM      3  C5  <0> d          -0.176  -3.600  -2.205  0.00  0.00     0.048 C 
ATOM      4  C6  <0> d          -1.503  -4.333  -2.155  0.00  0.00     0.058 C 
ATOM      5  C7  <0> d          -1.675  -5.089  -0.888  0.00  0.00    -0.001 A 
ATOM      6  C8  <0> d          -2.242  -4.577   0.255  0.00  0.00    -0.046 A 
ATOM      7  C9  <0> d          -2.280  -5.473   1.305  0.00  0.00     0.011 A 
ATOM      8  C10 <0> d          -1.816  -6.769   1.123  0.00  0.00     0.040 A 
ATOM      9  C11 <0> d          -1.316  -7.274  -0.079  0.00  0.00     0.099 A 
ATOM     10  C12 <0> d          -1.263  -6.391  -1.156  0.00  0.00     0.110 A 
ATOM     11  O1  <0> d          -0.942  -6.511  -2.484  0.00  0.00    -0.334 OA
ATOM     12  C13 <0> d          -1.621  -5.482  -3.169  0.00  0.00     0.214 C 
ATOM     13  C14 <0> d          -1.276  -4.833  -4.457  0.00  0.00     0.157 C 
ATOM     14  O2  <0> d          -0.386  -5.230  -5.170  0.00  0.00    -0.295 OA
ATOM     15  C15 <0> d          -2.140  -3.621  -4.810  0.00  0.00     0.084 C 
ATOM     16  C16 <0> d          -2.297  -2.633  -3.651  0.00  0.00     0.048 C 
ATOM     17  C17 <0> d          -2.660  -3.348  -2.342  0.00  0.00     0.102 C 
ATOM     18  C18 <0> d          -2.580  -2.446  -1.111  0.00  0.00     0.228 C 
ATOM     19  C19 <0> d          -2.760  -3.178   0.214  0.00  0.00     0.075 C 
ATOM     20  H22 <0> d          -1.262  -1.171  -1.985  0.00  0.00     0.280 HD
ENDROOT
BRANCH   1  21
ATOM     21  C3  <0> d          -1.293  -0.775   0.010  0.00  0.00     0.262 C 
BRANCH  21  22
ATOM     22  C2  <0> d          -0.078   0.111  -0.090  0.00  0.00    -0.010 C 
ATOM     23  C1  <0> d          -0.214   1.414  -0.074  0.00  0.00     0.008 C 
ENDBRANCH  21  22
ENDBRANCH   1  21
BRANCH  17  24
ATOM     24  O3  <0> d          -3.919  -4.016  -2.438  0.00  0.00    -0.386 OA
ATOM     25  H20 <0> d          -4.672  -3.421  -2.556  0.00  0.00     0.210 HD
ENDBRANCH  17  24
BRANCH   9  26
ATOM     26  O4  <0> d          -0.901  -8.564  -0.193  0.00  0.00    -0.358 OA
ATOM     27  H21 <0> d          -1.597  -9.179  -0.464  0.00  0.00     0.217 HD
ENDBRANCH   9  26
TORSDOF 4
