REMARK  6 active torsions:
REMARK  status: ('A' for Active; 'I' for Inactive)
REMARK    1  A    between atoms: C2_2  and  N1_3 
REMARK    2  A    between atoms: C4_5  and  C7_9 
REMARK    3  A    between atoms: C7_9  and  N3_10 
REMARK       I    between atoms: N3_10  and  C8_11 
REMARK    4  A    between atoms: C8_11  and  C9_13 
REMARK    5  A    between atoms: C9_13  and  C10_14 
REMARK    6  A    between atoms: C10_14  and  N4_15 
ROOT
ATOM      1  C9  <0> d           6.180   0.722   4.819  0.00  0.00     0.123 C 
ENDROOT
BRANCH   1   2
ATOM      2  C8  <0> d           5.513  -0.488   4.218  0.00  0.00     0.219 C 
ATOM      3  N3  <0> d           4.288  -0.378   3.666  0.00  0.00    -0.357 N 
ATOM      4  H12 <0> d           3.837   0.480   3.654  0.00  0.00     0.162 HD
ATOM      5  O1  <0> d           6.077  -1.561   4.233  0.00  0.00    -0.274 OA
BRANCH   3   6
ATOM      6  C7  <0> d           3.640  -1.555   3.082  0.00  0.00     0.165 C 
BRANCH   6   7
ATOM      7  C4  <0> d           2.291  -1.165   2.535  0.00  0.00     0.009 A 
ATOM      8  C3  <0> d           2.035  -0.732   1.279  0.00  0.00     0.036 A 
ATOM      9  N1  <0> d           0.711  -0.489   1.189  0.00  0.00    -0.274 N 
ATOM     10  C19 <0> d           3.048  -0.551   0.178  0.00  0.00     0.070 C 
ATOM     11  N2  <0> d           0.134  -0.778   2.432  0.00  0.00    -0.177 NA
ATOM     12  C5  <0> d           1.081  -1.189   3.237  0.00  0.00     0.061 A 
ATOM     13  C6  <0> d           0.900  -1.609   4.673  0.00  0.00     0.073 C 
BRANCH   9  14
ATOM     14  C2  <0> d           0.002  -0.004   0.002  0.00  0.00     0.146 C 
ATOM     15  C1  <0> d          -0.019   1.526   0.010  0.00  0.00     0.028 C 
ENDBRANCH   9  14
ENDBRANCH   6   7
ENDBRANCH   3   6
ENDBRANCH   1   2
BRANCH   1  16
ATOM     16  C10 <0> d           7.550   0.327   5.374  0.00  0.00     0.144 C 
BRANCH  16  17
ATOM     17  N4  <0> d           8.198   1.504   5.958  0.00  0.00    -0.290 N 
ATOM     18  C18 <0> d           8.001   1.788   7.255  0.00  0.00     0.181 A 
ATOM     19  N5  <0> d           8.565   2.846   7.862  0.00  0.00    -0.332 N 
ATOM     20  S1  <0> d           6.992   0.757   8.176  0.00  0.00    -0.040 SA
ATOM     21  C17 <0> d           9.386   3.713   7.155  0.00  0.00     0.050 A 
ATOM     22  H1  <0> d           8.394   3.007   8.803  0.00  0.00     0.168 HD
ATOM     23  C12 <0> d           9.620   3.462   5.792  0.00  0.00     0.059 A 
ATOM     24  C16 <0> d           9.974   4.813   7.761  0.00  0.00     0.030 A 
ATOM     25  C11 <0> d           8.979   2.284   5.180  0.00  0.00     0.262 A 
ATOM     26  C13 <0> d          10.439   4.316   5.057  0.00  0.00     0.019 A 
ATOM     27  O2  <0> d           9.149   2.022   4.005  0.00  0.00    -0.267 OA
ATOM     28  C14 <0> d          11.015   5.405   5.677  0.00  0.00     0.001 A 
ATOM     29  C15 <0> d          10.783   5.651   7.021  0.00  0.00     0.002 A 
ENDBRANCH  16  17
ENDBRANCH   1  16
TORSDOF 6
