REMARK  4 active torsions:
REMARK  status: ('A' for Active; 'I' for Inactive)
REMARK    1  A    between atoms: C4_6  and  C5_7 
REMARK    2  A    between atoms: C5_7  and  C6_8 
REMARK    3  A    between atoms: C5_7  and  N3_15 
REMARK       I    between atoms: N3_15  and  C12_16 
REMARK    4  A    between atoms: C12_16  and  C13_18 
ROOT
ATOM      1  N3  <0> d           3.612   3.265  -0.015  0.00  0.00    -0.341 N 
ATOM      2  C12 <0> d           2.440   3.930  -0.001  0.00  0.00     0.252 C 
ATOM      3  O1  <0> d           2.430   5.145   0.006  0.00  0.00    -0.268 OA
ATOM      4  H11 <0> d           3.619   2.295  -0.020  0.00  0.00     0.164 HD
ENDROOT
BRANCH   1   5
ATOM      5  C5  <0> d           4.875   4.008  -0.023  0.00  0.00     0.188 C 
BRANCH   5   6
ATOM      6  C4  <0> d           5.258   4.362   1.391  0.00  0.00     0.133 A 
ATOM      7  N1  <0> d           5.711   5.564   1.806  0.00  0.00    -0.346 N 
ATOM      8  C1  <0> d           5.917   6.751   0.971  0.00  0.00     0.157 C 
ATOM      9  C2  <0> d           5.939   5.469   3.152  0.00  0.00     0.111 A 
ATOM     10  C3  <0> d           5.626   4.209   3.512  0.00  0.00     0.136 A 
ATOM     11  N2  <0> d           5.213   3.555   2.416  0.00  0.00    -0.243 NA
ENDBRANCH   5   6
BRANCH   5  12
ATOM     12  C6  <0> d           5.955   3.155  -0.638  0.00  0.00    -0.028 A 
ATOM     13  C11 <0> d           6.885   3.725  -1.487  0.00  0.00     0.012 A 
ATOM     14  C10 <0> d           7.876   2.944  -2.051  0.00  0.00     0.043 A 
ATOM     15  C9  <0> d           7.937   1.591  -1.766  0.00  0.00     0.116 A 
ATOM     16  C8  <0> d           7.004   1.021  -0.915  0.00  0.00     0.043 A 
ATOM     17  F1  <0> d           8.905   0.826  -2.316  0.00  0.00    -0.206 F 
ATOM     18  C7  <0> d           6.018   1.805  -0.347  0.00  0.00     0.012 A 
ENDBRANCH   5  12
ENDBRANCH   1   5
BRANCH   2  19
ATOM     19  C13 <0> d           1.164   3.180   0.007  0.00  0.00     0.033 A 
ATOM     20  C18 <0> d          -0.051   3.871   0.023  0.00  0.00     0.035 A 
ATOM     21  C17 <0> d          -1.241   3.163   0.030  0.00  0.00     0.049 A 
ATOM     22  C16 <0> d          -1.222   1.753   0.017  0.00  0.00     0.048 A 
ATOM     23  C19 <0> d          -2.668   3.548   0.046  0.00  0.00     0.261 A 
ATOM     24  C15 <0> d          -0.013   1.076   0.008  0.00  0.00     0.019 A 
ATOM     25  C20 <0> d          -2.640   1.330   0.034  0.00  0.00     0.261 A 
ATOM     26  C14 <0> d           1.176   1.785   0.000  0.00  0.00     0.018 A 
ATOM     27  N4  <0> d          -3.415   2.429   0.048  0.00  0.00    -0.284 N 
ATOM     28  O3  <0> d          -3.037   0.182   0.033  0.00  0.00    -0.267 OA
ATOM     29  C21 <0> d          -4.880   2.411   0.063  0.00  0.00     0.163 C 
ATOM     30  O2  <0> d          -3.095   4.685   0.057  0.00  0.00    -0.267 OA
ENDBRANCH   2  19
TORSDOF 4
