REMARK  6 active torsions:
REMARK  status: ('A' for Active; 'I' for Inactive)
REMARK    1  A    between atoms: C2_2  and  N1_4 
REMARK    2  A    between atoms: N1_4  and  C4_5 
REMARK    3  A    between atoms: C4_5  and  C6_7 
REMARK    4  A    between atoms: C4_5  and  C11_17 
REMARK    5  A    between atoms: C6_7  and  N2_8 
REMARK    6  A    between atoms: C9_11  and  C10_13 
ROOT
ATOM      1  C4  <0> d           0.064  -0.390   2.488  0.00  0.00     0.227 C 
ATOM      2  C5  <0> d          -1.012  -1.435   2.790  0.00  0.00     0.060 C 
ENDROOT
BRANCH   1   3
ATOM      3  N1  <0> d           0.680  -0.684   1.187  0.00  0.00    -0.051 N 
ATOM      4  H8  <0> d           1.198  -1.547   1.248  0.00  0.00     0.279 HD
ATOM      5  H16 <0> d           1.306   0.067   0.934  0.00  0.00     0.279 HD
BRANCH   3   6
ATOM      6  C2  <0> d          -0.368  -0.812   0.166  0.00  0.00     0.179 C 
ATOM      7  C1  <0> d          -1.035   0.547  -0.054  0.00  0.00     0.039 C 
ATOM      8  C3  <0> d           0.254  -1.293  -1.146  0.00  0.00     0.039 C 
ENDBRANCH   3   6
ENDBRANCH   1   3
BRANCH   1   9
ATOM      9  C6  <0> d           1.134  -0.429   3.580  0.00  0.00     0.200 C 
BRANCH   9  10
ATOM     10  N2  <0> d           0.535  -0.056   4.864  0.00  0.00    -0.277 N 
ATOM     11  N3  <0> d          -0.128   1.145   5.146  0.00  0.00    -0.168 NA
ATOM     12  C9  <0> d          -0.525   1.110   6.392  0.00  0.00     0.162 A 
ATOM     13  C8  <0> d          -0.118  -0.108   6.946  0.00  0.00     0.057 A 
ATOM     14  C7  <0> d           0.531  -0.806   5.986  0.00  0.00     0.114 A 
BRANCH  12  15
ATOM     15  C10 <0> d          -1.283   2.198   7.109  0.00  0.00     0.436 C 
ATOM     16  F1  <0> d          -0.377   3.084   7.702  0.00  0.00    -0.165 F 
ATOM     17  F2  <0> d          -2.082   2.891   6.193  0.00  0.00    -0.165 F 
ATOM     18  F3  <0> d          -2.093   1.628   8.097  0.00  0.00    -0.165 F 
ENDBRANCH  12  15
ENDBRANCH   9  10
ENDBRANCH   1   9
BRANCH   1  19
ATOM     19  C11 <0> d          -0.564   0.980   2.449  0.00  0.00     0.212 C 
ATOM     20  O1  <0> d          -1.683   1.151   2.900  0.00  0.00    -0.646 OA
ATOM     21  O2  <0> d           0.048   1.917   1.966  0.00  0.00    -0.646 OA
ENDBRANCH   1  19
TORSDOF 6
