REMARK  7 active torsions:
REMARK  status: ('A' for Active; 'I' for Inactive)
REMARK    1  A    between atoms: C2_2  and  C3_3 
REMARK    2  A    between atoms: C2_2  and  O2_8 
REMARK       I    between atoms: C3_3  and  N1_5 
REMARK    3  A    between atoms: O2_8  and  C6_9 
REMARK    4  A    between atoms: C6_9  and  C7_11 
REMARK    5  A    between atoms: C7_11  and  N2_12 
REMARK    6  A    between atoms: N2_12  and  S1_13 
REMARK    7  A    between atoms: S1_13  and  C8_16 
ROOT
ATOM      1  N2  <0> d          -3.440  -1.358   3.023  0.00  0.00    -0.306 N 
ATOM      2  H13 <0> d          -2.701  -1.338   3.651  0.00  0.00     0.172 HD
ENDROOT
BRANCH   1   3
ATOM      3  C7  <0> d          -3.187  -1.218   1.587  0.00  0.00     0.243 C 
BRANCH   3   4
ATOM      4  C6  <0> d          -1.789  -0.697   1.373  0.00  0.00     0.278 C 
ATOM      5  O3  <0> d          -1.078  -0.466   2.322  0.00  0.00    -0.263 OA
BRANCH   4   6
ATOM      6  O2  <0> d          -1.334  -0.489   0.127  0.00  0.00    -0.305 OA
BRANCH   6   7
ATOM      7  C2  <0> d           0.000   0.006  -0.003  0.00  0.00     0.219 C 
ATOM      8  C1  <0> d          -0.022   1.536  -0.005  0.00  0.00     0.050 C 
BRANCH   7   9
ATOM      9  C3  <0> d           0.597  -0.490  -1.295  0.00  0.00     0.248 C 
ATOM     10  O1  <0> d          -0.106  -1.041  -2.115  0.00  0.00    -0.270 OA
ATOM     11  N1  <0> d           1.911  -0.320  -1.539  0.00  0.00    -0.359 N 
ATOM     12  C4  <0> d           2.469  -0.696  -2.840  0.00  0.00     0.152 C 
ATOM     13  C5  <0> d           2.783   0.239  -0.502  0.00  0.00     0.152 C 
ENDBRANCH   7   9
ENDBRANCH   6   7
ENDBRANCH   4   6
ENDBRANCH   3   4
ENDBRANCH   1   3
BRANCH   1  14
ATOM     14  S1  <0> d          -4.989  -1.550   3.576  0.00  0.00     0.262 S 
ATOM     15  O4  <0> d          -4.904  -1.683   4.988  0.00  0.00    -0.200 OA
ATOM     16  O5  <0> d          -5.771  -0.541   2.952  0.00  0.00    -0.200 OA
BRANCH  14  17
ATOM     17  C8  <0> d          -5.575  -3.093   2.959  0.00  0.00     0.122 A 
ATOM     18  C13 <0> d          -5.387  -4.249   3.697  0.00  0.00     0.060 A 
ATOM     19  C12 <0> d          -5.851  -5.460   3.215  0.00  0.00     0.044 A 
ATOM     20 Cl1  <0> d          -4.575  -4.178   5.229  0.00  0.00    -0.083 Cl
ATOM     21  C11 <0> d          -6.493  -5.517   1.991  0.00  0.00     0.014 A 
ATOM     22  C10 <0> d          -6.676  -4.363   1.251  0.00  0.00     0.044 A 
ATOM     23 Br1  <0> d          -7.120  -7.173   1.329  0.00  0.00    -0.051 Br
ATOM     24  C9  <0> d          -6.217  -3.151   1.735  0.00  0.00     0.060 A 
ATOM     25 Cl2  <0> d          -6.447  -1.702   0.807  0.00  0.00    -0.083 Cl
ENDBRANCH  14  17
ENDBRANCH   1  14
TORSDOF 7
