REMARK  5 active torsions:
REMARK  status: ('A' for Active; 'I' for Inactive)
REMARK    1  A    between atoms: C3_3  and  C5_5 
REMARK    2  A    between atoms: C5_5  and  O2_7 
REMARK    3  A    between atoms: O2_7  and  C6_8 
REMARK    4  A    between atoms: C12_14  and  O4_20 
REMARK    5  A    between atoms: C15_17  and  O3_18 
ROOT
ATOM      1  C6  <0> d           1.986  -4.184  -1.508  0.00  0.00     0.151 C 
ATOM      2  C7  <0> d           0.623  -4.521  -2.079  0.00  0.00     0.083 C 
ATOM      3  C8  <0> d           0.604  -6.050  -2.359  0.00  0.00     0.144 C 
ATOM      4  C9  <0> d           1.386  -6.291  -3.633  0.00  0.00     0.045 C 
ATOM      5  C10 <0> d           2.602  -5.345  -3.646  0.00  0.00    -0.007 C 
ATOM      6  C11 <0> d           3.050  -5.024  -2.240  0.00  0.00     0.060 C 
ATOM      7  C12 <0> d           4.339  -4.196  -2.270  0.00  0.00     0.061 C 
ATOM      8  C13 <0> d           5.436  -4.950  -3.019  0.00  0.00     0.040 C 
ATOM      9  C14 <0> d           4.972  -5.193  -4.458  0.00  0.00     0.035 C 
ATOM     10  C15 <0> d           3.724  -6.062  -4.404  0.00  0.00     0.127 C 
ATOM     11  C16 <0> d           4.799  -3.924  -0.836  0.00  0.00     0.046 C 
ATOM     12  C17 <0> d           2.236  -4.051  -4.376  0.00  0.00     0.018 C 
ATOM     13  O5  <0> d          -0.800  -6.312  -2.416  0.00  0.00    -0.311 OA
ATOM     14  C18 <0> d          -1.361  -5.604  -1.395  0.00  0.00     0.289 C 
ATOM     15  O6  <0> d          -2.391  -5.899  -0.820  0.00  0.00    -0.260 OA
ATOM     16  C19 <0> d          -0.521  -4.400  -1.098  0.00  0.00     0.017 C 
ATOM     17  C20 <0> d          -0.722  -3.452  -0.186  0.00  0.00     0.025 C 
ENDROOT
BRANCH   1  18
ATOM     18  O2  <0> d           2.256  -2.794  -1.700  0.00  0.00    -0.311 OA
BRANCH  18  19
ATOM     19  C5  <0> d           2.214  -2.006  -0.608  0.00  0.00     0.289 C 
ATOM     20  O1  <0> d           2.051  -2.498   0.491  0.00  0.00    -0.260 OA
BRANCH  19  21
ATOM     21  C3  <0> d           2.366  -0.551  -0.746  0.00  0.00     0.009 C 
ATOM     22  C2  <0> d           2.324   0.228   0.333  0.00  0.00    -0.018 C 
ATOM     23  C1  <0> d           2.479   1.720   0.192  0.00  0.00     0.036 C 
ATOM     24  C4  <0> d           2.567   0.060  -2.108  0.00  0.00     0.054 C 
ENDBRANCH  19  21
ENDBRANCH  18  19
ENDBRANCH   1  18
BRANCH   7  25
ATOM     25  O4  <0> d           4.087  -2.952  -2.926  0.00  0.00    -0.390 OA
ATOM     26  H23 <0> d           4.859  -2.373  -2.982  0.00  0.00     0.210 HD
ENDBRANCH   7  25
BRANCH  10  27
ATOM     27  O3  <0> d           4.010  -7.306  -3.760  0.00  0.00    -0.395 OA
ATOM     28  H19 <0> d           4.713  -7.816  -4.185  0.00  0.00     0.210 HD
ENDBRANCH  10  27
TORSDOF 5
