REMARK  2 active torsions:
REMARK  status: ('A' for Active; 'I' for Inactive)
REMARK    1  A    between atoms: C7_7  and  N1_8 
REMARK    2  A    between atoms: C10_12  and  N2_15 
ROOT
ATOM      1  N1  <0> d           0.025  -0.013   2.419  0.00  0.00    -0.249 N 
ATOM      2  C8  <0> d           1.152   0.365   3.036  0.00  0.00     0.233 A 
ATOM      3  O1  <0> d           2.276   0.163   2.630  0.00  0.00    -0.273 OA
ATOM      4  C9  <0> d           0.799   1.085   4.319  0.00  0.00     0.146 A 
ATOM      5  C10 <0> d          -0.743   1.057   4.338  0.00  0.00     0.284 A 
ATOM      6  C11 <0> d          -1.100   0.329   3.060  0.00  0.00     0.262 A 
ATOM      7  O2  <0> d          -2.225   0.092   2.678  0.00  0.00    -0.270 OA
ENDROOT
BRANCH   1   8
ATOM      8  C7  <0> d           0.023  -0.705   1.200  0.00  0.00     0.057 A 
ATOM      9  C2  <0> d           0.002  -0.004   0.002  0.00  0.00    -0.034 A 
ATOM     10  C1  <0> d          -0.018   1.503   0.010  0.00  0.00     0.050 C 
ATOM     11  C3  <0> d           0.006  -0.689  -1.198  0.00  0.00     0.009 A 
ATOM     12  C4  <0> d           0.025  -2.071  -1.206  0.00  0.00     0.001 A 
ATOM     13  C5  <0> d           0.040  -2.773  -0.014  0.00  0.00     0.009 A 
ATOM     14  C6  <0> d           0.037  -2.093   1.188  0.00  0.00    -0.034 A 
ATOM     15  C12 <0> d           0.054  -2.858   2.487  0.00  0.00     0.050 C 
ENDBRANCH   1   8
BRANCH   5  16
ATOM     16  N2  <0> d          -1.285   2.422   4.322  0.00  0.00    -0.066 N 
ATOM     17  H10 <0> d          -0.976   2.897   3.486  0.00  0.00     0.275 HD
ATOM     18  H11 <0> d          -2.293   2.384   4.334  0.00  0.00     0.275 HD
ATOM     19  H15 <0> d          -0.957   2.924   5.134  0.00  0.00     0.275 HD
ENDBRANCH   5  16
TORSDOF 2
