REMARK  7 active torsions:
REMARK  status: ('A' for Active; 'I' for Inactive)
REMARK    1  A    between atoms: C2_2  and  C4_4 
REMARK    2  A    between atoms: C4_4  and  C5_5 
REMARK    3  A    between atoms: C4_4  and  N2_9 
REMARK    4  A    between atoms: C5_5  and  N1_6 
REMARK    5  A    between atoms: N2_9  and  S1_10 
REMARK    6  A    between atoms: S1_10  and  C8_13 
REMARK    7  A    between atoms: C11_16  and  N3_20 
ROOT
ATOM      1  S1  <0> d          -3.204   0.648  -1.696  0.00  0.00     0.262 S 
ATOM      2  O1  <0> d          -3.709   0.679  -3.024  0.00  0.00    -0.200 OA
ATOM      3  O2  <0> d          -3.895   0.007  -0.633  0.00  0.00    -0.200 OA
ENDROOT
BRANCH   1   4
ATOM      4  N2  <0> d          -1.705  -0.051  -1.776  0.00  0.00    -0.309 N 
ATOM      5  H17 <0> d          -1.353  -0.347  -2.630  0.00  0.00     0.172 HD
BRANCH   4   6
ATOM      6  C4  <0> d          -0.911  -0.223  -0.557  0.00  0.00     0.122 C 
BRANCH   6   7
ATOM      7  C2  <0> d           0.408   0.541  -0.696  0.00  0.00     0.002 C 
ATOM      8  C1  <0> d           0.118   2.036  -0.846  0.00  0.00     0.011 C 
ATOM      9  C3  <0> d           1.264   0.310   0.551  0.00  0.00     0.011 C 
ENDBRANCH   6   7
BRANCH   6  10
ATOM     10  C5  <0> d          -0.619  -1.709  -0.343  0.00  0.00     0.260 C 
BRANCH  10  11
ATOM     11  N1  <0> d          -1.885  -2.450  -0.264  0.00  0.00    -0.077 N 
ATOM     12  C6  <0> d          -1.607  -3.892  -0.218  0.00  0.00     0.269 C 
ATOM     13  C7  <0> d          -2.611  -2.052   0.949  0.00  0.00     0.269 C 
ATOM     14  H22 <0> d          -2.448  -2.242  -1.076  0.00  0.00     0.279 HD
ENDBRANCH  10  11
ENDBRANCH   6  10
ENDBRANCH   4   6
ENDBRANCH   1   4
BRANCH   1  15
ATOM     15  C8  <0> d          -2.971   2.325  -1.207  0.00  0.00     0.122 A 
ATOM     16  C13 <0> d          -2.647   3.281  -2.153  0.00  0.00     0.061 A 
ATOM     17  C12 <0> d          -2.469   4.598  -1.772  0.00  0.00     0.054 A 
ATOM     18 Cl1  <0> d          -2.470   2.828  -3.819  0.00  0.00    -0.083 Cl
ATOM     19  C11 <0> d          -2.606   4.959  -0.438  0.00  0.00     0.029 A 
ATOM     20  C10 <0> d          -2.926   3.996   0.510  0.00  0.00     0.054 A 
ATOM     21  C9  <0> d          -3.108   2.681   0.123  0.00  0.00     0.061 A 
ATOM     22 Cl2  <0> d          -3.508   1.477   1.307  0.00  0.00    -0.083 Cl
BRANCH  19  23
ATOM     23  N3  <0> d          -2.422   6.288  -0.050  0.00  0.00    -0.399 N 
ATOM     24  H20 <0> d          -2.518   6.539   0.882  0.00  0.00     0.156 HD
ATOM     25  H21 <0> d          -2.198   6.960  -0.713  0.00  0.00     0.156 HD
ENDBRANCH  19  23
ENDBRANCH   1  15
TORSDOF 7
