REMARK  7 active torsions:
REMARK  status: ('A' for Active; 'I' for Inactive)
REMARK    1  A    between atoms: C3_4  and  C5_7 
REMARK    2  A    between atoms: C5_7  and  N2_9 
REMARK    3  A    between atoms: N2_9  and  C7_10 
REMARK    4  A    between atoms: C7_10  and  C8_11 
REMARK    5  A    between atoms: C8_11  and  C9_12 
REMARK    6  A    between atoms: C9_12  and  S2_13 
REMARK    7  A    between atoms: S2_13  and  N3_16 
ROOT
ATOM      1  N2  <0> d          -3.176  -2.430  -0.582  0.00  0.00    -0.066 N 
ATOM      2  H9  <0> d          -3.457  -1.666   0.014  0.00  0.00     0.278 HD
ATOM      3  H18 <0> d          -2.947  -2.075  -1.499  0.00  0.00     0.278 HD
ENDROOT
BRANCH   1   4
ATOM      4  C5  <0> d          -1.999  -3.093  -0.006  0.00  0.00     0.233 C 
ATOM      5  C6  <0> d          -2.307  -3.521   1.431  0.00  0.00     0.047 C 
BRANCH   4   6
ATOM      6  C3  <0> d          -0.834  -2.137  -0.006  0.00  0.00     0.072 A 
ATOM      7  N1  <0> d          -1.013  -0.832   0.002  0.00  0.00    -0.248 NA
ATOM      8  C2  <0> d           0.002  -0.004   0.002  0.00  0.00     0.071 A 
ATOM      9  C1  <0> d          -0.018   1.503   0.010  0.00  0.00     0.078 C 
ATOM     10  S1  <0> d           1.335  -1.032  -0.017  0.00  0.00    -0.085 SA
ATOM     11  C4  <0> d           0.449  -2.582  -0.014  0.00  0.00     0.081 A 
ENDBRANCH   4   6
ENDBRANCH   1   4
BRANCH   1  12
ATOM     12  C7  <0> d          -4.277  -3.396  -0.692  0.00  0.00     0.234 C 
BRANCH  12  13
ATOM     13  C8  <0> d          -5.503  -2.705  -1.293  0.00  0.00     0.044 C 
BRANCH  13  14
ATOM     14  C9  <0> d          -6.650  -3.711  -1.408  0.00  0.00     0.164 C 
BRANCH  14  15
ATOM     15  S2  <0> d          -8.104  -2.893  -2.120  0.00  0.00     0.224 S 
ATOM     16  O1  <0> d          -8.620  -1.932  -1.209  0.00  0.00    -0.206 OA
ATOM     17  O2  <0> d          -7.855  -2.545  -3.475  0.00  0.00    -0.206 OA
BRANCH  15  18
ATOM     18  N3  <0> d          -9.264  -4.072  -2.192  0.00  0.00    -0.328 N 
ATOM     19  H16 <0> d         -10.201  -3.836  -2.115  0.00  0.00     0.168 HD
ATOM     20  H17 <0> d          -9.006  -5.000  -2.312  0.00  0.00     0.168 HD
ENDBRANCH  15  18
ENDBRANCH  14  15
ENDBRANCH  13  14
ENDBRANCH  12  13
ENDBRANCH   1  12
TORSDOF 7
