REMARK  3 active torsions:
REMARK  status: ('A' for Active; 'I' for Inactive)
REMARK    1  A    between atoms: C3_3  and  N1_9 
REMARK    2  A    between atoms: N1_9  and  C8_10 
REMARK    3  A    between atoms: C9_11  and  C11_14 
ROOT
ATOM      1  C8  <0> d          -0.006  -0.672  -3.602  0.00  0.00     0.110 C 
ATOM      2  C9  <0> d          -0.021   0.006  -4.767  0.00  0.00     0.079 C 
ATOM      3  C10 <0> d          -0.041   1.438  -4.762  0.00  0.00     0.100 C 
ATOM      4  N2  <0> d          -0.057   2.574  -4.758  0.00  0.00    -0.191 NA
ENDROOT
BRANCH   2   5
ATOM      5  C11 <0> d          -0.017  -0.743  -6.075  0.00  0.00     0.228 A 
ATOM      6  N4  <0> d          -1.220  -0.411  -6.849  0.00  0.00    -0.362 N 
ATOM      7  C17 <0> d          -0.829   0.128  -7.967  0.00  0.00     0.056 A 
ATOM      8  H15 <0> d          -2.138  -0.566  -6.577  0.00  0.00     0.162 HD
ATOM      9  C12 <0> d           0.659   0.183  -7.994  0.00  0.00     0.056 A 
ATOM     10  C16 <0> d          -1.556   0.657  -9.130  0.00  0.00     0.031 A 
ATOM     11  N3  <0> d           1.129  -0.325  -6.891  0.00  0.00    -0.362 N 
ATOM     12  C13 <0> d           1.302   0.761  -9.182  0.00  0.00     0.031 A 
ATOM     13  H14 <0> d           2.065  -0.410  -6.653  0.00  0.00     0.162 HD
ATOM     14  C14 <0> d           0.539   1.218 -10.195  0.00  0.00     0.002 A 
ATOM     15  C15 <0> d          -0.866   1.167 -10.169  0.00  0.00     0.002 A 
ENDBRANCH   2   5
BRANCH   1  16
ATOM     16  N1  <0> d          -0.010   0.010  -2.412  0.00  0.00    -0.364 N 
ATOM     17  H7  <0> d          -0.023   0.980  -2.409  0.00  0.00     0.165 HD
BRANCH  16  18
ATOM     18  C3  <0> d           0.006  -0.693  -1.204  0.00  0.00     0.039 A 
ATOM     19  C2  <0> d           0.002  -0.004   0.002  0.00  0.00    -0.014 A 
ATOM     20  C1  <0> d          -0.018   1.503   0.010  0.00  0.00     0.052 C 
ATOM     21  C7  <0> d           0.023  -0.702   1.194  0.00  0.00     0.042 A 
ATOM     22  C6  <0> d           0.035  -2.087   1.187  0.00  0.00     0.024 A 
ATOM     23 Cl1  <0> d           0.026   0.157   2.703  0.00  0.00    -0.084 Cl
ATOM     24  C5  <0> d           0.040  -2.774  -0.012  0.00  0.00     0.004 A 
ATOM     25  C4  <0> d           0.025  -2.082  -1.208  0.00  0.00     0.030 A 
ENDBRANCH  16  18
ENDBRANCH   1  16
TORSDOF 3
