REMARK  5 active torsions:
REMARK  status: ('A' for Active; 'I' for Inactive)
REMARK    1  A    between atoms: C5_5  and  N1_8 
REMARK    2  A    between atoms: C8_9  and  C18_24 
REMARK    3  A    between atoms: C9_12  and  S1_13 
REMARK    4  A    between atoms: S1_13  and  C10_14 
REMARK    5  A    between atoms: C10_14  and  C11_15 
ROOT
ATOM      1  N1  <0> d           0.117  -4.132  -0.053  0.00  0.00    -0.332 N 
ATOM      2  C8  <0> d           0.178  -5.006   1.132  0.00  0.00     0.208 C 
ATOM      3  N2  <0> d           0.189  -6.399   0.630  0.00  0.00    -0.232 NA
ATOM      4  N3  <0> d          -0.429  -6.312  -0.702  0.00  0.00    -0.227 NA
ATOM      5  C9  <0> d           0.087  -5.024  -1.230  0.00  0.00     0.237 C 
ATOM      6  H10 <0> d          -0.342  -7.006   1.236  0.00  0.00     0.143 HD
ATOM      7  H11 <0> d          -1.435  -6.293  -0.633  0.00  0.00     0.143 HD
ENDROOT
BRANCH   5   8
ATOM      8  S1  <0> d           1.757  -5.244  -1.903  0.00  0.00    -0.123 SA
BRANCH   8   9
ATOM      9  C10 <0> d           2.635  -6.164  -0.610  0.00  0.00     0.124 C 
BRANCH   9  10
ATOM     10  C11 <0> d           4.032  -6.537  -1.108  0.00  0.00     0.191 A 
ATOM     11  N5  <0> d           3.932  -7.372  -2.311  0.00  0.00    -0.366 N 
ATOM     12  C17 <0> d           4.527  -6.737  -3.279  0.00  0.00     0.056 A 
ATOM     13  H24 <0> d           3.502  -8.240  -2.373  0.00  0.00     0.162 HD
ATOM     14  C12 <0> d           5.054  -5.442  -2.768  0.00  0.00     0.056 A 
ATOM     15  C16 <0> d           4.750  -7.057  -4.696  0.00  0.00     0.031 A 
ATOM     16  N4  <0> d           4.765  -5.327  -1.504  0.00  0.00    -0.366 N 
ATOM     17  C13 <0> d           5.764  -4.570  -3.714  0.00  0.00     0.031 A 
ATOM     18  H23 <0> d           4.992  -4.580  -0.929  0.00  0.00     0.162 HD
ATOM     19  C14 <0> d           5.915  -4.961  -4.995  0.00  0.00     0.002 A 
ATOM     20  C15 <0> d           5.417  -6.184  -5.478  0.00  0.00     0.002 A 
ENDBRANCH   9  10
ENDBRANCH   8   9
ENDBRANCH   5   8
BRANCH   1  21
ATOM     21  C5  <0> d           0.088  -2.736  -0.061  0.00  0.00     0.033 A 
ATOM     22  C4  <0> d           0.150  -2.046  -1.265  0.00  0.00     0.030 A 
ATOM     23  C3  <0> d           0.120  -0.665  -1.270  0.00  0.00     0.009 A 
ATOM     24  C2  <0> d           0.029   0.030  -0.079  0.00  0.00    -0.062 A 
ATOM     25  C1  <0> d          -0.002   1.537  -0.088  0.00  0.00     0.048 C 
ATOM     26  C7  <0> d          -0.026  -0.653   1.122  0.00  0.00     0.009 A 
ATOM     27  C6  <0> d          -0.003  -2.034   1.134  0.00  0.00     0.030 A 
ENDBRANCH   1  21
BRANCH   2  28
ATOM     28  C18 <0> d           1.436  -4.728   1.915  0.00  0.00    -0.017 A 
ATOM     29  C22 <0> d           1.770  -5.497   3.019  0.00  0.00     0.029 A 
ATOM     30  C21 <0> d           2.934  -5.217   3.708  0.00  0.00     0.117 A 
ATOM     31  N6  <0> d           3.717  -4.224   3.333  0.00  0.00    -0.273 NA
ATOM     32  C20 <0> d           3.429  -3.468   2.292  0.00  0.00     0.117 A 
ATOM     33  C19 <0> d           2.284  -3.693   1.551  0.00  0.00     0.029 A 
ENDBRANCH   2  28
TORSDOF 5
