REMARK  6 active torsions:
REMARK  status: ('A' for Active; 'I' for Inactive)
REMARK    1  A    between atoms: C2_2  and  C3_4 
REMARK    2  A    between atoms: C8_9  and  N1_10 
REMARK       I    between atoms: N1_10  and  C9_11 
REMARK    3  A    between atoms: C9_11  and  C10_13 
REMARK    4  A    between atoms: C10_13  and  S1_14 
REMARK    5  A    between atoms: S1_14  and  C11_15 
REMARK    6  A    between atoms: C13_17  and  C20_25 
REMARK       I    between atoms: C20_25  and  N3_27 
ROOT
ATOM      1  C10 <0> d          -4.134  -1.775   0.113  0.00  0.00     0.184 C 
ENDROOT
BRANCH   1   2
ATOM      2  C9  <0> d          -5.580  -2.200   0.098  0.00  0.00     0.231 C 
ATOM      3  N1  <0> d          -6.556  -1.270   0.094  0.00  0.00    -0.326 N 
ATOM      4  H6  <0> d          -6.299  -0.204   0.012  0.00  0.00     0.169 HD
ATOM      5  O2  <0> d          -5.866  -3.379   0.090  0.00  0.00    -0.272 OA
BRANCH   3   6
ATOM      6  C8  <0> d          -7.889  -1.659   0.193  0.00  0.00     0.051 A 
ATOM      7  C3  <0> d          -8.887  -0.941  -0.491  0.00  0.00     0.039 A 
ATOM      8  C4  <0> d         -10.226  -1.345  -0.391  0.00  0.00     0.057 A 
ATOM      9  C5  <0> d         -10.560  -2.433   0.387  0.00  0.00     0.106 A 
ATOM     10  O5  <0> d         -11.767  -3.016   0.652  0.00  0.00    -0.323 OA
ATOM     11  C6  <0> d          -9.566  -3.140   1.070  0.00  0.00     0.107 A 
ATOM     12  C21 <0> d         -11.456  -4.324   1.167  0.00  0.00     0.352 C 
ATOM     13  O4  <0> d         -10.154  -4.160   1.758  0.00  0.00    -0.323 OA
ATOM     14  C7  <0> d          -8.239  -2.752   0.971  0.00  0.00     0.070 A 
BRANCH   7  15
ATOM     15  C2  <0> d          -8.528   0.219  -1.310  0.00  0.00     0.158 C 
ATOM     16  C1  <0> d          -9.582   0.917  -2.130  0.00  0.00     0.097 C 
ATOM     17  O1  <0> d          -7.382   0.617  -1.329  0.00  0.00    -0.293 OA
ENDBRANCH   7  15
ENDBRANCH   3   6
ENDBRANCH   1   2
BRANCH   1  18
ATOM     18  S1  <0> d          -3.075  -3.243   0.115  0.00  0.00    -0.101 SA
BRANCH  18  19
ATOM     19  C11 <0> d          -1.489  -2.475   0.132  0.00  0.00     0.095 A 
ATOM     20  N2  <0> d          -1.420  -1.162   0.139  0.00  0.00    -0.241 NA
ATOM     21  C19 <0> d          -0.255  -0.508   0.152  0.00  0.00     0.069 A 
ATOM     22  C14 <0> d           0.963  -1.232   0.160  0.00  0.00     0.008 A 
ATOM     23  C18 <0> d          -0.211   0.897   0.159  0.00  0.00     0.032 A 
ATOM     24  C13 <0> d           0.909  -2.695   0.153  0.00  0.00     0.047 A 
ATOM     25  C15 <0> d           2.181  -0.545   0.173  0.00  0.00     0.015 A 
ATOM     26  C12 <0> d          -0.344  -3.286   0.139  0.00  0.00     0.057 A 
ATOM     27  C16 <0> d           2.185   0.819   0.179  0.00  0.00     0.001 A 
ATOM     28  C17 <0> d           0.991   1.536   0.172  0.00  0.00     0.002 A 
BRANCH  24  29
ATOM     29  C20 <0> d           2.144  -3.509   0.160  0.00  0.00     0.250 C 
ATOM     30  O3  <0> d           3.229  -2.969   0.077  0.00  0.00    -0.268 OA
ATOM     31  N3  <0> d           2.065  -4.851   0.260  0.00  0.00    -0.366 N 
ATOM     32  H14 <0> d           2.983  -5.457   0.266  0.00  0.00     0.159 HD
ATOM     33  H15 <0> d           1.083  -5.340   0.336  0.00  0.00     0.159 HD
ENDBRANCH  24  29
ENDBRANCH  18  19
ENDBRANCH   1  18
TORSDOF 6
