REMARK  4 active torsions:
REMARK  status: ('A' for Active; 'I' for Inactive)
REMARK    1  A    between atoms: C5_6  and  C6_7 
REMARK       I    between atoms: C6_7  and  N1_9 
REMARK    2  A    between atoms: C8_11  and  C15_19 
REMARK       I    between atoms: C15_19  and  N3_21 
REMARK    3  A    between atoms: N3_21  and  C16_22 
REMARK    4  A    between atoms: C16_22  and  C18_24 
ROOT
ATOM      1  C6  <0> d           0.030  -0.284   2.560  0.00  0.00     0.261 C 
ATOM      2  O1  <0> d           0.119   0.905   2.803  0.00  0.00    -0.267 OA
ATOM      3  N1  <0> d          -0.050  -1.174   3.569  0.00  0.00    -0.346 N 
ATOM      4  C7  <0> d          -0.041  -2.653   3.479  0.00  0.00     0.141 C 
ATOM      5  C8  <0> d           0.813  -3.113   4.682  0.00  0.00     0.106 C 
ATOM      6  C9  <0> d           0.724  -1.955   5.691  0.00  0.00    -0.007 C 
ATOM      7  C10 <0> d          -0.162  -0.894   5.021  0.00  0.00     0.136 C 
ATOM      8  C11 <0> d           0.084  -2.435   6.990  0.00  0.00     0.039 C 
ATOM      9  C12 <0> d           0.060  -1.282   7.997  0.00  0.00     0.233 C 
ATOM     10  N2  <0> d           1.430  -0.817   8.246  0.00  0.00    -0.075 N 
ATOM     11  C13 <0> d           2.005  -0.272   7.010  0.00  0.00     0.233 C 
ATOM     12  C14 <0> d           2.112  -1.382   5.961  0.00  0.00     0.039 C 
ATOM     13  H17 <0> d           1.417  -0.099   8.954  0.00  0.00     0.277 HD
ATOM     14  H32 <0> d           1.994  -1.591   8.565  0.00  0.00     0.277 HD
ENDROOT
BRANCH   5  15
ATOM     15  C15 <0> d           0.245  -4.375   5.277  0.00  0.00     0.224 C 
ATOM     16  O2  <0> d          -0.932  -4.635   5.138  0.00  0.00    -0.273 OA
ATOM     17  N3  <0> d           1.044  -5.216   5.963  0.00  0.00    -0.352 N 
ATOM     18  H22 <0> d           1.985  -5.009   6.073  0.00  0.00     0.163 HD
BRANCH  17  19
ATOM     19  C16 <0> d           0.491  -6.444   6.541  0.00  0.00     0.117 C 
ATOM     20  C17 <0> d           0.484  -7.548   5.482  0.00  0.00     0.037 C 
BRANCH  19  21
ATOM     21  C18 <0> d           1.339  -6.874   7.710  0.00  0.00     0.014 A 
ATOM     22  C20 <0> d           2.737  -6.916   7.742  0.00  0.00     0.061 A 
ATOM     23  N5  <0> d           3.107  -7.336   8.924  0.00  0.00    -0.179 NA
ATOM     24  C21 <0> d           3.658  -6.538   6.610  0.00  0.00     0.073 C 
ATOM     25  N4  <0> d           1.954  -7.585   9.680  0.00  0.00    -0.282 N 
ATOM     26  C19 <0> d           0.883  -7.293   8.913  0.00  0.00     0.034 A 
ATOM     27  H3  <0> d           1.930  -7.910  10.594  0.00  0.00     0.189 HD
ATOM     28  C22 <0> d          -0.563  -7.414   9.322  0.00  0.00     0.070 C 
ENDBRANCH  19  21
ENDBRANCH  17  19
ENDBRANCH   5  15
BRANCH   1  29
ATOM     29  C5  <0> d           0.012  -0.749   1.170  0.00  0.00     0.078 A 
ATOM     30  C2  <0> d          -0.009  -0.004   0.000  0.00  0.00    -0.039 A 
ATOM     31  C1  <0> d          -0.013   1.502   0.009  0.00  0.00     0.050 C 
ATOM     32  C3  <0> d          -0.018  -0.729  -1.168  0.00  0.00     0.015 A 
ATOM     33  C4  <0> d          -0.012  -2.083  -1.103  0.00  0.00     0.051 A 
ATOM     34  S1  <0> d           0.006  -2.417   0.543  0.00  0.00    -0.096 SA
ENDBRANCH   1  29
TORSDOF 4
