REMARK  6 active torsions:
REMARK  status: ('A' for Active; 'I' for Inactive)
REMARK    1  A    between atoms: C2_2  and  N1_3 
REMARK    2  A    between atoms: C7_9  and  C11_15 
REMARK       I    between atoms: C11_15  and  N3_17 
REMARK    3  A    between atoms: N3_17  and  C12_18 
REMARK    4  A    between atoms: C12_18  and  C14_20 
REMARK    5  A    between atoms: C14_20  and  O4_22 
REMARK    6  A    between atoms: O4_22  and  C15_23 
ROOT
ATOM      1  N1  <0> d           0.688  -0.476  -1.203  0.00  0.00    -0.300 N 
ATOM      2  C3  <0> d          -0.023  -0.697  -2.331  0.00  0.00     0.196 A 
ATOM      3  O1  <0> d          -1.350  -0.487  -2.361  0.00  0.00    -0.171 OA
ATOM      4  C4  <0> d           0.664  -1.152  -3.476  0.00  0.00     0.047 A 
ATOM      5  C5  <0> d          -0.005  -1.402  -4.683  0.00  0.00     0.019 A 
ATOM      6  C6  <0> d           0.693  -1.840  -5.767  0.00  0.00     0.018 A 
ATOM      7  C7  <0> d           2.079  -2.045  -5.695  0.00  0.00     0.034 A 
ATOM      8  C8  <0> d           2.767  -1.807  -4.516  0.00  0.00     0.049 A 
ATOM      9  C9  <0> d           2.066  -1.355  -3.389  0.00  0.00     0.075 A 
ATOM     10  N2  <0> d           2.691  -1.111  -2.228  0.00  0.00    -0.220 NA
ATOM     11  C10 <0> d           2.015  -0.679  -1.174  0.00  0.00     0.202 A 
ATOM     12  S1  <0> d           2.864  -0.376   0.282  0.00  0.00    -0.038 SA
ENDROOT
BRANCH   7  13
ATOM     13  C11 <0> d           2.813  -2.523  -6.889  0.00  0.00     0.252 C 
ATOM     14  O2  <0> d           4.014  -2.703  -6.833  0.00  0.00    -0.268 OA
ATOM     15  N3  <0> d           2.150  -2.757  -8.039  0.00  0.00    -0.344 N 
ATOM     16  H10 <0> d           1.192  -2.614  -8.084  0.00  0.00     0.163 HD
BRANCH  15  17
ATOM     17  C12 <0> d           2.876  -3.229  -9.220  0.00  0.00     0.180 C 
ATOM     18  C13 <0> d           3.460  -2.032  -9.973  0.00  0.00     0.043 C 
BRANCH  17  19
ATOM     19  C14 <0> d           1.932  -3.979 -10.124  0.00  0.00     0.281 C 
ATOM     20  O3  <0> d           0.771  -4.106  -9.814  0.00  0.00    -0.263 OA
BRANCH  19  21
ATOM     21  O4  <0> d           2.380  -4.506 -11.275  0.00  0.00    -0.320 OA
BRANCH  21  22
ATOM     22  C15 <0> d           1.430  -5.203 -12.083  0.00  0.00     0.174 C 
ATOM     23  C16 <0> d           2.120  -5.728 -13.343  0.00  0.00     0.034 C 
ENDBRANCH  21  22
ENDBRANCH  19  21
ENDBRANCH  17  19
ENDBRANCH  15  17
ENDBRANCH   7  13
BRANCH   1  24
ATOM     24  C2  <0> d           0.002  -0.004   0.002  0.00  0.00     0.129 C 
ATOM     25  C1  <0> d          -0.019   1.526   0.010  0.00  0.00     0.027 C 
ENDBRANCH   1  24
TORSDOF 6
