REMARK  8 active torsions:
REMARK  status: ('A' for Active; 'I' for Inactive)
REMARK       I    between atoms: C2_2  and  N1_4 
REMARK    1  A    between atoms: N1_4  and  C3_5 
REMARK    2  A    between atoms: C7_9  and  C12_16 
REMARK    3  A    between atoms: C9_11  and  O2_12 
REMARK    4  A    between atoms: C12_16  and  O4_17 
REMARK    5  A    between atoms: O4_17  and  C13_18 
REMARK    6  A    between atoms: C13_18  and  C14_20 
REMARK    7  A    between atoms: C17_23  and  N2_28 
REMARK    8  A    between atoms: C19_25  and  O6_26 
ROOT
ATOM      1  C3  <0> d          -0.071  -2.064  -1.121  0.00  0.00     0.037 A 
ATOM      2  C4  <0> d          -0.140  -2.712   0.113  0.00  0.00     0.030 A 
ATOM      3  C5  <0> d          -0.216  -4.072   0.175  0.00  0.00     0.017 A 
ATOM      4  C6  <0> d          -0.211  -4.825  -1.005  0.00  0.00     0.006 A 
ATOM      5  C7  <0> d          -0.286  -6.287  -0.967  0.00  0.00    -0.016 A 
ATOM      6  C8  <0> d          -0.279  -6.961  -2.147  0.00  0.00     0.074 A 
ATOM      7  C9  <0> d          -0.200  -6.248  -3.361  0.00  0.00     0.183 A 
ATOM      8  O3  <0> d          -0.132  -4.908  -3.389  0.00  0.00    -0.287 OA
ATOM      9  C10 <0> d          -0.136  -4.178  -2.253  0.00  0.00     0.091 A 
ATOM     10  C11 <0> d          -0.065  -2.794  -2.300  0.00  0.00     0.067 A 
ENDROOT
BRANCH   5  11
ATOM     11  C12 <0> d          -0.370  -7.024   0.344  0.00  0.00     0.218 C 
BRANCH  11  12
ATOM     12  O4  <0> d          -0.433  -8.452   0.094  0.00  0.00    -0.313 OA
BRANCH  12  13
ATOM     13  C13 <0> d          -0.512  -9.260   1.171  0.00  0.00     0.296 C 
ATOM     14  O5  <0> d          -0.527  -8.782   2.288  0.00  0.00    -0.259 OA
BRANCH  13  15
ATOM     15  C14 <0> d          -0.579 -10.718   0.993  0.00  0.00     0.074 A 
ATOM     16  C19 <0> d          -0.656 -11.561   2.113  0.00  0.00     0.086 A 
ATOM     17  C18 <0> d          -0.724 -12.932   1.935  0.00  0.00     0.068 A 
ATOM     18  C17 <0> d          -0.706 -13.466   0.652  0.00  0.00     0.050 A 
ATOM     19  C16 <0> d          -0.625 -12.624  -0.458  0.00  0.00     0.061 A 
ATOM     20  C15 <0> d          -0.562 -11.270  -0.293  0.00  0.00     0.046 A 
ATOM     21 Cl1  <0> d          -0.603 -13.302  -2.056  0.00  0.00    -0.082 Cl
BRANCH  16  22
ATOM     22  O6  <0> d          -0.667 -11.035   3.363  0.00  0.00    -0.355 OA
ATOM     23  C20 <0> d          -0.747 -11.955   4.454  0.00  0.00     0.210 C 
ENDBRANCH  16  22
BRANCH  18  24
ATOM     24  N2  <0> d          -0.770 -14.843   0.474  0.00  0.00    -0.398 N 
ATOM     25  H16 <0> d          -0.834 -15.509   1.347  0.00  0.00     0.156 HD
ATOM     26  H17 <0> d          -0.756 -15.268  -0.541  0.00  0.00     0.156 HD
ENDBRANCH  18  24
ENDBRANCH  13  15
ENDBRANCH  12  13
ENDBRANCH  11  12
ENDBRANCH   5  11
BRANCH   7  27
ATOM     27  O2  <0> d          -0.194  -6.865  -4.412  0.00  0.00    -0.341 OA
ATOM     28  H18 <0> d          -0.133  -6.323  -5.367  0.00  0.00     0.220 HD
ENDBRANCH   7  27
BRANCH   1  29
ATOM     29  N1  <0> d           0.000  -0.672  -1.169  0.00  0.00    -0.327 N 
ATOM     30  C2  <0> d          -0.606  -0.000  -2.168  0.00  0.00     0.218 C 
ATOM     31  C1  <0> d          -0.617   1.507  -2.165  0.00  0.00     0.117 C 
ATOM     32  O1  <0> d          -1.141  -0.609  -3.070  0.00  0.00    -0.274 OA
ATOM     33  H4  <0> d           0.550  -0.122  -0.391  0.00  0.00     0.169 HD
ENDBRANCH   1  29
TORSDOF 8
