REMARK  2 active torsions:
REMARK  status: ('A' for Active; 'I' for Inactive)
REMARK    1  A    between atoms: C5_6  and  N3_8 
REMARK    2  A    between atoms: N4_25  and  C20_26 
ROOT
ATOM      1  N3  <0> d           0.051  -2.675   2.335  0.00  0.00    -0.179 N 
ATOM      2  C6  <0> d           0.073  -3.946   2.316  0.00  0.00     0.084 C 
ATOM      3  C7  <0> d           0.046  -4.872   3.488  0.00  0.00     0.060 C 
ATOM      4  C8  <0> d           0.179  -4.125   4.811  0.00  0.00     0.093 C 
ATOM      5  C9  <0> d           1.639  -3.857   5.160  0.00  0.00     0.189 C 
ATOM      6  C10 <0> d           2.574  -4.420   4.122  0.00  0.00     0.180 C 
ATOM      7  O1  <0> d           2.967  -5.566   4.208  0.00  0.00    -0.290 OA
ATOM      8  C11 <0> d           2.988  -3.605   3.050  0.00  0.00    -0.004 C 
ATOM      9  C12 <0> d           3.970  -4.074   2.224  0.00  0.00     0.011 C 
ATOM     10  C13 <0> d           4.482  -3.219   1.158  0.00  0.00    -0.003 C 
ATOM     11  C14 <0> d           4.252  -1.905   1.174  0.00  0.00    -0.026 C 
ATOM     12  C15 <0> d           3.472  -1.287   2.309  0.00  0.00     0.038 C 
ATOM     13  C16 <0> d           2.393  -2.265   2.767  0.00  0.00     0.052 C 
ATOM     14  C17 <0> d           1.581  -1.677   3.912  0.00  0.00     0.143 C 
ATOM     15  C18 <0> d           0.045  -1.885   3.578  0.00  0.00     0.201 C 
ATOM     16  C19 <0> d          -0.532  -2.786   4.662  0.00  0.00     0.159 C 
ATOM     17  O2  <0> d          -1.472  -2.466   5.349  0.00  0.00    -0.295 OA
ATOM     18  N4  <0> d           1.846  -2.393   5.179  0.00  0.00    -0.194 N 
ENDROOT
BRANCH   1  19
ATOM     19  C5  <0> d           0.035  -2.006   1.139  0.00  0.00     0.729 A 
ATOM     20  N1  <0> d           0.040  -2.700   0.008  0.00  0.00    -0.068 NA
ATOM     21  C4  <0> d           0.025  -2.086  -1.162  0.00  0.00     0.051 A 
ATOM     22  C3  <0> d           0.006  -0.699  -1.198  0.00  0.00     0.054 A 
ATOM     23  C26 <0> d           0.030  -2.881  -2.442  0.00  0.00     0.071 C 
ATOM     24  C2  <0> d           0.002  -0.004   0.002  0.00  0.00     0.051 A 
ATOM     25  C1  <0> d          -0.018   1.503   0.010  0.00  0.00     0.071 C 
ATOM     26  N2  <0> d           0.022  -0.679   1.138  0.00  0.00    -0.068 NA
ENDBRANCH   1  19
BRANCH  18  27
ATOM     27  C20 <0> d           2.278  -1.739   6.319  0.00  0.00     0.726 A 
ATOM     28  N6  <0> d           2.511  -2.442   7.419  0.00  0.00    -0.068 NA
ATOM     29  C23 <0> d           2.929  -1.848   8.524  0.00  0.00     0.051 A 
ATOM     30  C22 <0> d           3.113  -0.474   8.526  0.00  0.00     0.054 A 
ATOM     31  C24 <0> d           3.197  -2.655   9.769  0.00  0.00     0.071 C 
ATOM     32  C21 <0> d           2.856   0.230   7.361  0.00  0.00     0.051 A 
ATOM     33  N5  <0> d           2.444  -0.425   6.288  0.00  0.00    -0.068 NA
ATOM     34  C25 <0> d           3.042   1.725   7.316  0.00  0.00     0.071 C 
ENDBRANCH  18  27
TORSDOF 2
