REMARK  3 active torsions:
REMARK  status: ('A' for Active; 'I' for Inactive)
REMARK    1  A    between atoms: C4_4  and  C7_8 
REMARK    2  A    between atoms: C7_8  and  N1_9 
REMARK    3  A    between atoms: N1_9  and  C8_10 
ROOT
ATOM      1  N1  <0> d           4.268  -0.747   1.317  0.00  0.00    -0.369 N 
ATOM      2  H6  <0> d           3.788  -0.331   2.050  0.00  0.00     0.161 HD
ENDROOT
BRANCH   1   3
ATOM      3  C7  <0> d           3.711  -0.711  -0.037  0.00  0.00     0.163 C 
BRANCH   3   4
ATOM      4  C4  <0> d           2.397   0.026  -0.021  0.00  0.00    -0.001 A 
ATOM      5  C3  <0> d           2.379   1.411  -0.013  0.00  0.00     0.124 A 
ATOM      6  C2  <0> d           1.171   2.086   0.002  0.00  0.00     0.044 A 
ATOM      7  F1  <0> d           3.539   2.102  -0.021  0.00  0.00    -0.205 F 
ATOM      8  C1  <0> d          -0.017   1.379   0.010  0.00  0.00     0.022 A 
ATOM      9  C6  <0> d           0.002  -0.004   0.002  0.00  0.00     0.011 A 
ATOM     10  C5  <0> d           1.209  -0.680  -0.013  0.00  0.00     0.031 A 
ATOM     11 Br1  <0> d          -1.623  -0.971   0.013  0.00  0.00    -0.051 Br
ENDBRANCH   3   4
ENDBRANCH   1   3
BRANCH   1  12
ATOM     12  C8  <0> d           5.479  -1.375   1.551  0.00  0.00     0.146 A 
ATOM     13  N3  <0> d           6.002  -1.413   2.809  0.00  0.00    -0.175 N 
ATOM     14  C11 <0> d           7.201  -2.044   3.020  0.00  0.00     0.195 A 
ATOM     15  N4  <0> d           5.605  -0.939   4.063  0.00  0.00    -0.037 NA
ATOM     16  C10 <0> d           7.863  -2.627   1.927  0.00  0.00     0.170 A 
ATOM     17  N6  <0> d           7.462  -1.935   4.314  0.00  0.00    -0.107 NA
ATOM     18  N2  <0> d           7.327  -2.564   0.730  0.00  0.00    -0.265 NA
ATOM     19  C9  <0> d           6.162  -1.957   0.522  0.00  0.00     0.166 A 
ATOM     20  N5  <0> d           6.524  -1.281   4.903  0.00  0.00    -0.022 NA
ENDBRANCH   1  12
TORSDOF 3
