REMARK  3 active torsions:
REMARK  status: ('A' for Active; 'I' for Inactive)
REMARK    1  A    between atoms: C7_11  and  C8_13 
REMARK    2  A    between atoms: C8_13  and  S2_15 
REMARK    3  A    between atoms: S2_15  and  C10_16 
ROOT
ATOM      1  C1  <0> d          -0.018   1.503   0.010  0.00  0.00     0.050 C 
ATOM      2  C2  <0> d           0.002  -0.004   0.002  0.00  0.00    -0.031 A 
ATOM      3  C3  <0> d           0.006  -0.677  -1.160  0.00  0.00    -0.012 A 
ATOM      4  S1  <0> d           0.032  -2.385  -0.648  0.00  0.00    -0.074 SA
ATOM      5  C4  <0> d           0.037  -2.144   1.110  0.00  0.00     0.116 A 
ATOM      6  C5  <0> d           0.024  -0.745   1.250  0.00  0.00     0.075 A 
ATOM      7  C6  <0> d           0.029  -0.257   2.597  0.00  0.00     0.260 A 
ATOM      8  O1  <0> d           0.014   0.942   2.821  0.00  0.00    -0.267 OA
ATOM      9  N1  <0> d           0.051  -1.142   3.611  0.00  0.00    -0.310 N 
ATOM     10  H1  <0> d           0.054  -0.817   4.525  0.00  0.00     0.170 HD
ATOM     11  C7  <0> d           0.067  -2.480   3.380  0.00  0.00     0.122 A 
ATOM     12  N2  <0> d           0.053  -2.956   2.163  0.00  0.00    -0.226 NA
ATOM     13  C13 <0> d          -0.009  -0.122  -2.561  0.00  0.00     0.057 C 
ENDROOT
BRANCH  11  14
ATOM     14  C8  <0> d           0.090  -3.432   4.547  0.00  0.00     0.121 C 
ATOM     15  C9  <0> d           1.535  -3.832   4.850  0.00  0.00     0.030 C 
BRANCH  14  16
ATOM     16  S2  <0> d          -0.631  -2.623   6.002  0.00  0.00    -0.078 SA
BRANCH  16  17
ATOM     17  C10 <0> d          -0.668  -3.894   7.222  0.00  0.00     0.191 A 
ATOM     18  N5  <0> d          -1.129  -3.777   8.502  0.00  0.00    -0.322 N 
ATOM     19  C11 <0> d          -0.963  -5.011   9.069  0.00  0.00     0.235 A 
ATOM     20  C12 <0> d          -1.689  -2.581   9.135  0.00  0.00     0.159 C 
ATOM     21  N4  <0> d          -0.429  -5.784   8.167  0.00  0.00    -0.143 NA
ATOM     22  N3  <0> d          -0.252  -5.130   7.074  0.00  0.00    -0.123 NA
ENDBRANCH  16  17
ENDBRANCH  14  16
ENDBRANCH  11  14
TORSDOF 3
