REMARK  3 active torsions:
REMARK  status: ('A' for Active; 'I' for Inactive)
REMARK    1  A    between atoms: C12_14  and  C13_16 
REMARK    2  A    between atoms: C13_16  and  C14_17 
REMARK    3  A    between atoms: N4_28  and  C24_31 
ROOT
ATOM      1  C1  <0> d           1.054   1.685   0.836  0.00  0.00     0.050 C 
ATOM      2  C2  <0> d           0.859   0.205   0.628  0.00  0.00    -0.035 A 
ATOM      3  C3  <0> d           0.870  -0.318  -0.649  0.00  0.00     0.009 A 
ATOM      4  C4  <0> d           0.692  -1.674  -0.850  0.00  0.00     0.001 A 
ATOM      5  C5  <0> d           0.502  -2.512   0.235  0.00  0.00     0.012 A 
ATOM      6  C6  <0> d           0.491  -1.995   1.511  0.00  0.00     0.018 A 
ATOM      7  C7  <0> d           0.673  -0.632   1.726  0.00  0.00     0.050 A 
ATOM      8  N1  <0> d           0.624  -0.347   3.092  0.00  0.00    -0.324 N 
ATOM      9  C8  <0> d           0.420  -1.453   3.834  0.00  0.00     0.267 A 
ATOM     10  O1  <0> d           0.329  -1.507   5.043  0.00  0.00    -0.270 OA
ATOM     11  C9  <0> d           0.315  -2.605   2.873  0.00  0.00     0.279 A 
ATOM     12  C10 <0> d          -1.027  -3.336   2.996  0.00  0.00     0.147 A 
ATOM     13  C11 <0> d          -0.723  -4.561   3.903  0.00  0.00     0.129 A 
ATOM     14  C12 <0> d           0.779  -4.443   4.237  0.00  0.00     0.240 C 
ATOM     15  N2  <0> d           1.353  -3.615   3.152  0.00  0.00     0.114 N 
ATOM     16  C22 <0> d          -1.545  -4.288   5.143  0.00  0.00     0.238 A 
ATOM     17  O2  <0> d          -1.601  -5.005   6.119  0.00  0.00    -0.272 OA
ATOM     18  N4  <0> d          -2.202  -3.131   4.995  0.00  0.00    -0.252 N 
ATOM     19  C23 <0> d          -1.989  -2.506   3.815  0.00  0.00     0.239 A 
ATOM     20  O3  <0> d          -2.481  -1.455   3.465  0.00  0.00    -0.272 OA
ATOM     21  H10 <0> d           0.726   0.543   3.464  0.00  0.00     0.169 HD
ATOM     22  H11 <0> d           1.536  -4.181   2.337  0.00  0.00     0.318 HD
ENDROOT
BRANCH  14  23
ATOM     23  C13 <0> d           1.427  -5.829   4.274  0.00  0.00     0.073 C 
BRANCH  23  24
ATOM     24  C14 <0> d           2.860  -5.702   4.721  0.00  0.00    -0.048 A 
ATOM     25  C21 <0> d           4.059  -5.390   3.853  0.00  0.00     0.155 A 
ATOM     26  N3  <0> d           5.216  -5.374   4.755  0.00  0.00    -0.385 N 
ATOM     27  C20 <0> d           4.802  -5.641   5.970  0.00  0.00     0.038 A 
ATOM     28  H25 <0> d           6.134  -5.200   4.496  0.00  0.00     0.160 HD
ATOM     29  C15 <0> d           3.336  -5.849   5.978  0.00  0.00    -0.006 A 
ATOM     30  C19 <0> d           5.498  -5.752   7.205  0.00  0.00     0.030 A 
ATOM     31  C16 <0> d           2.686  -6.159   7.257  0.00  0.00     0.014 A 
ATOM     32  C17 <0> d           3.443  -6.242   8.375  0.00  0.00     0.001 A 
ATOM     33  C18 <0> d           4.830  -6.040   8.342  0.00  0.00     0.002 A 
ENDBRANCH  23  24
ENDBRANCH  14  23
BRANCH  18  34
ATOM     34  C24 <0> d          -3.051  -2.610   5.981  0.00  0.00     0.045 A 
ATOM     35  C29 <0> d          -4.417  -2.527   5.751  0.00  0.00     0.030 A 
ATOM     36  C28 <0> d          -5.251  -2.018   6.727  0.00  0.00     0.002 A 
ATOM     37  C27 <0> d          -4.725  -1.581   7.929  0.00  0.00     0.000 A 
ATOM     38  C26 <0> d          -3.364  -1.657   8.159  0.00  0.00     0.002 A 
ATOM     39  C25 <0> d          -2.525  -2.170   7.189  0.00  0.00     0.030 A 
ENDBRANCH  18  34
TORSDOF 3
