REMARK  5 active torsions:
REMARK  status: ('A' for Active; 'I' for Inactive)
REMARK    1  A    between atoms: C3_3  and  C10_13 
REMARK    2  A    between atoms: C10_13  and  C11_14 
REMARK       I    between atoms: C11_14  and  N2_16 
REMARK    3  A    between atoms: N2_16  and  C12_17 
REMARK    4  A    between atoms: C12_17  and  C14_19 
REMARK    5  A    between atoms: C17_22  and  O2_26 
ROOT
ATOM      1  C11 <0> d           1.409  -0.102  -3.011  0.00  0.00     0.222 C 
ATOM      2  O1  <0> d           2.338  -0.343  -2.269  0.00  0.00    -0.273 OA
ATOM      3  N2  <0> d           1.643   0.328  -4.267  0.00  0.00    -0.353 N 
ATOM      4  H11 <0> d           0.900   0.520  -4.860  0.00  0.00     0.163 HD
ENDROOT
BRANCH   1   5
ATOM      5  C10 <0> d          -0.006  -0.283  -2.528  0.00  0.00     0.144 C 
BRANCH   5   6
ATOM      6  C3  <0> d           0.007  -0.769  -1.101  0.00  0.00    -0.015 A 
ATOM      7  C2  <0> d           0.002  -0.004   0.002  0.00  0.00     0.013 A 
ATOM      8  C1  <0> d          -0.018   1.503   0.010  0.00  0.00     0.068 C 
ATOM      9  N1  <0> d           0.024  -0.795   1.118  0.00  0.00    -0.359 N 
ATOM     10  C9  <0> d           0.036  -2.123   0.750  0.00  0.00     0.043 A 
ATOM     11  H1  <0> d           0.028  -0.470   2.032  0.00  0.00     0.166 HD
ATOM     12  C4  <0> d           0.029  -2.164  -0.656  0.00  0.00     0.002 A 
ATOM     13  C8  <0> d           0.056  -3.314   1.469  0.00  0.00     0.033 A 
ATOM     14  C5  <0> d           0.043  -3.393  -1.318  0.00  0.00     0.056 A 
ATOM     15  C6  <0> d           0.063  -4.561  -0.587  0.00  0.00     0.117 A 
ATOM     16  C7  <0> d           0.069  -4.519   0.802  0.00  0.00     0.044 A 
ATOM     17  F1  <0> d           0.075  -5.753  -1.224  0.00  0.00    -0.206 F 
ENDBRANCH   5   6
ENDBRANCH   1   5
BRANCH   3  18
ATOM     18  C12 <0> d           3.020   0.504  -4.736  0.00  0.00     0.113 C 
ATOM     19  C13 <0> d           3.526   1.888  -4.324  0.00  0.00     0.037 C 
BRANCH  18  20
ATOM     20  C14 <0> d           3.058   0.381  -6.237  0.00  0.00    -0.034 A 
ATOM     21  C19 <0> d           4.102  -0.290  -6.848  0.00  0.00     0.031 A 
ATOM     22  C18 <0> d           4.136  -0.409  -8.225  0.00  0.00     0.044 A 
ATOM     23  C17 <0> d           3.128   0.155  -8.994  0.00  0.00     0.085 A 
ATOM     24 Br1  <0> d           5.559  -1.334  -9.060  0.00  0.00    -0.048 Br
ATOM     25  C16 <0> d           2.086   0.832  -8.379  0.00  0.00     0.039 A 
ATOM     26  C15 <0> d           2.053   0.944  -7.002  0.00  0.00     0.012 A 
BRANCH  23  27
ATOM     27  O2  <0> d           3.162   0.044 -10.348  0.00  0.00    -0.355 OA
ATOM     28  C20 <0> d           2.090   0.648 -11.076  0.00  0.00     0.210 C 
ENDBRANCH  23  27
ENDBRANCH  18  20
ENDBRANCH   3  18
TORSDOF 5
