REMARK  7 active torsions:
REMARK  status: ('A' for Active; 'I' for Inactive)
REMARK    1  A    between atoms: N1_2  and  C2_3 
REMARK    2  A    between atoms: N1_2  and  C13_15 
REMARK    3  A    between atoms: C2_3  and  C3_4 
REMARK    4  A    between atoms: C8_9  and  C9_10 
REMARK    5  A    between atoms: C9_10  and  N2_11 
REMARK    6  A    between atoms: N2_11  and  C10_12 
REMARK    7  A    between atoms: C13_15  and  C14_16 
ROOT
ATOM      1  C3  <0> d          -2.067  -0.116  -1.267  0.00  0.00    -0.025 A 
ATOM      2  C4  <0> d          -2.918   0.973  -1.284  0.00  0.00     0.009 A 
ATOM      3  C5  <0> d          -3.553   1.337  -2.457  0.00  0.00     0.001 A 
ATOM      4  C6  <0> d          -3.335   0.611  -3.613  0.00  0.00     0.001 A 
ATOM      5  C7  <0> d          -2.484  -0.477  -3.597  0.00  0.00     0.009 A 
ATOM      6  C8  <0> d          -1.846  -0.838  -2.424  0.00  0.00    -0.025 A 
ENDROOT
BRANCH   1   7
ATOM      7  C2  <0> d          -1.376  -0.512   0.012  0.00  0.00     0.273 C 
BRANCH   7   8
ATOM      8  N1  <0> d           0.002  -0.004   0.002  0.00  0.00    -0.067 N 
ATOM      9  C1  <0> d          -0.018   1.465   0.010  0.00  0.00     0.270 C 
ATOM     10  H23 <0> d           0.474  -0.330  -0.828  0.00  0.00     0.280 HD
BRANCH   8  11
ATOM     11  C13 <0> d           0.713  -0.491   1.192  0.00  0.00     0.273 C 
BRANCH  11  12
ATOM     12  C14 <0> d           2.158  -0.072   1.120  0.00  0.00    -0.024 A 
ATOM     13  C17 <0> d           2.559   1.111   1.647  0.00  0.00     0.059 A 
ATOM     14  S1  <0> d           4.309   1.098   1.297  0.00  0.00    -0.094 SA
ATOM     15  C16 <0> d           4.388  -0.479   0.463  0.00  0.00     0.051 A 
ATOM     16  C15 <0> d           3.095  -0.886   0.511  0.00  0.00     0.036 A 
ATOM     17 Br1  <0> d           5.885  -1.355  -0.289  0.00  0.00    -0.043 Br
ENDBRANCH  11  12
ENDBRANCH   8  11
ENDBRANCH   7   8
ENDBRANCH   1   7
BRANCH   6  18
ATOM     18  C9  <0> d          -0.914  -2.022  -2.407  0.00  0.00     0.271 C 
BRANCH  18  19
ATOM     19  N2  <0> d          -1.615  -3.190  -1.856  0.00  0.00    -0.067 N 
ATOM     20  H12 <0> d          -1.918  -2.987  -0.915  0.00  0.00     0.277 HD
ATOM     21  H22 <0> d          -2.417  -3.402  -2.430  0.00  0.00     0.277 HD
BRANCH  19  22
ATOM     22  C10 <0> d          -0.706  -4.344  -1.840  0.00  0.00     0.186 A 
ATOM     23  C12 <0> d          -1.213  -5.633  -1.191  0.00  0.00     0.035 A 
ATOM     24  C11 <0> d          -1.074  -5.546  -2.712  0.00  0.00     0.035 A 
ENDBRANCH  19  22
ENDBRANCH  18  19
ENDBRANCH   6  18
TORSDOF 7
