REMARK  4 active torsions:
REMARK  status: ('A' for Active; 'I' for Inactive)
REMARK    1  A    between atoms: C5_5  and  N3_21 
REMARK    2  A    between atoms: C7_7  and  S1_8 
REMARK    3  A    between atoms: S1_8  and  N1_11 
REMARK    4  A    between atoms: N1_11  and  C8_12 
ROOT
ATOM      1  S1  <0> d          -0.008  -0.096   2.664  0.00  0.00     0.259 S 
ATOM      2  O1  <0> d          -1.244   0.606   2.662  0.00  0.00    -0.201 OA
ATOM      3  O2  <0> d           0.258  -1.168   3.558  0.00  0.00    -0.201 OA
ENDROOT
BRANCH   1   4
ATOM      4  C7  <0> d           0.213  -0.731   1.035  0.00  0.00     0.087 A 
ATOM      5  C2  <0> d           1.359  -1.436   0.719  0.00  0.00    -0.039 A 
ATOM      6  C1  <0> d           2.417  -1.661   1.768  0.00  0.00     0.050 C 
ATOM      7  C3  <0> d           1.534  -1.941  -0.557  0.00  0.00     0.010 A 
ATOM      8  C4  <0> d           0.566  -1.737  -1.520  0.00  0.00     0.029 A 
ATOM      9  C5  <0> d          -0.584  -1.024  -1.207  0.00  0.00     0.027 A 
ATOM     10  C6  <0> d          -0.757  -0.518   0.075  0.00  0.00     0.054 A 
BRANCH   9  11
ATOM     11  N3  <0> d          -1.565  -0.816  -2.180  0.00  0.00    -0.399 N 
ATOM     12  H22 <0> d          -1.443  -1.169  -3.075  0.00  0.00     0.156 HD
ATOM     13  H23 <0> d          -2.368  -0.318  -1.960  0.00  0.00     0.156 HD
ENDBRANCH   9  11
ENDBRANCH   1   4
BRANCH   1  14
ATOM     14  N1  <0> d           1.177   1.034   2.914  0.00  0.00    -0.308 N 
ATOM     15  H9  <0> d           1.844   0.893   3.604  0.00  0.00     0.172 HD
BRANCH  14  16
ATOM     16  C8  <0> d           1.217   2.247   2.094  0.00  0.00     0.125 C 
ATOM     17  C11 <0> d           2.668   2.675   1.816  0.00  0.00     0.211 C 
ATOM     18  N2  <0> d           2.514   4.117   1.486  0.00  0.00    -0.065 N 
ATOM     19  C12 <0> d           3.285   1.992   0.603  0.00  0.00     0.035 C 
ATOM     20  C10 <0> d           1.591   4.646   2.491  0.00  0.00     0.237 C 
ATOM     21  C15 <0> d           3.836   4.723   1.451  0.00  0.00     0.235 C 
ATOM     22  H24 <0> d           2.089   4.192   0.573  0.00  0.00     0.280 HD
ATOM     23  C9  <0> d           0.665   3.468   2.880  0.00  0.00     0.055 C 
ATOM     24  C14 <0> d           4.602   4.113   0.264  0.00  0.00     0.028 C 
ATOM     25  C13 <0> d           4.684   2.593   0.397  0.00  0.00     0.004 C 
ENDBRANCH  14  16
ENDBRANCH   1  14
TORSDOF 4
