REMARK  7 active torsions:
REMARK  status: ('A' for Active; 'I' for Inactive)
REMARK    1  A    between atoms: N1_4  and  C6_7 
REMARK    2  A    between atoms: C9_13  and  N2_14 
REMARK       I    between atoms: N2_14  and  C10_15 
REMARK    3  A    between atoms: C10_15  and  C11_17 
REMARK    4  A    between atoms: C11_17  and  C12_18 
REMARK    5  A    between atoms: C12_18  and  C13_19 
REMARK    6  A    between atoms: C13_19  and  N3_20 
REMARK       I    between atoms: N3_20  and  C14_21 
REMARK    7  A    between atoms: C14_21  and  C15_23 
ROOT
ATOM      1  C6  <0> d           2.930  -0.516  -2.289  0.00  0.00     0.225 C 
ATOM      2  C7  <0> d           4.390   0.010  -2.212  0.00  0.00     0.175 C 
ATOM      3  S1  <0> d           5.227  -1.247  -3.275  0.00  0.00     0.148 S 
ATOM      4  O1  <0> d           6.541  -1.475  -2.784  0.00  0.00    -0.228 OA
ATOM      5  O2  <0> d           5.037  -0.905  -4.641  0.00  0.00    -0.228 OA
ATOM      6  C8  <0> d           4.165  -2.692  -2.858  0.00  0.00     0.167 C 
ATOM      7  C9  <0> d           2.915  -2.043  -2.236  0.00  0.00     0.130 C 
ENDROOT
BRANCH   7   8
ATOM      8  N2  <0> d           2.814  -2.462  -0.836  0.00  0.00    -0.353 N 
ATOM      9  C10 <0> d           2.290  -3.665  -0.529  0.00  0.00     0.218 C 
ATOM     10  O3  <0> d           1.901  -4.400  -1.412  0.00  0.00    -0.274 OA
ATOM     11  H17 <0> d           3.126  -1.875  -0.130  0.00  0.00     0.162 HD
BRANCH   9  12
ATOM     12  C11 <0> d           2.186  -4.097   0.911  0.00  0.00     0.104 C 
BRANCH  12  13
ATOM     13  C12 <0> d           1.560  -5.491   0.982  0.00  0.00     0.029 C 
BRANCH  13  14
ATOM     14  C13 <0> d           1.455  -5.929   2.444  0.00  0.00     0.123 C 
BRANCH  14  15
ATOM     15  N3  <0> d           0.855  -7.264   2.512  0.00  0.00    -0.361 N 
ATOM     16  C14 <0> d           0.663  -7.857   3.707  0.00  0.00     0.221 C 
ATOM     17  O4  <0> d           0.987  -7.285   4.726  0.00  0.00    -0.273 OA
ATOM     18  H24 <0> d           0.596  -7.722   1.697  0.00  0.00     0.162 HD
BRANCH  16  19
ATOM     19  C15 <0> d           0.046  -9.230   3.777  0.00  0.00     0.078 A 
ATOM     20  C17 <0> d          -0.145  -9.849   5.163  0.00  0.00     0.015 A 
ATOM     21  C16 <0> d          -1.357  -9.345   4.376  0.00  0.00     0.015 A 
ENDBRANCH  16  19
ENDBRANCH  14  15
ENDBRANCH  13  14
ENDBRANCH  12  13
ENDBRANCH   9  12
ENDBRANCH   7   8
BRANCH   1  22
ATOM     22  N1  <0> d           2.161   0.018  -1.157  0.00  0.00    -0.064 N 
ATOM     23  C3  <0> d           2.152   1.484  -1.221  0.00  0.00     0.235 C 
ATOM     24  C2  <0> d           1.422   2.047  -0.001  0.00  0.00     0.028 C 
ATOM     25  C1  <0> d          -0.019   1.527   0.010  0.00  0.00     0.003 C 
ATOM     26  C5  <0> d           0.002  -0.004   0.002  0.00  0.00     0.028 C 
ATOM     27  C4  <0> d           0.785  -0.491  -1.219  0.00  0.00     0.235 C 
ATOM     28  H30 <0> d           2.589  -0.278  -0.293  0.00  0.00     0.280 HD
ENDBRANCH   1  22
TORSDOF 7
