REMARK  4 active torsions:
REMARK  status: ('A' for Active; 'I' for Inactive)
REMARK    1  A    between atoms: S1_2  and  N1_5 
REMARK    2  A    between atoms: C8_12  and  C10_14 
REMARK       I    between atoms: C10_14  and  N2_16 
REMARK    3  A    between atoms: N2_16  and  C11_17 
REMARK    4  A    between atoms: C16_22  and  N3_23 
ROOT
ATOM      1  C10 <0> d           6.259  -1.290  -2.463  0.00  0.00     0.256 C 
ATOM      2  O3  <0> d           6.575  -1.576  -3.602  0.00  0.00    -0.267 OA
ATOM      3  N2  <0> d           7.205  -1.182  -1.509  0.00  0.00    -0.321 N 
ATOM      4  H11 <0> d           6.964  -0.876  -0.620  0.00  0.00     0.169 HD
ENDROOT
BRANCH   1   5
ATOM      5  C8  <0> d           4.841  -1.062  -2.126  0.00  0.00     0.033 A 
ATOM      6  C7  <0> d           4.473  -0.734  -0.818  0.00  0.00     0.019 A 
ATOM      7  C6  <0> d           3.152  -0.522  -0.508  0.00  0.00     0.032 A 
ATOM      8  C5  <0> d           2.164  -0.633  -1.494  0.00  0.00     0.051 A 
ATOM      9  N1  <0> d           0.789  -0.458  -1.382  0.00  0.00    -0.275 N 
ATOM     10  C4  <0> d           2.535  -0.964  -2.792  0.00  0.00    -0.028 A 
ATOM     11  C2  <0> d           0.144  -0.670  -2.680  0.00  0.00     0.146 A 
ATOM     12  C3  <0> d           1.289  -1.011  -3.648  0.00  0.00     0.062 A 
ATOM     13  C9  <0> d           3.856  -1.182  -3.110  0.00  0.00     0.026 A 
BRANCH   9  14
ATOM     14  S1  <0> d          -0.004  -0.062   0.017  0.00  0.00     0.229 S 
ATOM     15  C1  <0> d          -0.042   1.752   0.033  0.00  0.00     0.186 C 
ATOM     16  O1  <0> d           0.834  -0.544   1.058  0.00  0.00    -0.206 OA
ATOM     17  O2  <0> d          -1.317  -0.578  -0.153  0.00  0.00    -0.206 OA
ENDBRANCH   9  14
ENDBRANCH   1   5
BRANCH   3  18
ATOM     18  C11 <0> d           8.534  -1.510  -1.800  0.00  0.00     0.062 A 
ATOM     19  C16 <0> d           9.572  -0.941  -1.063  0.00  0.00     0.064 A 
ATOM     20  C15 <0> d          10.887  -1.274  -1.354  0.00  0.00     0.032 A 
ATOM     21  C14 <0> d          11.165  -2.160  -2.377  0.00  0.00     0.002 A 
ATOM     22  C13 <0> d          10.136  -2.721  -3.111  0.00  0.00     0.002 A 
ATOM     23  C12 <0> d           8.822  -2.398  -2.826  0.00  0.00     0.032 A 
BRANCH  19  24
ATOM     24  N3  <0> d           9.288  -0.039  -0.030  0.00  0.00    -0.316 N 
ATOM     25  C20 <0> d           9.185   1.292  -0.191  0.00  0.00     0.224 C 
ATOM     26  C19 <0> d           8.877   1.954   1.133  0.00  0.00     0.105 C 
ATOM     27  O4  <0> d           9.317   1.876  -1.246  0.00  0.00    -0.273 OA
ATOM     28  C18 <0> d           9.231   0.878   2.185  0.00  0.00     0.029 C 
ATOM     29  C17 <0> d           9.071  -0.424   1.370  0.00  0.00     0.133 C 
ENDBRANCH  19  24
ENDBRANCH   3  18
TORSDOF 4
