REMARK  3 active torsions:
REMARK  status: ('A' for Active; 'I' for Inactive)
REMARK    1  A    between atoms: C2_2  and  N1_3 
REMARK    2  A    between atoms: C7_9  and  N4_19 
REMARK    3  A    between atoms: C8_10  and  C9_11 
REMARK       I    between atoms: C9_11  and  N2_13 
REMARK       I    between atoms: N4_19  and  C14_20 
ROOT
ATOM      1  N1  <0> d           0.989  -0.190  -7.048  0.00  0.00    -0.067 N 
ATOM      2  C3  <0> d           0.823   0.790  -5.965  0.00  0.00     0.240 C 
ATOM      3  C4  <0> d           0.269   0.103  -4.714  0.00  0.00     0.068 C 
ATOM      4  C5  <0> d           1.143  -1.108  -4.411  0.00  0.00    -0.023 A 
ATOM      5  C6  <0> d           1.959  -1.611  -5.365  0.00  0.00     0.018 A 
ATOM      6  S1  <0> d           2.770  -2.978  -4.589  0.00  0.00    -0.074 SA
ATOM      7  C7  <0> d           2.041  -2.883  -3.020  0.00  0.00     0.093 A 
ATOM      8  C8  <0> d           1.181  -1.798  -3.136  0.00  0.00     0.073 A 
ATOM      9  C16 <0> d           2.116  -1.098  -6.762  0.00  0.00     0.281 C 
ATOM     10  H25 <0> d           0.068  -0.789  -7.107  0.00  0.00     0.280 HD
ENDROOT
BRANCH   8  11
ATOM     11  C9  <0> d           0.348  -1.363  -2.010  0.00  0.00     0.257 C 
ATOM     12  O1  <0> d          -0.769  -1.823  -1.866  0.00  0.00    -0.267 OA
ATOM     13  N2  <0> d           0.821  -0.454  -1.134  0.00  0.00    -0.345 N 
ATOM     14  C13 <0> d           2.168   0.114  -1.289  0.00  0.00     0.153 C 
ATOM     15  C10 <0> d           0.002  -0.004   0.002  0.00  0.00     0.153 C 
ATOM     16  C12 <0> d           2.062   1.642  -1.230  0.00  0.00     0.252 C 
ATOM     17  N3  <0> d           1.361   2.034  -0.000  0.00  0.00    -0.072 N 
ATOM     18  C11 <0> d          -0.019   1.528   0.010  0.00  0.00     0.252 C 
ATOM     19  H14 <0> d           1.349   3.132   0.062  0.00  0.00     0.277 HD
ATOM     20  H26 <0> d           1.908   1.623   0.861  0.00  0.00     0.277 HD
ENDBRANCH   8  11
BRANCH   7  21
ATOM     21  N4  <0> d           2.260  -3.693  -1.917  0.00  0.00    -0.321 N 
ATOM     22  C14 <0> d           3.143  -4.710  -1.993  0.00  0.00     0.218 C 
ATOM     23  O2  <0> d           3.744  -4.915  -3.026  0.00  0.00    -0.274 OA
ATOM     24  C15 <0> d           3.381  -5.591  -0.794  0.00  0.00     0.117 C 
ATOM     25  H19 <0> d           1.715  -3.507  -0.980  0.00  0.00     0.169 HD
ENDBRANCH   7  21
BRANCH   1  26
ATOM     26  C2  <0> d           1.169   0.481  -8.342  0.00  0.00     0.231 C 
ATOM     27  C1  <0> d           2.379   1.414  -8.269  0.00  0.00     0.034 C 
ENDBRANCH   1  26
TORSDOF 3
