REMARK  5 active torsions:
REMARK  status: ('A' for Active; 'I' for Inactive)
REMARK    1  A    between atoms: C9_9  and  C17_23 
REMARK    2  A    between atoms: N1_11  and  C11_12 
REMARK    3  A    between atoms: C14_15  and  S1_18 
REMARK    4  A    between atoms: S1_18  and  N2_21 
REMARK       I    between atoms: C17_23  and  N3_25 
REMARK    5  A    between atoms: N3_25  and  C18_26 
ROOT
ATOM      1  C1  <0> d          -1.265   1.246   0.063  0.00  0.00     0.048 C 
ATOM      2  C2  <0> d          -0.790  -0.183   0.002  0.00  0.00    -0.061 A 
ATOM      3  C3  <0> d          -0.078  -0.625  -1.103  0.00  0.00     0.009 A 
ATOM      4  C4  <0> d           0.364  -1.931  -1.180  0.00  0.00     0.039 A 
ATOM      5  C5  <0> d           0.096  -2.812  -0.142  0.00  0.00     0.088 A 
ATOM      6  C6  <0> d          -0.623  -2.360   0.981  0.00  0.00    -0.001 A 
ATOM      7  C7  <0> d          -1.060  -1.032   1.039  0.00  0.00     0.021 A 
ATOM      8  C8  <0> d          -0.897  -3.289   2.080  0.00  0.00     0.035 C 
ATOM      9  C9  <0> d          -0.203  -4.492   2.086  0.00  0.00     0.084 C 
ATOM     10  C10 <0> d           0.748  -4.726   0.981  0.00  0.00     0.164 C 
ATOM     11  N1  <0> d           1.787  -5.518   1.136  0.00  0.00    -0.336 N 
ATOM     12  O3  <0> d           0.518  -4.098  -0.201  0.00  0.00    -0.292 OA
ATOM     13  H19 <0> d           1.994  -5.880   2.012  0.00  0.00     0.168 HD
ENDROOT
BRANCH   9  14
ATOM     14  C17 <0> d          -0.406  -5.492   3.148  0.00  0.00     0.260 C 
ATOM     15  O4  <0> d          -1.101  -5.224   4.110  0.00  0.00    -0.267 OA
ATOM     16  N3  <0> d           0.177  -6.703   3.054  0.00  0.00    -0.320 N 
ATOM     17  H14 <0> d           0.774  -6.898   2.316  0.00  0.00     0.169 HD
BRANCH  16  18
ATOM     18  C18 <0> d          -0.080  -7.680   4.023  0.00  0.00     0.073 A 
ATOM     19  C23 <0> d          -0.007  -9.028   3.690  0.00  0.00     0.143 A 
ATOM     20  C22 <0> d          -0.257  -9.990   4.652  0.00  0.00     0.044 A 
ATOM     21  F1  <0> d           0.311  -9.398   2.430  0.00  0.00    -0.204 F 
ATOM     22  C21 <0> d          -0.588  -9.612   5.940  0.00  0.00     0.003 A 
ATOM     23  C20 <0> d          -0.666  -8.272   6.272  0.00  0.00     0.002 A 
ATOM     24  C19 <0> d          -0.413  -7.305   5.318  0.00  0.00     0.033 A 
ENDBRANCH  16  18
ENDBRANCH   9  14
BRANCH  11  25
ATOM     25  C11 <0> d           2.576  -5.830   0.064  0.00  0.00     0.034 A 
ATOM     26  C16 <0> d           3.967  -5.793   0.181  0.00  0.00     0.031 A 
ATOM     27  C15 <0> d           4.756  -6.115  -0.903  0.00  0.00     0.027 A 
ATOM     28  C14 <0> d           4.173  -6.462  -2.109  0.00  0.00     0.079 A 
ATOM     29  C13 <0> d           2.795  -6.495  -2.234  0.00  0.00     0.027 A 
ATOM     30  C12 <0> d           1.994  -6.182  -1.157  0.00  0.00     0.031 A 
BRANCH  28  31
ATOM     31  S1  <0> d           5.189  -6.865  -3.491  0.00  0.00     0.256 S 
ATOM     32  O1  <0> d           6.439  -7.289  -2.966  0.00  0.00    -0.201 OA
ATOM     33  O2  <0> d           4.404  -7.684  -4.347  0.00  0.00    -0.201 OA
BRANCH  31  34
ATOM     34  N2  <0> d           5.475  -5.457  -4.315  0.00  0.00    -0.324 N 
ATOM     35  H12 <0> d           5.096  -4.623  -3.996  0.00  0.00     0.169 HD
ATOM     36  H13 <0> d           6.021  -5.467  -5.117  0.00  0.00     0.169 HD
ENDBRANCH  31  34
ENDBRANCH  28  31
ENDBRANCH  11  25
TORSDOF 5
