REMARK  5 active torsions:
REMARK  status: ('A' for Active; 'I' for Inactive)
REMARK    1  A    between atoms: C3_3  and  C5_6 
REMARK       I    between atoms: C5_6  and  N1_8 
REMARK    2  A    between atoms: N1_8  and  C6_9 
REMARK    3  A    between atoms: C6_9  and  C7_10 
REMARK    4  A    between atoms: C7_10  and  C8_11 
REMARK    5  A    between atoms: C9_14  and  C11_19 
ROOT
ATOM      1  C8  <0> d           7.652  -2.090  -0.083  0.00  0.00     0.101 A 
ATOM      2  N2  <0> d           8.493  -1.099  -0.081  0.00  0.00    -0.161 NA
ATOM      3  N3  <0> d           9.864  -1.313  -0.097  0.00  0.00    -0.182 N 
ATOM      4  C9  <0> d          11.044  -0.597  -0.101  0.00  0.00     0.259 A 
ATOM      5  N4  <0> d          12.032  -1.446  -0.120  0.00  0.00    -0.122 NA
ATOM      6  N5  <0> d          11.577  -2.651  -0.128  0.00  0.00    -0.120 NA
ATOM      7  C10 <0> d          10.279  -2.622  -0.114  0.00  0.00     0.218 A 
ATOM      8  S1  <0> d           8.740  -3.507  -0.101  0.00  0.00    -0.031 SA
ENDROOT
BRANCH   1   9
ATOM      9  C7  <0> d           6.146  -2.054  -0.068  0.00  0.00     0.088 C 
BRANCH   9  10
ATOM     10  C6  <0> d           5.671  -0.599  -0.056  0.00  0.00     0.129 C 
BRANCH  10  11
ATOM     11  N1  <0> d           4.206  -0.564  -0.042  0.00  0.00    -0.355 N 
ATOM     12  C5  <0> d           3.561   0.619  -0.029  0.00  0.00     0.275 C 
ATOM     13  O2  <0> d           4.195   1.658  -0.030  0.00  0.00    -0.265 OA
ATOM     14  H4  <0> d           3.701  -1.392  -0.041  0.00  0.00     0.162 HD
BRANCH  12  15
ATOM     15  C3  <0> d           2.095   0.654  -0.014  0.00  0.00     0.142 A 
ATOM     16  C2  <0> d           1.319   1.778  -0.001  0.00  0.00     0.045 A 
ATOM     17  C1  <0> d          -0.016   1.347   0.009  0.00  0.00     0.027 A 
ATOM     18  C4  <0> d           0.002  -0.004   0.002  0.00  0.00     0.143 A 
ATOM     19  O1  <0> d           1.276  -0.418  -0.012  0.00  0.00    -0.317 OA
ENDBRANCH  12  15
ENDBRANCH  10  11
ENDBRANCH   9  10
ENDBRANCH   1   9
BRANCH   4  20
ATOM     20  C11 <0> d          11.168   0.905  -0.087  0.00  0.00     0.454 C 
ATOM     21  F1  <0> d          12.472   1.269  -0.438  0.00  0.00    -0.163 F 
ATOM     22  F2  <0> d          10.267   1.456  -1.006  0.00  0.00    -0.163 F 
ATOM     23  F3  <0> d          10.878   1.385   1.194  0.00  0.00    -0.163 F 
ENDBRANCH   4  20
TORSDOF 5
