REMARK  7 active torsions:
REMARK  status: ('A' for Active; 'I' for Inactive)
REMARK    1  A    between atoms: O1_2  and  C2_3 
REMARK    2  A    between atoms: C2_3  and  C3_5 
REMARK    3  A    between atoms: C4_6  and  N4_32 
REMARK    4  A    between atoms: C6_8  and  C7_9 
REMARK    5  A    between atoms: C13_16  and  C21_28 
REMARK    6  A    between atoms: C14_18  and  C16_22 
REMARK    7  A    between atoms: C21_28  and  O5_30 
ROOT
ATOM      1  C3  <0> d           0.418  -1.800  -1.176  0.00  0.00     0.145 A 
ATOM      2  C4  <0> d          -0.949  -1.937  -1.109  0.00  0.00     0.072 A 
ATOM      3  C5  <0> d          -1.433  -0.976  -0.100  0.00  0.00     0.022 A 
ATOM      4  C6  <0> d          -2.730  -0.805   0.339  0.00  0.00     0.027 C 
ATOM      5  C12 <0> d          -0.240  -0.242   0.339  0.00  0.00     0.078 A 
ATOM      6  C13 <0> d          -0.194   0.829   1.210  0.00  0.00     0.105 C 
ATOM      7  S1  <0> d           1.384   1.571   1.513  0.00  0.00    -0.102 SA
ATOM      8  C14 <0> d           2.539   0.194   1.259  0.00  0.00     0.178 C 
ATOM      9  C15 <0> d           2.150  -0.572   0.022  0.00  0.00     0.248 C 
ATOM     10  O3  <0> d           3.016  -0.959  -0.734  0.00  0.00    -0.271 OA
ATOM     11  N2  <0> d           0.859  -0.835  -0.264  0.00  0.00    -0.271 N 
ENDROOT
BRANCH   2  12
ATOM     12  N4  <0> d          -1.724  -2.809  -1.850  0.00  0.00    -0.396 N 
ATOM     13  H17 <0> d          -2.815  -2.830  -1.711  0.00  0.00     0.156 HD
ATOM     14  H18 <0> d          -1.250  -3.483  -2.579  0.00  0.00     0.156 HD
ENDBRANCH   2  12
BRANCH   4  15
ATOM     15  C7  <0> d          -3.775  -1.747  -0.076  0.00  0.00    -0.033 A 
ATOM     16  C11 <0> d          -3.534  -3.131  -0.098  0.00  0.00     0.030 A 
ATOM     17  C10 <0> d          -4.547  -3.978  -0.495  0.00  0.00     0.117 A 
ATOM     18  N1  <0> d          -5.727  -3.505  -0.851  0.00  0.00    -0.273 NA
ATOM     19  C9  <0> d          -5.997  -2.214  -0.847  0.00  0.00     0.117 A 
ATOM     20  C8  <0> d          -5.048  -1.292  -0.459  0.00  0.00     0.030 A 
ENDBRANCH   4  15
BRANCH   1  21
ATOM     21  C2  <0> d           1.260  -2.532  -2.045  0.00  0.00     0.312 C 
ATOM     22  O2  <0> d           2.150  -1.965  -2.651  0.00  0.00    -0.258 OA
BRANCH  21  23
ATOM     23  O1  <0> d           1.077  -3.861  -2.202  0.00  0.00    -0.321 OA
ATOM     24  C1  <0> d           1.964  -4.537  -3.095  0.00  0.00     0.213 C 
ENDBRANCH  21  23
ENDBRANCH   1  21
BRANCH   6  25
ATOM     25  C21 <0> d          -1.368   1.319   1.835  0.00  0.00     0.301 C 
ATOM     26  O4  <0> d          -1.983   2.243   1.335  0.00  0.00    -0.259 OA
BRANCH  25  27
ATOM     27  O5  <0> d          -1.804   0.762   2.985  0.00  0.00    -0.322 OA
ATOM     28  C22 <0> d          -2.994   1.306   3.559  0.00  0.00     0.213 C 
ENDBRANCH  25  27
ENDBRANCH   6  25
BRANCH   8  29
ATOM     29  C16 <0> d           3.936   0.735   1.095  0.00  0.00    -0.032 A 
ATOM     30  C20 <0> d           4.946   0.372   1.973  0.00  0.00     0.028 A 
ATOM     31  C19 <0> d           6.215   0.888   1.791  0.00  0.00     0.116 A 
ATOM     32  N3  <0> d           6.470   1.716   0.797  0.00  0.00    -0.273 NA
ATOM     33  C18 <0> d           5.534   2.083  -0.057  0.00  0.00     0.116 A 
ATOM     34  C17 <0> d           4.244   1.603   0.059  0.00  0.00     0.028 A 
ENDBRANCH   8  29
TORSDOF 7
