REMARK  4 active torsions:
REMARK  status: ('A' for Active; 'I' for Inactive)
REMARK    1  A    between atoms: C8_9  and  N3_18 
REMARK    2  A    between atoms: C9_11  and  C10_12 
REMARK    3  A    between atoms: N3_18  and  N4_19 
REMARK    4  A    between atoms: N4_19  and  C16_20 
ROOT
ATOM      1  C1  <0> d           0.691   1.398   1.119  0.00  0.00     0.048 C 
ATOM      2  C2  <0> d           0.515  -0.054   0.757  0.00  0.00    -0.062 C 
ATOM      3  C3  <0> d          -0.739  -0.529   0.571  0.00  0.00     0.018 C 
ATOM      4  C4  <0> d          -0.933  -1.878   0.233  0.00  0.00    -0.003 C 
ATOM      5  C5  <0> d           0.271  -2.708  -0.166  0.00  0.00     0.158 C 
ATOM      6  C6  <0> d           1.631  -2.143   0.170  0.00  0.00     0.004 C 
ATOM      7  C7  <0> d           1.701  -0.887   0.615  0.00  0.00     0.005 C 
ATOM      8  N1  <0> d           0.118  -4.015   0.476  0.00  0.00    -0.213 N 
ATOM      9  C8  <0> d          -1.073  -4.569   0.499  0.00  0.00     0.694 C 
ATOM     10  N2  <0> d          -2.130  -3.859  -0.058  0.00  0.00    -0.189 N 
ATOM     11  C9  <0> d          -2.155  -2.481   0.238  0.00  0.00     0.068 C 
ATOM     12  H20 <0> d          -2.804  -4.282  -0.613  0.00  0.00     0.184 HD
ATOM     13  H21 <0> d           0.880  -4.462   0.876  0.00  0.00     0.178 HD
ENDROOT
BRANCH   9  14
ATOM     14  N3  <0> d          -1.268  -5.812   1.055  0.00  0.00    -0.132 N 
ATOM     15  H13 <0> d          -0.518  -6.294   1.440  0.00  0.00     0.205 HD
BRANCH  14  16
ATOM     16  N4  <0> d          -2.547  -6.382   1.067  0.00  0.00    -0.281 N 
ATOM     17  H14 <0> d          -3.279  -5.941   0.607  0.00  0.00     0.188 HD
BRANCH  16  18
ATOM     18  C16 <0> d          -2.761  -7.531   1.713  0.00  0.00     0.129 A 
ATOM     19  C23 <0> d          -4.024  -8.347   1.737  0.00  0.00     0.275 A 
ATOM     20  N5  <0> d          -3.800  -9.407   2.493  0.00  0.00    -0.321 N 
ATOM     21  O1  <0> d          -5.064  -8.081   1.162  0.00  0.00    -0.266 OA
ATOM     22  C22 <0> d          -2.531  -9.398   2.992  0.00  0.00     0.047 A 
ATOM     23  H19 <0> d          -4.455 -10.100   2.673  0.00  0.00     0.169 HD
ATOM     24  C17 <0> d          -1.849  -8.243   2.529  0.00  0.00     0.024 A 
ATOM     25  C21 <0> d          -1.859 -10.288   3.825  0.00  0.00     0.030 A 
ATOM     26  C18 <0> d          -0.521  -8.012   2.910  0.00  0.00     0.016 A 
ATOM     27  C19 <0> d           0.119  -8.914   3.738  0.00  0.00     0.001 A 
ATOM     28  C20 <0> d          -0.546 -10.042   4.192  0.00  0.00     0.002 A 
ENDBRANCH  16  18
ENDBRANCH  14  16
ENDBRANCH   9  14
BRANCH  11  29
ATOM     29  C10 <0> d          -3.403  -1.750   0.531  0.00  0.00    -0.008 A 
ATOM     30  C15 <0> d          -4.311  -2.258   1.465  0.00  0.00     0.014 A 
ATOM     31  C14 <0> d          -5.473  -1.567   1.737  0.00  0.00     0.001 A 
ATOM     32  C13 <0> d          -5.746  -0.380   1.081  0.00  0.00     0.000 A 
ATOM     33  C12 <0> d          -4.854   0.126   0.151  0.00  0.00     0.001 A 
ATOM     34  C11 <0> d          -3.685  -0.551  -0.127  0.00  0.00     0.014 A 
ENDBRANCH  11  29
TORSDOF 4
