REMARK  5 active torsions:
REMARK  status: ('A' for Active; 'I' for Inactive)
REMARK    1  A    between atoms: C6_6  and  C8_8 
REMARK    2  A    between atoms: C6_6  and  N3_24 
REMARK    3  A    between atoms: C8_8  and  N1_9 
REMARK       I    between atoms: N1_9  and  C9_10 
REMARK    4  A    between atoms: C9_10  and  C10_12 
REMARK    5  A    between atoms: C10_12  and  C11_13 
ROOT
ATOM      1  N1  <0> d          -0.700  -4.079   0.966  0.00  0.00    -0.359 N 
ATOM      2  C9  <0> d          -1.875  -4.698   0.732  0.00  0.00     0.219 C 
ATOM      3  O1  <0> d          -2.843  -4.053   0.393  0.00  0.00    -0.274 OA
ATOM      4  H16 <0> d           0.075  -4.596   1.238  0.00  0.00     0.162 HD
ENDROOT
BRANCH   2   5
ATOM      5  C10 <0> d          -1.983  -6.193   0.892  0.00  0.00     0.128 C 
BRANCH   5   6
ATOM      6  C11 <0> d          -3.411  -6.638   0.568  0.00  0.00     0.153 C 
ATOM      7  S1  <0> d          -3.765  -6.327  -1.189  0.00  0.00    -0.113 SA
ATOM      8  C18 <0> d          -2.875  -7.636  -1.988  0.00  0.00     0.028 A 
ATOM      9  C13 <0> d          -2.690  -8.844  -1.317  0.00  0.00     0.051 A 
ATOM     10  C17 <0> d          -2.378  -7.456  -3.268  0.00  0.00     0.021 A 
ATOM     11  N2  <0> d          -3.166  -9.049  -0.026  0.00  0.00    -0.325 N 
ATOM     12  C14 <0> d          -2.008  -9.872  -1.960  0.00  0.00     0.031 A 
ATOM     13  C12 <0> d          -3.554  -8.114   0.835  0.00  0.00     0.236 C 
ATOM     14  H19 <0> d          -3.219  -9.969   0.278  0.00  0.00     0.169 HD
ATOM     15  O2  <0> d          -4.048  -8.465   1.885  0.00  0.00    -0.272 OA
ATOM     16  C15 <0> d          -1.518  -9.690  -3.239  0.00  0.00     0.002 A 
ATOM     17  C16 <0> d          -1.699  -8.486  -3.894  0.00  0.00     0.002 A 
ENDBRANCH   5   6
ENDBRANCH   2   5
BRANCH   1  18
ATOM     18  C8  <0> d          -0.595  -2.626   0.811  0.00  0.00     0.161 C 
BRANCH  18  19
ATOM     19  C6  <0> d           0.828  -2.179   1.153  0.00  0.00     0.143 C 
ATOM     20  C5  <0> d           1.810  -2.794   0.154  0.00  0.00     0.041 C 
ATOM     21  C4  <0> d           1.456  -2.331  -1.260  0.00  0.00     0.003 C 
ATOM     22  C3  <0> d           1.543  -0.805  -1.333  0.00  0.00     0.004 C 
ATOM     23  C2  <0> d           0.561  -0.190  -0.335  0.00  0.00    -0.016 C 
ATOM     24  C1  <0> d           0.647   1.336  -0.408  0.00  0.00     0.010 C 
ATOM     25  C7  <0> d           0.914  -0.653   1.080  0.00  0.00     0.045 C 
BRANCH  19  26
ATOM     26  N3  <0> d           1.168  -2.624   2.511  0.00  0.00    -0.068 N 
ATOM     27  C19 <0> d           2.504  -2.129   2.869  0.00  0.00     0.270 C 
ATOM     28  C20 <0> d           0.179  -2.096   3.461  0.00  0.00     0.270 C 
ATOM     29  H30 <0> d           1.163  -3.632   2.546  0.00  0.00     0.280 HD
ENDBRANCH  19  26
ENDBRANCH  18  19
ENDBRANCH   1  18
TORSDOF 5
