REMARK  4 active torsions:
REMARK  status: ('A' for Active; 'I' for Inactive)
REMARK    1  A    between atoms: C2_2  and  C4_4 
REMARK    2  A    between atoms: C4_4  and  C5_5 
REMARK    3  A    between atoms: C4_4  and  N4_20 
REMARK    4  A    between atoms: C6_7  and  C8_10 
ROOT
ATOM      1  C5  <0> d          -1.413  -2.041   0.005  0.00  0.00     0.106 A 
ATOM      2  N1  <0> d          -1.672  -2.846  -0.990  0.00  0.00    -0.240 NA
ATOM      3  C6  <0> d          -1.613  -4.165  -0.845  0.00  0.00     0.110 A 
ATOM      4  C7  <0> d          -1.266  -4.626   0.401  0.00  0.00     0.087 A 
ATOM      5  S1  <0> d          -1.044  -3.083   1.272  0.00  0.00    -0.082 SA
ENDROOT
BRANCH   3   6
ATOM      6  C8  <0> d          -1.904  -5.085  -1.962  0.00  0.00     0.160 A 
ATOM      7  N3  <0> d          -2.255  -4.700  -3.229  0.00  0.00    -0.332 N 
ATOM      8  C14 <0> d          -2.437  -5.852  -3.971  0.00  0.00     0.064 A 
ATOM      9  C15 <0> d          -2.407  -3.324  -3.709  0.00  0.00     0.158 C 
ATOM     10  C9  <0> d          -2.190  -6.925  -3.097  0.00  0.00     0.086 A 
ATOM     11  C13 <0> d          -2.788  -6.103  -5.290  0.00  0.00     0.032 A 
ATOM     12  N2  <0> d          -1.870  -6.394  -1.890  0.00  0.00    -0.227 NA
ATOM     13  C10 <0> d          -2.302  -8.236  -3.569  0.00  0.00     0.034 A 
ATOM     14  C11 <0> d          -2.650  -8.464  -4.870  0.00  0.00     0.002 A 
ATOM     15  C12 <0> d          -2.894  -7.405  -5.733  0.00  0.00     0.002 A 
ENDBRANCH   3   6
BRANCH   1  16
ATOM     16  C4  <0> d          -1.433  -0.534   0.013  0.00  0.00     0.245 C 
BRANCH  16  17
ATOM     17  C2  <0> d           0.002  -0.004   0.002  0.00  0.00     0.014 C 
ATOM     18  C1  <0> d          -0.019   1.526   0.010  0.00  0.00     0.012 C 
ATOM     19  C3  <0> d           0.742  -0.511   1.242  0.00  0.00     0.012 C 
ENDBRANCH  16  17
BRANCH  16  20
ATOM     20  N4  <0> d          -2.121  -0.060   1.222  0.00  0.00    -0.069 N 
ATOM     21  H17 <0> d          -2.135   0.949   1.227  0.00  0.00     0.275 HD
ATOM     22  H18 <0> d          -3.067  -0.409   1.229  0.00  0.00     0.275 HD
ATOM     23  H19 <0> d          -1.633  -0.394   2.039  0.00  0.00     0.275 HD
ENDBRANCH  16  20
ENDBRANCH   1  16
TORSDOF 4
