REMARK  2 active torsions:
REMARK  status: ('A' for Active; 'I' for Inactive)
REMARK    1  A    between atoms: C5_7  and  C6_8 
REMARK       I    between atoms: C6_8  and  N1_10 
REMARK    2  A    between atoms: N1_10  and  C7_11 
ROOT
ATOM      1  C7  <0> d          -3.631  -0.828   0.031  0.00  0.00     0.174 A 
ATOM      2  N2  <0> d          -3.800  -2.133   0.031  0.00  0.00    -0.228 NA
ATOM      3  C8  <0> d          -5.008  -2.682   0.038  0.00  0.00     0.053 A 
ATOM      4  C9  <0> d          -6.041  -1.798   0.043  0.00  0.00     0.036 A 
ATOM      5  S1  <0> d          -5.209  -0.236   0.049  0.00  0.00    -0.053 SA
ATOM      6  C10 <0> d          -7.495  -2.121   0.046  0.00  0.00     0.280 C 
ATOM      7  N3  <0> d          -7.654  -3.539  -0.329  0.00  0.00    -0.070 N 
ATOM      8  C11 <0> d          -6.757  -4.367   0.488  0.00  0.00     0.238 C 
ATOM      9  C12 <0> d          -5.302  -4.177   0.046  0.00  0.00     0.088 C 
ATOM     10  H7  <0> d          -8.609  -3.824  -0.172  0.00  0.00     0.277 HD
ATOM     11  H12 <0> d          -7.424  -3.657  -1.304  0.00  0.00     0.277 HD
ENDROOT
BRANCH   1  12
ATOM     12  N1  <0> d          -2.441  -0.112   0.024  0.00  0.00    -0.301 N 
ATOM     13  C6  <0> d          -1.262  -0.764   0.009  0.00  0.00     0.259 C 
ATOM     14  O3  <0> d          -1.240  -1.980   0.003  0.00  0.00    -0.267 OA
ATOM     15  H4  <0> d          -2.458   0.858   0.029  0.00  0.00     0.171 HD
BRANCH  13  16
ATOM     16  C5  <0> d           0.002  -0.004   0.002  0.00  0.00     0.054 A 
ATOM     17  C1  <0> d          -0.017   1.415   0.010  0.00  0.00     0.025 A 
ATOM     18  C2  <0> d           1.164   2.087   0.002  0.00  0.00     0.084 A 
ATOM     19  C3  <0> d           2.371   1.361  -0.013  0.00  0.00     0.287 A 
ATOM     20  O1  <0> d           3.435   1.956  -0.020  0.00  0.00    -0.260 OA
ATOM     21  O2  <0> d           2.359   0.018  -0.020  0.00  0.00    -0.287 OA
ATOM     22  C4  <0> d           1.209  -0.665  -0.013  0.00  0.00     0.163 A 
ENDBRANCH  13  16
ENDBRANCH   1  12
TORSDOF 2
