REMARK  6 active torsions:
REMARK  status: ('A' for Active; 'I' for Inactive)
REMARK    1  A    between atoms: C2_2  and  N1_3 
REMARK    2  A    between atoms: N1_3  and  C3_4 
REMARK    3  A    between atoms: N1_3  and  C6_8 
REMARK    4  A    between atoms: C3_4  and  C4_5 
REMARK    5  A    between atoms: C4_5  and  O1_6 
REMARK    6  A    between atoms: C9_14  and  N2_15 
ROOT
ATOM      1  C6  <0> d          -2.102  -0.255  -1.115  0.00  0.00     0.270 C 
ATOM      2  C7  <0> d          -1.192  -0.464  -2.346  0.00  0.00     0.178 C 
ATOM      3  S1  <0> d          -1.828   0.838  -3.490  0.00  0.00     0.148 S 
ATOM      4  O2  <0> d          -0.749   1.363  -4.251  0.00  0.00    -0.228 OA
ATOM      5  O3  <0> d          -2.990   0.358  -4.151  0.00  0.00    -0.228 OA
ATOM      6  C8  <0> d          -2.319   2.065  -2.200  0.00  0.00     0.177 C 
ATOM      7  C9  <0> d          -2.717   1.134  -1.037  0.00  0.00     0.265 C 
ENDROOT
BRANCH   1   8
ATOM      8  N1  <0> d          -1.308  -0.485   0.099  0.00  0.00     0.098 N 
BRANCH   8   9
ATOM      9  C2  <0> d           0.074  -0.022  -0.080  0.00  0.00     0.268 C 
ATOM     10  C1  <0> d           0.069   1.451  -0.495  0.00  0.00     0.037 C 
ENDBRANCH   8   9
BRANCH   8  11
ATOM     11  C3  <0> d          -1.342  -1.901   0.490  0.00  0.00     0.299 C 
BRANCH  11  12
ATOM     12  C4  <0> d          -0.722  -2.062   1.879  0.00  0.00     0.197 C 
BRANCH  12  13
ATOM     13  O1  <0> d          -1.530  -1.384   2.843  0.00  0.00    -0.394 OA
ATOM     14  C5  <0> d          -1.036  -1.472   4.181  0.00  0.00     0.201 C 
ENDBRANCH  12  13
ENDBRANCH  11  12
ENDBRANCH   8  11
ENDBRANCH   1   8
BRANCH   7  15
ATOM     15  N2  <0> d          -2.303   1.760   0.226  0.00  0.00     0.086 N 
ATOM     16  H19 <0> d          -2.598   2.724   0.265  0.00  0.00     0.313 HD
ATOM     17  H20 <0> d          -2.652   1.242   1.018  0.00  0.00     0.313 HD
ENDBRANCH   7  15
TORSDOF 6
