REMARK  9 active torsions:
REMARK  status: ('A' for Active; 'I' for Inactive)
REMARK    1  A    between atoms: O1_2  and  C2_3 
REMARK    2  A    between atoms: C5_6  and  N1_9 
REMARK       I    between atoms: N1_9  and  C8_10 
REMARK    3  A    between atoms: C8_10  and  C9_12 
REMARK    4  A    between atoms: C9_12  and  C10_13 
REMARK    5  A    between atoms: C9_12  and  N2_17 
REMARK    6  A    between atoms: C10_13  and  C11_14 
REMARK    7  A    between atoms: C11_14  and  S1_15 
REMARK    8  A    between atoms: N2_17  and  S2_18 
REMARK    9  A    between atoms: S2_18  and  C13_21 
ROOT
ATOM      1  N2  <0> d           3.210  -5.819  -5.298  0.00  0.00    -0.302 N 
ATOM      2  H17 <0> d           2.314  -6.187  -5.346  0.00  0.00     0.173 HD
ENDROOT
BRANCH   1   3
ATOM      3  C9  <0> d           3.412  -4.370  -5.355  0.00  0.00     0.186 C 
BRANCH   3   4
ATOM      4  C8  <0> d           2.685  -3.716  -4.207  0.00  0.00     0.245 C 
ATOM      5  N1  <0> d           2.729  -2.378  -4.056  0.00  0.00    -0.325 N 
ATOM      6  H9  <0> d           3.170  -1.829  -4.724  0.00  0.00     0.169 HD
ATOM      7  O2  <0> d           2.061  -4.395  -3.420  0.00  0.00    -0.271 OA
BRANCH   5   8
ATOM      8  C5  <0> d           2.139  -1.779  -2.936  0.00  0.00     0.035 A 
ATOM      9  C4  <0> d           2.136  -2.442  -1.715  0.00  0.00     0.032 A 
ATOM     10  C3  <0> d           1.554  -1.851  -0.611  0.00  0.00     0.039 A 
ATOM     11  C2  <0> d           0.973  -0.596  -0.721  0.00  0.00     0.068 A 
ATOM     12  C7  <0> d           0.970   0.064  -1.941  0.00  0.00     0.039 A 
ATOM     13  C6  <0> d           1.556  -0.523  -3.045  0.00  0.00     0.032 A 
BRANCH  11  14
ATOM     14  O1  <0> d           0.400  -0.015   0.367  0.00  0.00    -0.356 OA
ATOM     15  C1  <0> d           0.439  -0.751   1.591  0.00  0.00     0.210 C 
ENDBRANCH  11  14
ENDBRANCH   5   8
ENDBRANCH   3   4
BRANCH   3  16
ATOM     16  C10 <0> d           2.865  -3.830  -6.678  0.00  0.00     0.045 C 
BRANCH  16  17
ATOM     17  C11 <0> d           3.697  -4.382  -7.837  0.00  0.00     0.076 C 
BRANCH  17  18
ATOM     18  S1  <0> d           3.147  -3.626  -9.391  0.00  0.00    -0.173 SA
ATOM     19  C12 <0> d           4.218  -4.376 -10.648  0.00  0.00     0.089 C 
ENDBRANCH  17  18
ENDBRANCH  16  17
ENDBRANCH   3  16
ENDBRANCH   1   3
BRANCH   1  20
ATOM     20  S2  <0> d           4.513  -6.831  -5.152  0.00  0.00     0.259 S 
ATOM     21  O3  <0> d           3.997  -8.155  -5.109  0.00  0.00    -0.201 OA
ATOM     22  O4  <0> d           5.462  -6.415  -6.124  0.00  0.00    -0.201 OA
BRANCH  20  23
ATOM     23  C13 <0> d           5.237  -6.523  -3.576  0.00  0.00     0.081 A 
ATOM     24  C20 <0> d           4.812  -7.234  -2.507  0.00  0.00     0.057 A 
ATOM     25  C19 <0> d           5.391  -6.999  -1.233  0.00  0.00     0.063 A 
ATOM     26  C16 <0> d           6.448  -5.961  -1.116  0.00  0.00     0.062 A 
ATOM     27  N4  <0> d           5.000  -7.679  -0.176  0.00  0.00    -0.317 N 
ATOM     28  C15 <0> d           6.835  -5.255  -2.284  0.00  0.00     0.033 A 
ATOM     29  N3  <0> d           7.010  -5.706   0.047  0.00  0.00    -0.317 N 
ATOM     30  C14 <0> d           6.240  -5.538  -3.464  0.00  0.00     0.027 A 
ATOM     31  C17 <0> d           6.626  -6.390   1.144  0.00  0.00     0.314 A 
ATOM     32  H22 <0> d           7.700  -5.027   0.115  0.00  0.00     0.169 HD
ATOM     33  O5  <0> d           7.140  -6.160   2.220  0.00  0.00    -0.262 OA
ATOM     34  C18 <0> d           5.562  -7.435   1.026  0.00  0.00     0.314 A 
ATOM     35  O6  <0> d           5.206  -8.059   2.005  0.00  0.00    -0.262 OA
ATOM     36  H21 <0> d           4.310  -8.355  -0.262  0.00  0.00     0.169 HD
ENDBRANCH  20  23
ENDBRANCH   1  20
TORSDOF 9
