REMARK  3 active torsions:
REMARK  status: ('A' for Active; 'I' for Inactive)
REMARK    1  A    between atoms: C3_3  and  S2_6 
REMARK    2  A    between atoms: S2_6  and  N1_9 
REMARK    3  A    between atoms: C11_16  and  N2_19 
ROOT
ATOM      1  N1  <0> d           1.136   3.492   0.002  0.00  0.00    -0.271 N 
ATOM      2  C5  <0> d           2.379   4.239   0.237  0.00  0.00     0.142 C 
ATOM      3  C6  <0> d           3.497   3.550  -0.556  0.00  0.00     0.026 C 
ATOM      4  C7  <0> d           3.689   2.135  -0.013  0.00  0.00     0.042 C 
ATOM      5  C8  <0> d           2.371   1.408   0.042  0.00  0.00    -0.030 A 
ATOM      6  C9  <0> d           1.165   2.094   0.053  0.00  0.00     0.053 A 
ATOM      7  C10 <0> d          -0.033   1.395   0.113  0.00  0.00     0.059 A 
ATOM      8  C11 <0> d          -0.026   0.009   0.157  0.00  0.00     0.027 A 
ATOM      9  C12 <0> d           1.183  -0.675   0.141  0.00  0.00     0.029 A 
ATOM     10  C13 <0> d           2.373   0.023   0.085  0.00  0.00     0.012 A 
ENDROOT
BRANCH   1  11
ATOM     11  S2  <0> d          -0.278   4.292  -0.322  0.00  0.00     0.271 S 
ATOM     12  O1  <0> d           0.080   5.619  -0.683  0.00  0.00    -0.199 OA
ATOM     13  O2  <0> d          -1.036   3.448  -1.177  0.00  0.00    -0.199 OA
BRANCH  11  14
ATOM     14  C3  <0> d          -1.170   4.406   1.194  0.00  0.00     0.120 A 
ATOM     15  C2  <0> d          -1.131   5.379   2.137  0.00  0.00     0.033 A 
ATOM     16  C1  <0> d          -1.928   5.257   3.259  0.00  0.00     0.009 A 
ATOM     17  C4  <0> d          -2.726   4.169   3.384  0.00  0.00     0.051 A 
ATOM     18  S1  <0> d          -2.367   3.273   1.881  0.00  0.00    -0.088 SA
ENDBRANCH  11  14
ENDBRANCH   1  11
BRANCH   8  19
ATOM     19  N2  <0> d          -1.230  -0.697   0.215  0.00  0.00    -0.399 N 
ATOM     20  H13 <0> d          -2.073  -0.218   0.225  0.00  0.00     0.156 HD
ATOM     21  H14 <0> d          -1.222  -1.667   0.246  0.00  0.00     0.156 HD
ENDBRANCH   8  19
TORSDOF 3
