REMARK  7 active torsions:
REMARK  status: ('A' for Active; 'I' for Inactive)
REMARK    1  A    between atoms: C2_2  and  C3_3 
REMARK    2  A    between atoms: C3_3  and  N1_4 
REMARK    3  A    between atoms: C6_7  and  C7_9 
REMARK       I    between atoms: C7_9  and  N3_11 
REMARK    4  A    between atoms: C14_18  and  N4_30 
REMARK    5  A    between atoms: C17_21  and  C18_22 
REMARK    6  A    between atoms: C17_21  and  N4_30 
REMARK    7  A    between atoms: C18_22  and  O2_28 
ROOT
ATOM      1  N1  <0> d           1.228  -0.409  -0.232  0.00  0.00    -0.269 N 
ATOM      2  C4  <0> d           2.067   0.600   0.051  0.00  0.00     0.040 A 
ATOM      3  C5  <0> d           1.315   1.720   0.191  0.00  0.00     0.004 A 
ATOM      4  C6  <0> d          -0.015   1.321  -0.021  0.00  0.00     0.153 A 
ATOM      5  N2  <0> d           0.015   0.022  -0.271  0.00  0.00    -0.166 NA
ATOM      6  C13 <0> d           1.864   3.084   0.508  0.00  0.00     0.076 C 
ATOM      7  C14 <0> d           3.376   3.069   0.240  0.00  0.00     0.190 C 
ATOM      8  C15 <0> d           4.004   1.852   0.924  0.00  0.00     0.039 C 
ATOM      9  C16 <0> d           3.567   0.571   0.203  0.00  0.00     0.061 C 
ENDROOT
BRANCH   7  10
ATOM     10  N4  <0> d           3.975   4.303   0.781  0.00  0.00    -0.068 N 
ATOM     11  H36 <0> d           4.180   4.170   1.779  0.00  0.00     0.277 HD
ATOM     12  H37 <0> d           3.313   5.079   0.668  0.00  0.00     0.277 HD
BRANCH  10  13
ATOM     13  C17 <0> d           5.225   4.621   0.066  0.00  0.00     0.270 C 
BRANCH  13  14
ATOM     14  C18 <0> d           5.824   5.904   0.648  0.00  0.00     0.082 C 
ATOM     15  C23 <0> d           7.052   6.310  -0.169  0.00  0.00     0.039 C 
ATOM     16  C22 <0> d           7.650   7.592   0.414  0.00  0.00     0.003 C 
ATOM     17  C21 <0> d           6.608   8.711   0.359  0.00  0.00     0.000 C 
ATOM     18  C20 <0> d           5.380   8.305   1.176  0.00  0.00     0.003 C 
ATOM     19  C19 <0> d           4.782   7.023   0.594  0.00  0.00     0.039 C 
BRANCH  14  20
ATOM     20  O2  <0> d           6.208   5.676   2.006  0.00  0.00    -0.388 OA
ATOM     21  H35 <0> d           5.477   5.415   2.583  0.00  0.00     0.210 HD
ENDBRANCH  14  20
ENDBRANCH  13  14
ENDBRANCH  10  13
ENDBRANCH   7  10
BRANCH   4  22
ATOM     22  C7  <0> d          -1.212   2.184   0.020  0.00  0.00     0.274 C 
ATOM     23  O1  <0> d          -1.090   3.387   0.142  0.00  0.00    -0.266 OA
ATOM     24  N3  <0> d          -2.441   1.638  -0.078  0.00  0.00    -0.347 N 
ATOM     25  C12 <0> d          -3.633   2.490  -0.179  0.00  0.00     0.126 C 
ATOM     26  C8  <0> d          -2.612   0.179  -0.092  0.00  0.00     0.126 C 
ATOM     27  C11 <0> d          -4.626   2.079   0.912  0.00  0.00     0.020 C 
ATOM     28  C10 <0> d          -4.913   0.581   0.798  0.00  0.00     0.003 C 
ATOM     29  C9  <0> d          -3.617  -0.206   1.004  0.00  0.00     0.020 C 
ENDBRANCH   4  22
BRANCH   1  30
ATOM     30  C3  <0> d           1.633  -1.798  -0.462  0.00  0.00     0.177 C 
BRANCH  30  31
ATOM     31  C2  <0> d           1.913  -2.003  -1.929  0.00  0.00    -0.015 C 
ATOM     32  C1  <0> d           3.071  -2.479  -2.314  0.00  0.00     0.008 C 
ENDBRANCH  30  31
ENDBRANCH   1  30
TORSDOF 7
