REMARK  2 active torsions:
REMARK  status: ('A' for Active; 'I' for Inactive)
REMARK    1  A    between atoms: C6_6  and  C7_7 
REMARK    2  A    between atoms: C7_7  and  C8_8 
ROOT
ATOM      1  C1  <0> d          -0.017   1.378   0.010  0.00  0.00     0.011 A 
ATOM      2  C2  <0> d           1.164   2.092   0.002  0.00  0.00     0.031 A 
ATOM      3  C3  <0> d           2.386   1.423  -0.013  0.00  0.00     0.041 A 
ATOM      4  C4  <0> d           2.392   0.034  -0.021  0.00  0.00    -0.022 A 
ATOM      5  C5  <0> d           1.212  -0.676  -0.013  0.00  0.00     0.018 A 
ATOM      6  C6  <0> d           0.002  -0.004   0.002  0.00  0.00    -0.037 A 
ATOM      7  C11 <0> d           3.843  -0.386  -0.037  0.00  0.00     0.144 A 
ATOM      8  C12 <0> d           4.604   0.923  -0.037  0.00  0.00     0.226 A 
ATOM      9  O1  <0> d           5.810   1.055  -0.048  0.00  0.00    -0.273 OA
ATOM     10  N3  <0> d           3.693   1.911  -0.023  0.00  0.00    -0.326 N 
ATOM     11  H10 <0> d           3.918   2.854  -0.020  0.00  0.00     0.169 HD
ENDROOT
BRANCH   6  12
ATOM     12  C7  <0> d          -1.292  -0.777   0.011  0.00  0.00     0.142 C 
ATOM     13 Br1  <0> d          -2.414  -0.193  -1.494  0.00  0.00    -0.079 Br
BRANCH  12  14
ATOM     14  C8  <0> d          -2.018  -0.526   1.307  0.00  0.00     0.048 A 
ATOM     15  N2  <0> d          -2.524   0.655   1.720  0.00  0.00    -0.281 N 
ATOM     16  N1  <0> d          -3.118   0.455   2.973  0.00  0.00    -0.187 NA
ATOM     17  H2  <0> d          -2.484   1.493   1.234  0.00  0.00     0.189 HD
ATOM     18  C10 <0> d          -2.966  -0.803   3.301  0.00  0.00     0.140 A 
ATOM     19  C9  <0> d          -2.275  -1.444   2.268  0.00  0.00     0.049 A 
ENDBRANCH  12  14
ENDBRANCH   6  12
TORSDOF 2
