REMARK  6 active torsions:
REMARK  status: ('A' for Active; 'I' for Inactive)
REMARK    1  A    between atoms: C2_2  and  C3_3 
REMARK    2  A    between atoms: C3_3  and  C4_4 
REMARK    3  A    between atoms: C3_3  and  N1_10 
REMARK    4  A    between atoms: N1_10  and  C11_12 
REMARK    5  A    between atoms: C11_12  and  C12_13 
REMARK    6  A    between atoms: C15_16  and  C18_19 
ROOT
ATOM      1  C12 <0> d           0.676   9.972  -0.451  0.00  0.00    -0.033 A 
ATOM      2  C13 <0> d          -0.595   9.428  -0.494  0.00  0.00     0.010 A 
ATOM      3  C14 <0> d          -0.767   8.061  -0.426  0.00  0.00     0.016 A 
ATOM      4  C15 <0> d           0.347   7.225  -0.315  0.00  0.00     0.010 A 
ATOM      5  C16 <0> d           1.627   7.781  -0.267  0.00  0.00     0.016 A 
ATOM      6  C17 <0> d           1.784   9.149  -0.340  0.00  0.00     0.010 A 
ENDROOT
BRANCH   4   7
ATOM      7  C18 <0> d           0.171   5.760  -0.241  0.00  0.00     0.141 A 
ATOM      8  N3  <0> d          -1.041   5.252  -0.282  0.00  0.00    -0.234 NA
ATOM      9  C21 <0> d          -1.253   3.933  -0.220  0.00  0.00     0.052 A 
ATOM     10  C20 <0> d          -0.198   3.084  -0.117  0.00  0.00     0.060 A 
ATOM     11  C22 <0> d          -2.673   3.431  -0.270  0.00  0.00     0.087 C 
ATOM     12  C19 <0> d           1.108   3.620  -0.067  0.00  0.00     0.257 A 
ATOM     13  C24 <0> d          -0.370   1.591  -0.053  0.00  0.00     0.278 C 
ATOM     14  N2  <0> d           1.267   4.958  -0.133  0.00  0.00    -0.307 N 
ATOM     15  O1  <0> d           2.076   2.885   0.032  0.00  0.00    -0.267 OA
ATOM     16  H30 <0> d           2.273   5.402  -0.099  0.00  0.00     0.170 HD
ATOM     17  N4  <0> d          -1.753   1.247   0.292  0.00  0.00    -0.071 N 
ATOM     18  C23 <0> d          -2.689   1.940  -0.608  0.00  0.00     0.238 C 
ATOM     19  H25 <0> d          -1.952   1.550   1.331  0.00  0.00     0.277 HD
ATOM     20  H29 <0> d          -1.889   0.159   0.195  0.00  0.00     0.277 HD
ENDBRANCH   4   7
BRANCH   1  21
ATOM     21  C11 <0> d           0.856  11.466  -0.524  0.00  0.00     0.273 C 
BRANCH  21  22
ATOM     22  N1  <0> d           0.835  12.029   0.832  0.00  0.00    -0.063 N 
ATOM     23  C10 <0> d          -0.525  12.013   1.388  0.00  0.00     0.270 C 
ATOM     24  H28 <0> d           1.469  11.396   1.471  0.00  0.00     0.280 HD
BRANCH  22  25
ATOM     25  C3  <0> d           1.393  13.388   0.847  0.00  0.00     0.220 C 
BRANCH  25  26
ATOM     26  C2  <0> d           0.263  14.405   0.676  0.00  0.00     0.033 C 
ATOM     27  C1  <0> d          -0.360  14.248  -0.713  0.00  0.00     0.007 C 
ENDBRANCH  25  26
BRANCH  25  28
ATOM     28  C4  <0> d           2.092  13.630   2.160  0.00  0.00    -0.028 A 
ATOM     29  C9  <0> d           3.195  14.461   2.212  0.00  0.00     0.009 A 
ATOM     30  C8  <0> d           3.837  14.683   3.417  0.00  0.00     0.001 A 
ATOM     31  C7  <0> d           3.374  14.074   4.568  0.00  0.00     0.000 A 
ATOM     32  C6  <0> d           2.270  13.243   4.516  0.00  0.00     0.001 A 
ATOM     33  C5  <0> d           1.627  13.025   3.312  0.00  0.00     0.009 A 
ENDBRANCH  25  28
ENDBRANCH  22  25
ENDBRANCH  21  22
ENDBRANCH   1  21
TORSDOF 6
