REMARK  6 active torsions:
REMARK  status: ('A' for Active; 'I' for Inactive)
REMARK    1  A    between atoms: C5_5  and  N1_6 
REMARK    2  A    between atoms: C13_16  and  S1_17 
REMARK    3  A    between atoms: S1_17  and  C14_18 
REMARK    4  A    between atoms: C14_18  and  C15_19 
REMARK    5  A    between atoms: C15_19  and  C16_21 
REMARK    6  A    between atoms: N3_23  and  C20_30 
ROOT
ATOM      1  S1  <0> d          -2.246  -3.984  -3.143  0.00  0.00    -0.084 SA
ENDROOT
BRANCH   1   2
ATOM      2  C13 <0> d          -2.745  -4.840  -1.685  0.00  0.00     0.178 A 
ATOM      3  N1  <0> d          -3.316  -4.122  -0.670  0.00  0.00    -0.239 N 
ATOM      4  C6  <0> d          -3.719  -4.739   0.465  0.00  0.00     0.268 A 
ATOM      5  O1  <0> d          -4.233  -4.113   1.374  0.00  0.00    -0.267 OA
ATOM      6  C7  <0> d          -3.513  -6.190   0.560  0.00  0.00     0.061 A 
ATOM      7  C12 <0> d          -2.910  -6.852  -0.534  0.00  0.00     0.075 A 
ATOM      8  C8  <0> d          -3.894  -6.915   1.688  0.00  0.00     0.019 A 
ATOM      9  C11 <0> d          -2.705  -8.233  -0.466  0.00  0.00     0.032 A 
ATOM     10  N2  <0> d          -2.546  -6.133  -1.621  0.00  0.00    -0.223 NA
ATOM     11  C10 <0> d          -3.088  -8.920   0.652  0.00  0.00     0.002 A 
ATOM     12  C9  <0> d          -3.680  -8.266   1.725  0.00  0.00     0.001 A 
BRANCH   3  13
ATOM     13  C5  <0> d          -3.490  -2.743  -0.809  0.00  0.00     0.138 A 
ATOM     14  C4  <0> d          -4.649  -2.251  -1.398  0.00  0.00     0.052 A 
ATOM     15  C3  <0> d          -4.808  -0.883  -1.530  0.00  0.00     0.012 A 
ATOM     16  C2  <0> d          -3.799  -0.051  -1.066  0.00  0.00    -0.044 A 
ATOM     17  C1  <0> d          -3.929   1.446  -1.189  0.00  0.00     0.049 C 
ATOM     18  C23 <0> d          -2.672  -0.609  -0.495  0.00  0.00     0.125 A 
ATOM     19  N6  <0> d          -2.550  -1.917  -0.379  0.00  0.00    -0.242 NA
ENDBRANCH   3  13
ENDBRANCH   1   2
BRANCH   1  20
ATOM     20  C14 <0> d          -1.556  -5.286  -4.201  0.00  0.00     0.166 C 
BRANCH  20  21
ATOM     21  C15 <0> d          -1.086  -4.681  -5.499  0.00  0.00     0.178 C 
ATOM     22  O2  <0> d          -1.204  -3.487  -5.691  0.00  0.00    -0.291 OA
BRANCH  21  23
ATOM     23  C16 <0> d          -0.507  -5.501  -6.491  0.00  0.00     0.122 A 
ATOM     24  C19 <0> d          -0.455  -6.960  -6.332  0.00  0.00     0.267 A 
ATOM     25  N4  <0> d           0.105  -7.697  -7.314  0.00  0.00    -0.274 N 
ATOM     26  O4  <0> d          -0.910  -7.494  -5.337  0.00  0.00    -0.267 OA
ATOM     27  C18 <0> d           0.614  -7.112  -8.410  0.00  0.00     0.331 A 
ATOM     28  H1  <0> d           0.144  -8.662  -7.225  0.00  0.00     0.173 HD
ATOM     29  N3  <0> d           0.591  -5.782  -8.592  0.00  0.00    -0.280 N 
ATOM     30  O3  <0> d           1.114  -7.811  -9.268  0.00  0.00    -0.246 OA
ATOM     31  C17 <0> d           0.042  -4.947  -7.661  0.00  0.00     0.125 A 
ATOM     32  N5  <0> d           0.026  -3.602  -7.862  0.00  0.00    -0.384 N 
ATOM     33  H18 <0> d           0.032  -2.998  -7.103  0.00  0.00     0.157 HD
ATOM     34  H19 <0> d           0.010  -3.247  -8.764  0.00  0.00     0.157 HD
BRANCH  29  35
ATOM     35  C20 <0> d           1.166  -5.215  -9.814  0.00  0.00     0.096 A 
ATOM     36  C22 <0> d           2.389  -4.308  -9.664  0.00  0.00     0.028 A 
ATOM     37  C21 <0> d           2.547  -5.715 -10.243  0.00  0.00     0.028 A 
ENDBRANCH  29  35
ENDBRANCH  21  23
ENDBRANCH  20  21
ENDBRANCH   1  20
TORSDOF 6
