REMARK  6 active torsions:
REMARK  status: ('A' for Active; 'I' for Inactive)
REMARK    1  A    between atoms: C2_2  and  N1_5 
REMARK       I    between atoms: N1_5  and  C5_6 
REMARK    2  A    between atoms: C5_6  and  C6_8 
REMARK    3  A    between atoms: N2_10  and  C19_25 
REMARK    4  A    between atoms: C9_12  and  C11_15 
REMARK       I    between atoms: C11_15  and  N3_17 
REMARK    5  A    between atoms: N3_17  and  C12_18 
REMARK    6  A    between atoms: C12_18  and  C13_19 
ROOT
ATOM      1  C6  <0> d          -1.274   1.948  -6.090  0.00  0.00     0.098 A 
ATOM      2  C7  <0> d          -2.388   2.712  -5.822  0.00  0.00     0.112 A 
ATOM      3  N2  <0> d          -2.770   2.975  -4.561  0.00  0.00    -0.360 N 
ATOM      4  C8  <0> d          -2.112   2.523  -3.481  0.00  0.00     0.112 A 
ATOM      5  C9  <0> d          -0.981   1.746  -3.602  0.00  0.00     0.098 A 
ATOM      6  C10 <0> d          -0.498   1.421  -4.955  0.00  0.00     0.206 A 
ATOM      7  O2  <0> d           0.499   0.741  -5.128  0.00  0.00    -0.286 OA
ENDROOT
BRANCH   5   8
ATOM      8  C11 <0> d          -0.268   1.258  -2.409  0.00  0.00     0.257 C 
ATOM      9  O3  <0> d           0.729   0.573  -2.534  0.00  0.00    -0.267 OA
ATOM     10  N3  <0> d          -0.721   1.571  -1.179  0.00  0.00    -0.356 N 
ATOM     11  H14 <0> d          -1.516   2.118  -1.079  0.00  0.00     0.162 HD
BRANCH  10  12
ATOM     12  C12 <0> d          -0.013   1.086   0.008  0.00  0.00     0.129 C 
BRANCH  12  13
ATOM     13  C13 <0> d          -0.729   1.579   1.267  0.00  0.00     0.029 C 
ATOM     14  C17 <0> d          -0.637   3.105   1.342  0.00  0.00     0.240 C 
ATOM     15  N4  <0> d          -1.335   3.568   2.561  0.00  0.00    -0.074 N 
ATOM     16  C16 <0> d          -0.655   3.044   3.764  0.00  0.00     0.234 C 
ATOM     17  C18 <0> d          -1.359   5.045   2.597  0.00  0.00     0.269 C 
ATOM     18  H39 <0> d          -2.300   3.219   2.545  0.00  0.00     0.279 HD
ATOM     19  C15 <0> d          -0.748   1.517   3.762  0.00  0.00     0.028 C 
ATOM     20  C14 <0> d          -0.064   0.971   2.505  0.00  0.00     0.009 C 
ENDBRANCH  12  13
ENDBRANCH  10  12
ENDBRANCH   5   8
BRANCH   3  21
ATOM     21  C19 <0> d          -3.966   3.796  -4.354  0.00  0.00     0.088 C 
ATOM     22  C24 <0> d          -5.005   2.995  -3.567  0.00  0.00     0.026 C 
ATOM     23  C23 <0> d          -6.253   3.853  -3.350  0.00  0.00     0.002 C 
ATOM     24  C22 <0> d          -5.877   5.111  -2.564  0.00  0.00     0.000 C 
ATOM     25  C21 <0> d          -4.838   5.912  -3.352  0.00  0.00     0.002 C 
ATOM     26  C20 <0> d          -3.590   5.054  -3.568  0.00  0.00     0.026 C 
ENDBRANCH   3  21
BRANCH   1  27
ATOM     27  C5  <0> d          -0.867   1.668  -7.478  0.00  0.00     0.257 C 
ATOM     28  N1  <0> d          -1.587   2.162  -8.504  0.00  0.00    -0.349 N 
ATOM     29  H11 <0> d          -2.373   2.702  -8.329  0.00  0.00     0.163 HD
ATOM     30  O1  <0> d           0.119   0.991  -7.697  0.00  0.00    -0.267 OA
BRANCH  28  31
ATOM     31  C2  <0> d          -1.182   1.884  -9.884  0.00  0.00     0.022 C 
ATOM     32  C1  <0> d          -1.188   0.373 -10.123  0.00  0.00     0.037 C 
ATOM     33  C3  <0> d          -2.161   2.556 -10.849  0.00  0.00     0.037 C 
ATOM     34  C4  <0> d           0.227   2.432 -10.123  0.00  0.00     0.037 C 
ENDBRANCH  28  31
ENDBRANCH   1  27
TORSDOF 6
