REMARK  6 active torsions:
REMARK  status: ('A' for Active; 'I' for Inactive)
REMARK    1  A    between atoms: C3_3  and  S1_8 
REMARK    2  A    between atoms: S1_8  and  N2_11 
REMARK    3  A    between atoms: N2_11  and  C6_12 
REMARK    4  A    between atoms: C6_12  and  C8_14 
REMARK       I    between atoms: C8_14  and  N3_16 
REMARK    5  A    between atoms: N3_16  and  C9_17 
REMARK    6  A    between atoms: C9_17  and  C10_18 
ROOT
ATOM      1  C8  <0> d           3.844  -0.877  -2.967  0.00  0.00     0.240 C 
ATOM      2  O4  <0> d           4.087   0.265  -2.639  0.00  0.00    -0.271 OA
ATOM      3  N3  <0> d           4.825  -1.801  -2.971  0.00  0.00    -0.359 N 
ATOM      4  H13 <0> d           4.630  -2.714  -3.233  0.00  0.00     0.162 HD
ENDROOT
BRANCH   3   5
ATOM      5  C9  <0> d           6.186  -1.426  -2.578  0.00  0.00     0.128 C 
BRANCH   5   6
ATOM      6  C10 <0> d           7.098  -2.650  -2.668  0.00  0.00     0.017 C 
ATOM      7  C19 <0> d           8.492  -2.284  -2.112  0.00  0.00     0.058 C 
ATOM      8  C18 <0> d           9.352  -3.518  -2.336  0.00  0.00    -0.042 A 
ATOM      9  C20 <0> d           9.044  -1.237  -3.068  0.00  0.00    -0.042 A 
ATOM     10  C13 <0> d           9.429  -3.932  -3.664  0.00  0.00    -0.043 A 
ATOM     11  C17 <0> d          10.012  -4.197  -1.353  0.00  0.00     0.008 A 
ATOM     12  C12 <0> d           8.639  -3.072  -4.638  0.00  0.00     0.053 C 
ATOM     13  C14 <0> d          10.167  -5.028  -4.012  0.00  0.00     0.008 A 
ATOM     14  C11 <0> d           7.184  -3.103  -4.124  0.00  0.00     0.021 C 
ATOM     15  C21 <0> d           9.122  -1.651  -4.393  0.00  0.00    -0.043 A 
ATOM     16  C22 <0> d           9.600  -0.812  -5.359  0.00  0.00     0.008 A 
ATOM     17  C23 <0> d          10.008   0.465  -4.995  0.00  0.00     0.001 A 
ATOM     18  C24 <0> d           9.930   0.876  -3.677  0.00  0.00     0.001 A 
ATOM     19  C25 <0> d           9.444   0.017  -2.704  0.00  0.00     0.008 A 
ATOM     20  C15 <0> d          10.841  -5.724  -3.017  0.00  0.00     0.001 A 
ATOM     21  C16 <0> d          10.765  -5.312  -1.699  0.00  0.00     0.001 A 
ENDBRANCH   5   6
ENDBRANCH   3   5
BRANCH   1  22
ATOM     22  C6  <0> d           2.444  -1.263  -3.371  0.00  0.00     0.180 C 
ATOM     23  C7  <0> d           2.454  -1.786  -4.809  0.00  0.00     0.043 C 
BRANCH  22  24
ATOM     24  N2  <0> d           1.570  -0.091  -3.285  0.00  0.00    -0.302 N 
ATOM     25  H9  <0> d           1.915   0.789  -3.504  0.00  0.00     0.173 HD
BRANCH  24  26
ATOM     26  S1  <0> d          -0.008  -0.267  -2.813  0.00  0.00     0.264 S 
ATOM     27  O2  <0> d          -0.547  -1.328  -3.589  0.00  0.00    -0.200 OA
ATOM     28  O3  <0> d          -0.577   1.035  -2.802  0.00  0.00    -0.200 OA
BRANCH  26  29
ATOM     29  C3  <0> d           0.008  -0.824  -1.141  0.00  0.00     0.137 A 
ATOM     30  C2  <0> d           0.002  -0.004   0.002  0.00  0.00     0.084 A 
ATOM     31  C1  <0> d          -0.018   1.503   0.010  0.00  0.00     0.074 C 
ATOM     32  N1  <0> d           0.023  -0.775   1.052  0.00  0.00    -0.132 NA
ATOM     33  O1  <0> d           0.034  -2.119   0.606  0.00  0.00    -0.216 OA
ATOM     34  C4  <0> d           0.027  -2.108  -0.735  0.00  0.00     0.100 A 
ATOM     35  C5  <0> d           0.039  -3.320  -1.631  0.00  0.00     0.081 C 
ENDBRANCH  26  29
ENDBRANCH  24  26
ENDBRANCH  22  24
ENDBRANCH   1  22
TORSDOF 6
