REMARK  3 active torsions:
REMARK  status: ('A' for Active; 'I' for Inactive)
REMARK    1  A    between atoms: C3_4  and  C10_11 
REMARK       I    between atoms: C10_11  and  N2_13 
REMARK    2  A    between atoms: N2_13  and  N3_14 
REMARK       I    between atoms: N3_14  and  C11_15 
REMARK    3  A    between atoms: C11_15  and  C12_17 
ROOT
ATOM      1  C10 <0> d          -1.187   1.624   0.017  0.00  0.00     0.272 C 
ATOM      2  O1  <0> d          -1.204   2.840   0.023  0.00  0.00    -0.266 OA
ATOM      3  N2  <0> d          -0.011   0.966   0.007  0.00  0.00    -0.263 N 
ATOM      4  H9  <0> d           0.002  -0.004   0.002  0.00  0.00     0.190 HD
ENDROOT
BRANCH   3   5
ATOM      5  N3  <0> d           1.193   1.683  -0.000  0.00  0.00    -0.262 N 
ATOM      6  C11 <0> d           2.369   1.025  -0.015  0.00  0.00     0.286 C 
ATOM      7  O2  <0> d           2.385  -0.192  -0.022  0.00  0.00    -0.264 OA
ATOM      8  H10 <0> d           1.179   2.653   0.005  0.00  0.00     0.190 HD
BRANCH   6   9
ATOM      9  C12 <0> d           3.629   1.776  -0.023  0.00  0.00     0.124 C 
ATOM     10  C15 <0> d           4.937   1.030  -0.033  0.00  0.00     0.076 C 
ATOM     11  C14 <0> d           5.966   1.817  -0.854  0.00  0.00     0.111 C 
ATOM     12  C13 <0> d           5.942   3.261  -0.422  0.00  0.00     0.239 C 
ATOM     13  N5  <0> d           4.783   3.821  -0.025  0.00  0.00    -0.242 N 
ATOM     14  O3  <0> d           6.962   3.916  -0.432  0.00  0.00    -0.272 OA
ATOM     15  N4  <0> d           3.602   3.072  -0.016  0.00  0.00    -0.169 NA
ATOM     16  C16 <0> d           4.759   5.223   0.400  0.00  0.00     0.183 C 
ENDBRANCH   6   9
ENDBRANCH   3   5
BRANCH   1  17
ATOM     17  C3  <0> d          -2.450   0.872   0.018  0.00  0.00     0.061 A 
ATOM     18  C2  <0> d          -2.592  -0.484   0.012  0.00  0.00     0.108 A 
ATOM     19  N1  <0> d          -3.908  -0.807   0.017  0.00  0.00    -0.359 N 
ATOM     20  C1  <0> d          -4.432  -2.175   0.012  0.00  0.00     0.156 C 
ATOM     21  C5  <0> d          -4.683   0.334   0.027  0.00  0.00     0.045 A 
ATOM     22  C4  <0> d          -3.812   1.435   0.034  0.00  0.00     0.008 A 
ATOM     23  C6  <0> d          -6.057   0.551   0.034  0.00  0.00     0.030 A 
ATOM     24  C9  <0> d          -4.324   2.730   0.037  0.00  0.00     0.015 A 
ATOM     25  C8  <0> d          -5.688   2.925   0.045  0.00  0.00     0.001 A 
ATOM     26  C7  <0> d          -6.550   1.838   0.043  0.00  0.00     0.002 A 
ENDBRANCH   1  17
TORSDOF 3
