REMARK  3 active torsions:
REMARK  status: ('A' for Active; 'I' for Inactive)
REMARK    1  A    between atoms: C5_6  and  C11_14 
REMARK    2  A    between atoms: C13_16  and  N4_24 
REMARK    3  A    between atoms: C16_19  and  N3_20 
REMARK       I    between atoms: N3_20  and  C17_21 
ROOT
ATOM      1  C1  <0> d          -0.041   1.525  -0.047  0.00  0.00     0.049 C 
ATOM      2  C2  <0> d          -0.020   0.018  -0.045  0.00  0.00    -0.054 A 
ATOM      3  C3  <0> d          -0.010  -0.642  -1.224  0.00  0.00     0.038 A 
ATOM      4  C4  <0> d           0.011  -2.114  -1.214  0.00  0.00     0.056 A 
ATOM      5  N1  <0> d           0.022  -2.786  -2.329  0.00  0.00    -0.371 N 
ATOM      6  C5  <0> d           0.043  -4.255  -2.263  0.00  0.00     0.210 A 
ATOM      7  C6  <0> d           0.050  -4.902  -0.896  0.00  0.00     0.249 A 
ATOM      8  O1  <0> d           0.068  -6.112  -0.788  0.00  0.00    -0.270 OA
ATOM      9  N2  <0> d           0.038  -4.126   0.190  0.00  0.00    -0.323 N 
ATOM     10  C7  <0> d           0.020  -2.807   0.099  0.00  0.00     0.061 A 
ATOM     11  C8  <0> d           0.008  -2.016   1.269  0.00  0.00     0.039 A 
ATOM     12  C9  <0> d          -0.005  -0.665   1.183  0.00  0.00    -0.054 A 
ATOM     13  C10 <0> d          -0.011   0.140   2.457  0.00  0.00     0.049 C 
ATOM     14  H17 <0> d           0.016  -2.328  -3.184  0.00  0.00     0.161 HD
ATOM     15  H18 <0> d           0.043  -4.540   1.067  0.00  0.00     0.169 HD
ENDROOT
BRANCH   6  16
ATOM     16  C11 <0> d          -1.165  -4.766  -3.005  0.00  0.00     0.003 A 
ATOM     17  C16 <0> d          -1.197  -6.076  -3.464  0.00  0.00     0.043 A 
ATOM     18  C15 <0> d          -2.314  -6.544  -4.143  0.00  0.00     0.032 A 
ATOM     19  C14 <0> d          -3.386  -5.703  -4.369  0.00  0.00     0.038 A 
ATOM     20  C13 <0> d          -3.349  -4.397  -3.916  0.00  0.00     0.103 A 
ATOM     21  C12 <0> d          -2.240  -3.929  -3.235  0.00  0.00     0.048 A 
BRANCH  17  22
ATOM     22  N3  <0> d          -0.108  -6.925  -3.237  0.00  0.00    -0.327 N 
ATOM     23  C17 <0> d          -0.312  -8.237  -3.006  0.00  0.00     0.218 C 
ATOM     24  O2  <0> d          -1.432  -8.697  -3.074  0.00  0.00    -0.274 OA
ATOM     25  C18 <0> d           0.851  -9.132  -2.663  0.00  0.00     0.117 C 
ATOM     26  H13 <0> d           0.794  -6.569  -3.246  0.00  0.00     0.169 HD
ENDBRANCH  17  22
BRANCH  20  27
ATOM     27  N4  <0> d          -4.499  -3.498  -4.160  0.00  0.00    -0.116 N 
ATOM     28  O3  <0> d          -4.468  -2.356  -3.764  0.00  0.00    -0.532 OA
ATOM     29  O4  <0> d          -5.469  -3.905  -4.756  0.00  0.00    -0.532 OA
ENDBRANCH  20  27
ENDBRANCH   6  16
TORSDOF 3
