REMARK  5 active torsions:
REMARK  status: ('A' for Active; 'I' for Inactive)
REMARK    1  A    between atoms: C2_2  and  N1_5 
REMARK       I    between atoms: N1_5  and  C5_6 
REMARK    2  A    between atoms: C5_6  and  C6_8 
REMARK    3  A    between atoms: C6_8  and  C7_9 
REMARK    4  A    between atoms: C7_9  and  C8_10 
REMARK    5  A    between atoms: C8_10  and  C9_11 
ROOT
ATOM      1  C9  <0> d           0.899   6.014  -0.239  0.00  0.00     0.114 C 
ATOM      2  N2  <0> d          -0.081   5.218   0.005  0.00  0.00    -0.234 NA
ATOM      3  C10 <0> d          -0.061   3.857   0.015  0.00  0.00     0.082 A 
ATOM      4  C11 <0> d          -1.254   3.130   0.027  0.00  0.00     0.033 A 
ATOM      5  C12 <0> d          -1.220   1.752   0.017  0.00  0.00     0.002 A 
ATOM      6  C13 <0> d          -0.013   1.076   0.008  0.00  0.00     0.002 A 
ATOM      7  C14 <0> d           1.179   1.786   0.000  0.00  0.00     0.028 A 
ATOM      8  C15 <0> d           1.151   3.156   0.008  0.00  0.00     0.108 A 
ATOM      9  S1  <0> d           2.641   4.110   0.021  0.00  0.00     0.266 S 
ATOM     10  O2  <0> d           2.998   4.314   1.381  0.00  0.00    -0.200 OA
ATOM     11  O3  <0> d           3.520   3.529  -0.932  0.00  0.00    -0.200 OA
ATOM     12  N3  <0> d           2.157   5.589  -0.590  0.00  0.00    -0.268 N 
ATOM     13  H21 <0> d           2.836   6.165  -1.237  0.00  0.00     0.180 HD
ENDROOT
BRANCH   1  14
ATOM     14  C8  <0> d           0.653   7.497  -0.134  0.00  0.00     0.080 C 
BRANCH  14  15
ATOM     15  C7  <0> d          -0.803   7.746   0.267  0.00  0.00     0.017 C 
BRANCH  15  16
ATOM     16  C6  <0> d          -1.052   9.252   0.373  0.00  0.00     0.103 C 
BRANCH  16  17
ATOM     17  C5  <0> d          -2.486   9.496   0.768  0.00  0.00     0.218 C 
ATOM     18  N1  <0> d          -2.936  10.757   0.923  0.00  0.00    -0.353 N 
ATOM     19  H10 <0> d          -2.257  11.607   0.761  0.00  0.00     0.163 HD
ATOM     20  O1  <0> d          -3.235   8.559   0.946  0.00  0.00    -0.274 OA
BRANCH  18  21
ATOM     21  C2  <0> d          -4.330  10.995   1.306  0.00  0.00     0.022 C 
ATOM     22  C1  <0> d          -4.607  10.335   2.658  0.00  0.00     0.037 C 
ATOM     23  C3  <0> d          -4.580  12.501   1.413  0.00  0.00     0.037 C 
ATOM     24  C4  <0> d          -5.259  10.398   0.247  0.00  0.00     0.037 C 
ENDBRANCH  18  21
ENDBRANCH  16  17
ENDBRANCH  15  16
ENDBRANCH  14  15
ENDBRANCH   1  14
TORSDOF 5
