REMARK  4 active torsions:
REMARK  status: ('A' for Active; 'I' for Inactive)
REMARK    1  A    between atoms: N1_6  and  C7_8 
REMARK    2  A    between atoms: C7_8  and  C10_11 
REMARK    3  A    between atoms: C10_11  and  N2_12 
REMARK       I    between atoms: N2_12  and  C11_13 
REMARK       I    between atoms: C11_13  and  N3_15 
REMARK    4  A    between atoms: N3_15  and  C12_16 
ROOT
ATOM      1  N2  <0> d          -0.751  -2.462   3.613  0.00  0.00    -0.340 N 
ATOM      2  C11 <0> d          -1.628  -2.153   4.589  0.00  0.00     0.320 C 
ATOM      3  O1  <0> d          -1.278  -1.458   5.523  0.00  0.00    -0.247 OA
ATOM      4  N3  <0> d          -2.893  -2.615   4.529  0.00  0.00    -0.309 N 
ATOM      5  H20 <0> d          -1.031  -3.016   2.867  0.00  0.00     0.164 HD
ATOM      6  H21 <0> d          -3.191  -3.112   3.752  0.00  0.00     0.170 HD
ENDROOT
BRANCH   1   7
ATOM      7  C10 <0> d           0.624  -1.960   3.677  0.00  0.00     0.162 C 
BRANCH   7   8
ATOM      8  C7  <0> d           1.404  -2.452   2.457  0.00  0.00     0.136 C 
ATOM      9  C8  <0> d           1.419  -3.982   2.444  0.00  0.00     0.048 C 
ATOM     10  C9  <0> d           2.840  -1.928   2.524  0.00  0.00     0.048 C 
BRANCH   8  11
ATOM     11  N1  <0> d           0.759  -1.959   1.232  0.00  0.00    -0.061 N 
ATOM     12  C5  <0> d           1.509  -2.432   0.062  0.00  0.00     0.240 C 
ATOM     13  C4  <0> d           0.797  -1.989  -1.218  0.00  0.00     0.008 C 
ATOM     14  C3  <0> d           0.714  -0.460  -1.247  0.00  0.00     0.011 C 
ATOM     15  C21 <0> d           1.581  -2.481  -2.436  0.00  0.00     0.011 C 
ATOM     16  C2  <0> d          -0.004   0.026   0.015  0.00  0.00     0.008 C 
ATOM     17  C1  <0> d          -0.024   1.556   0.035  0.00  0.00     0.011 C 
ATOM     18  C6  <0> d           0.737  -0.491   1.250  0.00  0.00     0.240 C 
ATOM     19  H33 <0> d          -0.186  -2.308   1.188  0.00  0.00     0.281 HD
ENDBRANCH   8  11
ENDBRANCH   7   8
ENDBRANCH   1   7
BRANCH   4  20
ATOM     20  C12 <0> d          -3.776  -2.375   5.590  0.00  0.00     0.036 A 
ATOM     21  C17 <0> d          -3.707  -1.181   6.296  0.00  0.00     0.039 A 
ATOM     22  C16 <0> d          -4.581  -0.944   7.338  0.00  0.00    -0.029 A 
ATOM     23  C15 <0> d          -5.522  -1.903   7.688  0.00  0.00     0.041 A 
ATOM     24  C18 <0> d          -4.512   0.352   8.102  0.00  0.00     0.050 C 
ATOM     25  C14 <0> d          -5.588  -3.100   6.985  0.00  0.00     0.032 A 
ATOM     26  N4  <0> d          -6.403  -1.662   8.749  0.00  0.00    -0.327 N 
ATOM     27  C13 <0> d          -4.718  -3.335   5.940  0.00  0.00     0.032 A 
ATOM     28  C20 <0> d          -6.611  -0.408   9.191  0.00  0.00     0.222 C 
ATOM     29  H29 <0> d          -6.867  -2.404   9.168  0.00  0.00     0.169 HD
ATOM     30  C19 <0> d          -5.917   0.761   8.545  0.00  0.00     0.108 C 
ATOM     31  O2  <0> d          -7.366  -0.218  10.121  0.00  0.00    -0.273 OA
ENDBRANCH   4  20
TORSDOF 4
