REMARK  5 active torsions:
REMARK  status: ('A' for Active; 'I' for Inactive)
REMARK    1  A    between atoms: C3_3  and  N2_10 
REMARK    2  A    between atoms: C6_6  and  C7_7 
REMARK       I    between atoms: C7_7  and  N1_9 
REMARK    3  A    between atoms: C9_12  and  C17_22 
REMARK       I    between atoms: C17_22  and  N3_24 
REMARK    4  A    between atoms: N3_24  and  C18_25 
REMARK    5  A    between atoms: C18_25  and  C19_26 
ROOT
ATOM      1  N2  <0> d           3.545   2.115  -0.018  0.00  0.00    -0.336 N 
ATOM      2  C8  <0> d           4.532   1.752   0.777  0.00  0.00     0.164 C 
ATOM      3  C9  <0> d           5.845   2.421   0.712  0.00  0.00     0.084 C 
ATOM      4  C10 <0> d           6.613   2.421   1.870  0.00  0.00     0.035 C 
ATOM      5  C11 <0> d           6.051   1.759   3.049  0.00  0.00     0.000 A 
ATOM      6  C12 <0> d           6.626   1.938   4.314  0.00  0.00     0.033 A 
ATOM      7  C13 <0> d           6.074   1.308   5.407  0.00  0.00     0.011 A 
ATOM      8  C14 <0> d           4.955   0.499   5.261  0.00  0.00     0.022 A 
ATOM      9  C15 <0> d           4.380   0.311   4.020  0.00  0.00     0.039 A 
ATOM     10  C16 <0> d           4.920   0.934   2.905  0.00  0.00     0.088 A 
ATOM     11  O2  <0> d           4.368   0.756   1.683  0.00  0.00    -0.292 OA
ATOM     12 Br1  <0> d           6.844   1.547   7.117  0.00  0.00    -0.051 Br
ATOM     13  H21 <0> d           3.649   2.885  -0.599  0.00  0.00     0.168 HD
ENDROOT
BRANCH   1  14
ATOM     14  C3  <0> d           2.381   1.409  -0.025  0.00  0.00     0.034 A 
ATOM     15  C2  <0> d           1.153   2.082  -0.006  0.00  0.00     0.030 A 
ATOM     16  C1  <0> d          -0.013   1.374  -0.012  0.00  0.00     0.019 A 
ATOM     17  C6  <0> d           0.017  -0.025  -0.038  0.00  0.00     0.032 A 
ATOM     18  C5  <0> d           1.244  -0.699  -0.057  0.00  0.00     0.019 A 
ATOM     19  C4  <0> d           2.411   0.009  -0.050  0.00  0.00     0.030 A 
BRANCH  17  20
ATOM     20  C7  <0> d          -1.243  -0.789  -0.045  0.00  0.00     0.249 C 
ATOM     21  O1  <0> d          -2.309  -0.204  -0.028  0.00  0.00    -0.268 OA
ATOM     22  N1  <0> d          -1.214  -2.137  -0.070  0.00  0.00    -0.366 N 
ATOM     23  H6  <0> d          -0.363  -2.603  -0.083  0.00  0.00     0.159 HD
ATOM     24  H7  <0> d          -2.043  -2.640  -0.074  0.00  0.00     0.159 HD
ENDBRANCH  17  20
ENDBRANCH   1  14
BRANCH   3  25
ATOM     25  C17 <0> d           6.322   3.061  -0.526  0.00  0.00     0.256 C 
ATOM     26  O3  <0> d           5.593   3.122  -1.498  0.00  0.00    -0.268 OA
ATOM     27  N3  <0> d           7.565   3.578  -0.582  0.00  0.00    -0.354 N 
ATOM     28  H12 <0> d           8.171   3.465   0.166  0.00  0.00     0.162 HD
BRANCH  27  29
ATOM     29  C18 <0> d           8.000   4.312  -1.773  0.00  0.00     0.155 C 
BRANCH  29  30
ATOM     30  C19 <0> d           9.440   4.790  -1.579  0.00  0.00     0.139 C 
ATOM     31  O4  <0> d          10.323   3.663  -1.530  0.00  0.00    -0.384 OA
ATOM     32  C22 <0> d          11.256   3.725  -2.623  0.00  0.00     0.168 C 
ATOM     33  C21 <0> d          11.338   5.225  -3.001  0.00  0.00     0.029 C 
ATOM     34  C20 <0> d           9.867   5.667  -2.776  0.00  0.00     0.035 C 
ENDBRANCH  29  30
ENDBRANCH  27  29
ENDBRANCH   3  25
TORSDOF 5
