REMARK  2 active torsions:
REMARK  status: ('A' for Active; 'I' for Inactive)
REMARK    1  A    between atoms: N1_5  and  N2_6 
REMARK       I    between atoms: N2_6  and  C5_7 
REMARK    2  A    between atoms: C5_7  and  C6_9 
ROOT
ATOM      1  N2  <0> d           0.937  -2.704   0.345  0.00  0.00    -0.245 N 
ATOM      2  C5  <0> d           1.371  -3.970   0.505  0.00  0.00     0.269 C 
ATOM      3  O1  <0> d           2.475  -4.179   0.963  0.00  0.00    -0.269 OA
ATOM      4  H8  <0> d           0.054  -2.538  -0.021  0.00  0.00     0.192 HD
ENDROOT
BRANCH   1   5
ATOM      5  N1  <0> d           1.759  -1.630   0.708  0.00  0.00    -0.181 NA
ATOM      6  C4  <0> d           1.346  -0.428   0.556  0.00  0.00     0.032 C 
ATOM      7  C3  <0> d           2.113   0.837   0.899  0.00  0.00     0.056 C 
ATOM      8  C9  <0> d           0.002  -0.004   0.002  0.00  0.00     0.056 C 
ATOM      9  C2  <0> d           1.481   1.927  -0.002  0.00  0.00     0.006 C 
ATOM     10  C1  <0> d          -0.019   1.539   0.011  0.00  0.00     0.006 C 
ENDBRANCH   1   5
BRANCH   2  11
ATOM     11  C6  <0> d           0.487  -5.126   0.115  0.00  0.00     0.265 A 
ATOM     12  N4  <0> d           1.270  -6.368   0.005  0.00  0.00    -0.173 NA
ATOM     13  N3  <0> d           0.826  -7.165   0.841  0.00  0.00    -0.166 NA
ATOM     14  C8  <0> d          -0.202  -6.692   1.577  0.00  0.00     0.157 A 
ATOM     15  C7  <0> d          -0.505  -5.440   1.221  0.00  0.00     0.039 A 
ATOM     16  I1  <0> d          -2.000  -4.200   2.006  0.00  0.00    -0.045 I 
ENDBRANCH   2  11
TORSDOF 2
