REMARK  8 active torsions:
REMARK  status: ('A' for Active; 'I' for Inactive)
REMARK    1  A    between atoms: C2_2  and  O1_4 
REMARK    2  A    between atoms: O1_4  and  C4_5 
REMARK    3  A    between atoms: C7_8  and  C10_11 
REMARK    4  A    between atoms: C10_11  and  C11_13 
REMARK    5  A    between atoms: N1_17  and  C20_25 
REMARK    6  A    between atoms: C14_18  and  C15_19 
REMARK    7  A    between atoms: C20_25  and  C21_26 
REMARK    8  A    between atoms: C21_26  and  O4_27 
ROOT
ATOM      1  C11 <0> d           7.346  -1.016  -1.910  0.00  0.00     0.062 A 
ATOM      2  C12 <0> d           8.638  -1.316  -1.637  0.00  0.00     0.187 A 
ATOM      3  C13 <0> d           9.239  -1.982  -2.812  0.00  0.00     0.281 A 
ATOM      4  O3  <0> d          10.388  -2.374  -2.878  0.00  0.00    -0.265 OA
ATOM      5  N1  <0> d           8.328  -2.090  -3.795  0.00  0.00    -0.331 N 
ATOM      6  C14 <0> d           7.072  -1.504  -3.313  0.00  0.00     0.161 A 
ATOM      7  O5  <0> d           9.276  -1.049  -0.475  0.00  0.00    -0.185 OA
ENDROOT
BRANCH   1   8
ATOM      8  C10 <0> d           6.395  -0.351  -1.014  0.00  0.00     0.193 C 
ATOM      9  O2  <0> d           6.019  -0.913  -0.002  0.00  0.00    -0.287 OA
BRANCH   8  10
ATOM     10  C7  <0> d           5.895   0.999  -1.339  0.00  0.00     0.015 A 
ATOM     11  C6  <0> d           5.024   1.654  -0.462  0.00  0.00     0.018 A 
ATOM     12  C5  <0> d           4.560   2.913  -0.768  0.00  0.00     0.038 A 
ATOM     13  C4  <0> d           4.956   3.534  -1.948  0.00  0.00     0.069 A 
ATOM     14  C9  <0> d           5.817   2.884  -2.825  0.00  0.00     0.038 A 
ATOM     15  C8  <0> d           6.290   1.626  -2.524  0.00  0.00     0.018 A 
BRANCH  13  16
ATOM     16  O1  <0> d           4.496   4.775  -2.247  0.00  0.00    -0.347 OA
BRANCH  16  17
ATOM     17  C2  <0> d           3.641   5.398  -1.286  0.00  0.00     0.120 C 
ATOM     18  C1  <0> d           4.492   6.058  -0.199  0.00  0.00     0.040 C 
ATOM     19  C3  <0> d           2.785   6.461  -1.979  0.00  0.00     0.040 C 
ENDBRANCH  16  17
ENDBRANCH  13  16
ENDBRANCH   8  10
ENDBRANCH   1   8
BRANCH   6  20
ATOM     20  C15 <0> d           5.983  -2.545  -3.296  0.00  0.00    -0.028 A 
ATOM     21  C19 <0> d           4.788  -2.333  -3.966  0.00  0.00     0.029 A 
ATOM     22  C18 <0> d           3.814  -3.314  -3.933  0.00  0.00     0.117 A 
ATOM     23  N2  <0> d           4.008  -4.434  -3.266  0.00  0.00    -0.273 NA
ATOM     24  C17 <0> d           5.129  -4.668  -2.613  0.00  0.00     0.117 A 
ATOM     25  C16 <0> d           6.150  -3.736  -2.606  0.00  0.00     0.029 A 
ENDBRANCH   6  20
BRANCH   5  26
ATOM     26  C20 <0> d           8.549  -2.693  -5.112  0.00  0.00     0.153 C 
BRANCH  26  27
ATOM     27  C21 <0> d           8.385  -4.211  -5.013  0.00  0.00     0.184 C 
BRANCH  27  28
ATOM     28  O4  <0> d           7.019  -4.525  -4.733  0.00  0.00    -0.399 OA
ATOM     29  H21 <0> d           6.841  -5.472  -4.656  0.00  0.00     0.209 HD
ENDBRANCH  27  28
ENDBRANCH  26  27
ENDBRANCH   5  26
TORSDOF 8
