REMARK  6 active torsions:
REMARK  status: ('A' for Active; 'I' for Inactive)
REMARK    1  A    between atoms: C3_3  and  C23_26 
REMARK       I    between atoms: N2_9  and  C10_12 
REMARK    2  A    between atoms: C10_12  and  C11_14 
REMARK    3  A    between atoms: C14_17  and  C17_20 
REMARK    4  A    between atoms: C23_26  and  N3_27 
REMARK       I    between atoms: N3_27  and  C24_28 
REMARK    5  A    between atoms: C24_28  and  C25_30 
REMARK    6  A    between atoms: C25_30  and  N4_31 
ROOT
ATOM      1  C1  <0> d          -1.104   5.656  -4.012  0.00  0.00     0.071 C 
ATOM      2  C2  <0> d          -0.227   4.634  -3.336  0.00  0.00     0.038 A 
ATOM      3  C3  <0> d           0.868   5.049  -2.604  0.00  0.00    -0.009 A 
ATOM      4  C4  <0> d           1.673   4.100  -1.984  0.00  0.00    -0.037 A 
ATOM      5  C5  <0> d           1.340   2.769  -2.120  0.00  0.00    -0.016 A 
ATOM      6  C6  <0> d           0.226   2.426  -2.872  0.00  0.00     0.126 A 
ATOM      7  N1  <0> d          -0.509   3.351  -3.455  0.00  0.00    -0.265 NA
ATOM      8  C7  <0> d           2.138   1.668  -1.472  0.00  0.00     0.166 C 
ATOM      9  N2  <0> d           3.400   2.214  -0.958  0.00  0.00    -0.343 N 
ATOM     10  C8  <0> d           3.338   3.492  -0.228  0.00  0.00     0.131 C 
ATOM     11  C9  <0> d           2.869   4.571  -1.204  0.00  0.00     0.060 C 
ATOM     12  C10 <0> d           4.569   1.571  -1.146  0.00  0.00     0.254 C 
ATOM     13  O1  <0> d           5.613   2.097  -0.810  0.00  0.00    -0.267 OA
ENDROOT
BRANCH  12  14
ATOM     14  C11 <0> d           4.583   0.228  -1.761  0.00  0.00     0.032 A 
ATOM     15  C16 <0> d           5.648  -0.154  -2.580  0.00  0.00     0.018 A 
ATOM     16  C15 <0> d           5.660  -1.406  -3.152  0.00  0.00     0.013 A 
ATOM     17  C14 <0> d           4.609  -2.293  -2.915  0.00  0.00    -0.026 A 
ATOM     18  C13 <0> d           3.546  -1.912  -2.097  0.00  0.00     0.013 A 
ATOM     19  C12 <0> d           3.534  -0.662  -1.520  0.00  0.00     0.018 A 
BRANCH  17  20
ATOM     20  C17 <0> d           4.623  -3.641  -3.532  0.00  0.00    -0.026 A 
ATOM     21  C22 <0> d           3.575  -4.529  -3.296  0.00  0.00     0.012 A 
ATOM     22  C21 <0> d           3.594  -5.782  -3.874  0.00  0.00     0.001 A 
ATOM     23  C20 <0> d           4.649  -6.158  -4.685  0.00  0.00     0.000 A 
ATOM     24  C19 <0> d           5.692  -5.281  -4.922  0.00  0.00     0.001 A 
ATOM     25  C18 <0> d           5.682  -4.023  -4.354  0.00  0.00     0.012 A 
ENDBRANCH  17  20
ENDBRANCH  12  14
BRANCH   3  26
ATOM     26  C23 <0> d           1.185   6.517  -2.476  0.00  0.00     0.163 C 
BRANCH  26  27
ATOM     27  N3  <0> d           2.075   6.920  -3.568  0.00  0.00    -0.355 N 
ATOM     28  C24 <0> d           2.495   8.197  -3.659  0.00  0.00     0.236 C 
ATOM     29  O2  <0> d           2.136   9.013  -2.836  0.00  0.00    -0.272 OA
ATOM     30  H22 <0> d           2.362   6.268  -4.226  0.00  0.00     0.162 HD
BRANCH  28  31
ATOM     31  C25 <0> d           3.410   8.612  -4.782  0.00  0.00     0.231 C 
BRANCH  31  32
ATOM     32  N4  <0> d           3.719  10.039  -4.658  0.00  0.00    -0.341 N 
ATOM     33  C28 <0> d           4.752  10.579  -3.976  0.00  0.00     0.209 A 
ATOM     34  N5  <0> d           4.699  11.877  -4.095  0.00  0.00    -0.255 NA
ATOM     35  C27 <0> d           3.641  12.210  -4.850  0.00  0.00     0.135 A 
ATOM     36  C26 <0> d           3.018  11.073  -5.217  0.00  0.00     0.111 A 
ENDBRANCH  31  32
ENDBRANCH  28  31
ENDBRANCH  26  27
ENDBRANCH   3  26
TORSDOF 6
