REMARK  7 active torsions:
REMARK  status: ('A' for Active; 'I' for Inactive)
REMARK    1  A    between atoms: C2_2  and  O1_3 
REMARK    2  A    between atoms: O1_3  and  C3_4 
REMARK    3  A    between atoms: C8_9  and  N1_10 
REMARK    4  A    between atoms: C13_15  and  C15_17 
REMARK    5  A    between atoms: C13_15  and  N4_31 
REMARK       I    between atoms: C15_17  and  N2_19 
REMARK    6  A    between atoms: N2_19  and  C16_20 
REMARK    7  A    between atoms: C17_21  and  C20_25 
REMARK       I    between atoms: C20_25  and  N3_27 
ROOT
ATOM      1  N1  <0> d          -5.752   3.329   1.028  0.00  0.00    -0.278 NA
ATOM      2  C9  <0> d          -5.923   2.367  -0.070  0.00  0.00     0.123 C 
ATOM      3  C10 <0> d          -4.857   1.275   0.043  0.00  0.00     0.250 C 
ATOM      4  C11 <0> d          -3.352   2.851   1.096  0.00  0.00     0.250 C 
ATOM      5  C12 <0> d          -4.418   3.944   0.983  0.00  0.00     0.123 C 
ATOM      6  N4  <0> d          -3.521   1.904  -0.026  0.00  0.00    -0.056 N 
ATOM      7  H27 <0> d          -3.439   2.417  -0.912  0.00  0.00     0.281 HD
ENDROOT
BRANCH   6   8
ATOM      8  C13 <0> d          -2.470   0.865   0.027  0.00  0.00     0.275 C 
ATOM      9  C14 <0> d          -2.750  -0.122   1.161  0.00  0.00     0.050 C 
BRANCH   8  10
ATOM     10  C15 <0> d          -2.450   0.128  -1.287  0.00  0.00     0.253 C 
ATOM     11  O2  <0> d          -3.314   0.336  -2.113  0.00  0.00    -0.271 OA
ATOM     12  N2  <0> d          -1.472  -0.763  -1.545  0.00  0.00    -0.319 N 
ATOM     13  H22 <0> d          -0.781  -0.929  -0.885  0.00  0.00     0.169 HD
BRANCH  12  14
ATOM     14  C16 <0> d          -1.457  -1.446  -2.752  0.00  0.00     0.092 A 
ATOM     15  S1  <0> d          -2.570  -1.320  -4.073  0.00  0.00    -0.083 SA
ATOM     16  C19 <0> d          -1.842  -2.503  -5.188  0.00  0.00     0.053 A 
ATOM     17  C18 <0> d          -0.772  -2.952  -4.508  0.00  0.00     0.027 A 
ATOM     18  C17 <0> d          -0.542  -2.392  -3.197  0.00  0.00     0.066 A 
BRANCH  18  19
ATOM     19  C20 <0> d           0.599  -2.805  -2.374  0.00  0.00     0.252 C 
ATOM     20  O3  <0> d           0.763  -2.316  -1.272  0.00  0.00    -0.268 OA
ATOM     21  N3  <0> d           1.467  -3.726  -2.838  0.00  0.00    -0.366 N 
ATOM     22  H25 <0> d           1.337  -4.116  -3.717  0.00  0.00     0.159 HD
ATOM     23  H26 <0> d           2.222  -3.999  -2.294  0.00  0.00     0.159 HD
ENDBRANCH  18  19
ENDBRANCH  12  14
ENDBRANCH   8  10
ENDBRANCH   6   8
BRANCH   1  24
ATOM     24  C8  <0> d          -6.755   4.305   1.000  0.00  0.00     0.044 A 
ATOM     25  C3  <0> d          -8.081   3.951   1.244  0.00  0.00     0.090 A 
ATOM     26  C4  <0> d          -9.069   4.920   1.215  0.00  0.00     0.038 A 
ATOM     27  C5  <0> d          -8.740   6.236   0.946  0.00  0.00     0.003 A 
ATOM     28  C6  <0> d          -7.425   6.588   0.705  0.00  0.00     0.002 A 
ATOM     29  C7  <0> d          -6.432   5.628   0.736  0.00  0.00     0.026 A 
BRANCH  25  30
ATOM     30  O1  <0> d          -8.403   2.656   1.509  0.00  0.00    -0.350 OA
BRANCH  30  31
ATOM     31  C2  <0> d          -9.782   2.367   1.748  0.00  0.00     0.171 C 
ATOM     32  C1  <0> d          -9.949   0.872   2.027  0.00  0.00     0.034 C 
ENDBRANCH  30  31
ENDBRANCH  25  30
ENDBRANCH   1  24
TORSDOF 7
