REMARK  2 active torsions:
REMARK  status: ('A' for Active; 'I' for Inactive)
REMARK    1  A    between atoms: C4_5  and  N3_7 
REMARK       I    between atoms: N3_7  and  C5_8 
REMARK    2  A    between atoms: C5_8  and  C6_10 
ROOT
ATOM      1  N3  <0> d          -4.197   2.922  -1.394  0.00  0.00    -0.305 N 
ATOM      2  C5  <0> d          -5.030   3.416  -2.331  0.00  0.00     0.282 C 
ATOM      3  O1  <0> d          -4.660   3.504  -3.488  0.00  0.00    -0.265 OA
ATOM      4  H2  <0> d          -4.491   2.852  -0.472  0.00  0.00     0.170 HD
ENDROOT
BRANCH   1   5
ATOM      5  C4  <0> d          -2.917   2.513  -1.747  0.00  0.00     0.140 A 
ATOM      6  C3  <0> d          -2.046   2.000  -0.786  0.00  0.00     0.013 A 
ATOM      7  C2  <0> d          -0.784   1.607  -1.183  0.00  0.00     0.046 A 
ATOM      8  C10 <0> d          -2.214   1.773   0.697  0.00  0.00     0.045 C 
ATOM      9  N1  <0> d          -0.443   1.728  -2.460  0.00  0.00    -0.246 NA
ATOM     10  C12 <0> d          -0.013   1.086   0.008  0.00  0.00     0.060 C 
ATOM     11  C1  <0> d          -1.289   2.217  -3.344  0.00  0.00     0.235 A 
ATOM     12  N2  <0> d          -2.502   2.604  -3.007  0.00  0.00    -0.224 NA
ATOM     13  C11 <0> d          -0.777   1.604   1.245  0.00  0.00     0.011 C 
ENDBRANCH   1   5
BRANCH   2  14
ATOM     14  C6  <0> d          -6.377   3.846  -1.959  0.00  0.00     0.159 C 
ATOM     15  O3  <0> d          -7.206   4.343  -2.919  0.00  0.00    -0.342 OA
ATOM     16  C9  <0> d          -8.601   4.400  -2.595  0.00  0.00     0.202 C 
ATOM     17  C8  <0> d          -8.736   4.968  -1.175  0.00  0.00     0.201 C 
ATOM     18  O2  <0> d          -8.002   4.119  -0.284  0.00  0.00    -0.358 OA
ATOM     19  C7  <0> d          -6.770   3.738  -0.682  0.00  0.00     0.177 C 
ENDBRANCH   2  14
TORSDOF 2
