REMARK  7 active torsions:
REMARK  status: ('A' for Active; 'I' for Inactive)
REMARK    1  A    between atoms: C2_2  and  C11_18 
REMARK    2  A    between atoms: C4_5  and  S1_8 
REMARK    3  A    between atoms: S1_8  and  C6_9 
REMARK    4  A    between atoms: C6_9  and  C7_10 
REMARK    5  A    between atoms: C7_10  and  N2_11 
REMARK    6  A    between atoms: N2_11  and  N3_12 
REMARK       I    between atoms: N3_12  and  C8_13 
REMARK    7  A    between atoms: C8_13  and  C9_15 
ROOT
ATOM      1  C9  <0> d          -3.092  -4.671   0.007  0.00  0.00     0.228 C 
ATOM      2  C10 <0> d          -2.623  -6.066  -0.005  0.00  0.00     0.068 C 
ATOM      3  N4  <0> d          -2.261  -7.143  -0.015  0.00  0.00    -0.197 NA
ENDROOT
BRANCH   1   4
ATOM      4  C8  <0> d          -1.906  -3.742   0.000  0.00  0.00     0.249 C 
ATOM      5  N3  <0> d          -2.095  -2.408   0.009  0.00  0.00    -0.268 N 
ATOM      6  H7  <0> d          -2.995  -2.045   0.020  0.00  0.00     0.190 HD
ATOM      7  O1  <0> d          -0.781  -4.195  -0.013  0.00  0.00    -0.271 OA
BRANCH   5   8
ATOM      8  N2  <0> d          -0.993  -1.544   0.003  0.00  0.00    -0.286 N 
ATOM      9  H6  <0> d          -0.093  -1.906  -0.007  0.00  0.00     0.188 HD
BRANCH   8  10
ATOM     10  C7  <0> d          -1.185  -0.187   0.012  0.00  0.00     0.099 C 
ATOM     11  N5  <0> d          -2.378   0.366   0.027  0.00  0.00    -0.387 N 
ATOM     12  H5  <0> d          -3.212  -0.221   0.032  0.00  0.00     0.157 HD
ATOM     13  H10 <0> d          -2.469   1.389   0.033  0.00  0.00     0.157 HD
BRANCH  10  14
ATOM     14  C6  <0> d           0.001   0.742   0.006  0.00  0.00     0.158 C 
BRANCH  14  15
ATOM     15  S1  <0> d          -0.578   2.461   0.021  0.00  0.00    -0.101 SA
BRANCH  15  16
ATOM     16  C4  <0> d           0.907   3.411   0.012  0.00  0.00     0.115 A 
ATOM     17  N1  <0> d           2.079   2.796  -0.003  0.00  0.00    -0.252 NA
ATOM     18  C3  <0> d           3.214   3.470  -0.010  0.00  0.00     0.134 A 
ATOM     19  C2  <0> d           3.219   4.850  -0.003  0.00  0.00     0.067 A 
ATOM     20  C1  <0> d           2.010   5.534   0.013  0.00  0.00     0.044 A 
ATOM     21  C5  <0> d           0.837   4.802   0.014  0.00  0.00     0.070 A 
ATOM     22 Cl1  <0> d          -0.702   5.606   0.026  0.00  0.00    -0.081 Cl
BRANCH  19  23
ATOM     23  C11 <0> d           4.522   5.606  -0.011  0.00  0.00     0.418 C 
ATOM     24  F1  <0> d           5.588   4.700  -0.025  0.00  0.00    -0.166 F 
ATOM     25  F2  <0> d           4.584   6.417  -1.149  0.00  0.00    -0.166 F 
ATOM     26  F3  <0> d           4.605   6.404   1.135  0.00  0.00    -0.166 F 
ENDBRANCH  19  23
ENDBRANCH  15  16
ENDBRANCH  14  15
ENDBRANCH  10  14
ENDBRANCH   8  10
ENDBRANCH   5   8
ENDBRANCH   1   4
TORSDOF 7
