REMARK  5 active torsions:
REMARK  status: ('A' for Active; 'I' for Inactive)
REMARK    1  A    between atoms: C7_7  and  C9_11 
REMARK    2  A    between atoms: C9_11  and  P1_17 
REMARK    3  A    between atoms: C9_11  and  N4_31 
REMARK    4  A    between atoms: P1_17  and  N2_19 
REMARK    5  A    between atoms: P1_17  and  N3_25 
ROOT
ATOM      1  C9  <0> d          -1.772   4.211   2.875  0.00  0.00     0.316 C 
ENDROOT
BRANCH   1   2
ATOM      2  C7  <0> d          -3.057   3.428   2.965  0.00  0.00     0.010 A 
ATOM      3  C5  <0> d          -3.939   3.332   4.131  0.00  0.00     0.001 A 
ATOM      4  C4  <0> d          -5.004   2.499   3.744  0.00  0.00     0.043 A 
ATOM      5  C6  <0> d          -3.905   3.868   5.420  0.00  0.00     0.014 A 
ATOM      6  C3  <0> d          -6.016   2.219   4.657  0.00  0.00     0.030 A 
ATOM      7  N1  <0> d          -4.775   2.125   2.439  0.00  0.00    -0.365 N 
ATOM      8  C2  <0> d          -5.963   2.758   5.924  0.00  0.00     0.002 A 
ATOM      9  C1  <0> d          -4.910   3.580   6.300  0.00  0.00     0.001 A 
ATOM     10  C8  <0> d          -3.614   2.692   1.990  0.00  0.00     0.099 A 
ATOM     11  H1  <0> d          -5.352   1.548   1.915  0.00  0.00     0.165 HD
ENDBRANCH   1   2
BRANCH   1  12
ATOM     12  P1  <0> d          -0.628   3.653   4.180  0.00  0.00     0.248 P 
ATOM     13  O2  <0> d          -1.240   3.892   5.507  0.00  0.00    -0.284 OA
BRANCH  12  14
ATOM     14  N2  <0> d          -0.321   2.009   3.992  0.00  0.00    -0.244 NA
ATOM     15  C17 <0> d           0.625   1.530   5.011  0.00  0.00     0.125 C 
ATOM     16  C16 <0> d           0.921   0.048   4.767  0.00  0.00     0.182 C 
ATOM     17  O3  <0> d          -0.305  -0.687   4.779  0.00  0.00    -0.389 OA
ATOM     18  C15 <0> d          -1.250  -0.247   3.799  0.00  0.00     0.182 C 
ATOM     19  C14 <0> d          -1.568   1.232   4.033  0.00  0.00     0.125 C 
ENDBRANCH  12  14
BRANCH  12  20
ATOM     20  N3  <0> d           0.815   4.510   4.065  0.00  0.00    -0.244 NA
ATOM     21  C21 <0> d           1.521   4.530   5.355  0.00  0.00     0.125 C 
ATOM     22  C20 <0> d           2.795   5.368   5.221  0.00  0.00     0.182 C 
ATOM     23  O4  <0> d           3.603   4.832   4.169  0.00  0.00    -0.389 OA
ATOM     24  C19 <0> d           2.947   4.799   2.899  0.00  0.00     0.182 C 
ATOM     25  C18 <0> d           1.675   3.955   3.010  0.00  0.00     0.125 C 
ENDBRANCH  12  20
ENDBRANCH   1  12
BRANCH   1  26
ATOM     26  N4  <0> d          -1.134   4.007   1.556  0.00  0.00    -0.050 N 
ATOM     27  C10 <0> d          -0.761   2.587   1.389  0.00  0.00     0.262 C 
ATOM     28  C11 <0> d          -0.073   2.416   0.032  0.00  0.00     0.195 C 
ATOM     29  O1  <0> d          -0.955   2.860  -1.003  0.00  0.00    -0.388 OA
ATOM     30  C12 <0> d          -1.359   4.225  -0.869  0.00  0.00     0.195 C 
ATOM     31  C13 <0> d          -2.060   4.414   0.478  0.00  0.00     0.262 C 
ATOM     32  H32 <0> d          -0.286   4.584   1.503  0.00  0.00     0.281 HD
ENDBRANCH   1  26
TORSDOF 5
