REMARK  7 active torsions:
REMARK  status: ('A' for Active; 'I' for Inactive)
REMARK    1  A    between atoms: C2_2  and  C3_3 
REMARK    2  A    between atoms: C3_3  and  S1_4 
REMARK    3  A    between atoms: S1_4  and  C4_5 
REMARK    4  A    between atoms: C5_8  and  C9_15 
REMARK    5  A    between atoms: N3_9  and  C6_10 
REMARK    6  A    between atoms: C6_10  and  C7_11 
REMARK    7  A    between atoms: C7_11  and  C8_12 
REMARK       I    between atoms: C8_12  and  N4_14 
ROOT
ATOM      1  C4  <0> d           3.195  -2.248   1.449  0.00  0.00     0.191 A 
ATOM      2  N1  <0> d           3.920  -2.313   0.357  0.00  0.00    -0.123 NA
ATOM      3  N2  <0> d           4.990  -2.988   0.582  0.00  0.00    -0.134 NA
ATOM      4  C5  <0> d           5.012  -3.390   1.822  0.00  0.00     0.135 A 
ATOM      5  N3  <0> d           3.873  -2.928   2.420  0.00  0.00    -0.310 N 
ENDROOT
BRANCH   5   6
ATOM      6  C6  <0> d           3.462  -3.125   3.812  0.00  0.00     0.142 C 
BRANCH   6   7
ATOM      7  C7  <0> d           2.636  -4.408   3.924  0.00  0.00     0.123 C 
BRANCH   7   8
ATOM      8  C8  <0> d           2.214  -4.611   5.356  0.00  0.00     0.216 C 
ATOM      9  O1  <0> d           2.542  -3.808   6.205  0.00  0.00    -0.274 OA
ATOM     10  N4  <0> d           1.473  -5.684   5.695  0.00  0.00    -0.370 N 
ATOM     11  H9  <0> d           1.210  -6.326   5.016  0.00  0.00     0.159 HD
ATOM     12  H10 <0> d           1.201  -5.814   6.617  0.00  0.00     0.159 HD
ENDBRANCH   7   8
ENDBRANCH   6   7
ENDBRANCH   5   6
BRANCH   1  13
ATOM     13  S1  <0> d           1.645  -1.430   1.631  0.00  0.00    -0.085 SA
BRANCH  13  14
ATOM     14  C3  <0> d           1.317  -0.740  -0.015  0.00  0.00     0.128 C 
BRANCH  14  15
ATOM     15  C2  <0> d           0.002  -0.004   0.002  0.00  0.00    -0.011 C 
ATOM     16  C1  <0> d          -0.016   1.307   0.009  0.00  0.00     0.027 C 
ATOM     17 Br1  <0> d          -1.623  -0.972   0.012  0.00  0.00    -0.056 Br
ENDBRANCH  14  15
ENDBRANCH  13  14
ENDBRANCH   1  13
BRANCH   4  18
ATOM     18  C9  <0> d           6.096  -4.207   2.476  0.00  0.00     0.057 A 
ATOM     19  C11 <0> d           7.506  -3.613   2.509  0.00  0.00     0.013 A 
ATOM     20  C10 <0> d           7.190  -4.782   1.574  0.00  0.00     0.013 A 
ENDBRANCH   4  18
TORSDOF 7
