REMARK  3 active torsions:
REMARK  status: ('A' for Active; 'I' for Inactive)
REMARK    1  A    between atoms: C4_5  and  C5_6 
REMARK    2  A    between atoms: C5_6  and  C6_7 
REMARK    3  A    between atoms: C5_6  and  N2_18 
ROOT
ATOM      1  C6  <0> d          -1.479  -1.392  -1.390  0.00  0.00     0.001 A 
ATOM      2  C7  <0> d          -1.079  -2.661  -1.770  0.00  0.00     0.021 A 
ATOM      3  C8  <0> d          -1.327  -3.105  -3.049  0.00  0.00    -0.022 A 
ATOM      4  C9  <0> d          -1.978  -2.294  -3.971  0.00  0.00     0.043 A 
ATOM      5  C10 <0> d          -2.378  -1.017  -3.582  0.00  0.00     0.054 A 
ATOM      6  C11 <0> d          -2.133  -0.576  -2.296  0.00  0.00     0.045 A 
ATOM      7 Cl1  <0> d          -2.642   1.013  -1.817  0.00  0.00    -0.084 Cl
ATOM      8  N1  <0> d          -2.114  -2.960  -5.189  0.00  0.00    -0.326 N 
ATOM      9  C12 <0> d          -1.587  -4.196  -5.154  0.00  0.00     0.226 A 
ATOM     10  O2  <0> d          -1.564  -4.995  -6.066  0.00  0.00    -0.273 OA
ATOM     11  C13 <0> d          -1.028  -4.403  -3.763  0.00  0.00     0.144 A 
ATOM     12  H6  <0> d          -2.540  -2.576  -5.971  0.00  0.00     0.169 HD
ENDROOT
BRANCH   1  13
ATOM     13  C5  <0> d          -1.208  -0.902   0.009  0.00  0.00     0.275 C 
BRANCH  13  14
ATOM     14  C4  <0> d           0.002  -0.004   0.002  0.00  0.00     0.089 A 
ATOM     15  C1  <0> d          -0.016   1.341   0.009  0.00  0.00     0.038 A 
ATOM     16  C2  <0> d           1.331   1.769  -0.001  0.00  0.00     0.048 A 
ATOM     17  C3  <0> d           2.093   0.659  -0.014  0.00  0.00     0.122 A 
ATOM     18  O1  <0> d           1.282  -0.412  -0.012  0.00  0.00    -0.305 OA
ATOM     19 Br1  <0> d           3.983   0.615  -0.034  0.00  0.00    -0.023 Br
ENDBRANCH  13  14
BRANCH  13  20
ATOM     20  N2  <0> d          -0.961  -2.050   0.891  0.00  0.00    -0.065 N 
ATOM     21  H9  <0> d          -0.162  -2.566   0.555  0.00  0.00     0.275 HD
ATOM     22  H10 <0> d          -0.780  -1.722   1.828  0.00  0.00     0.275 HD
ATOM     23  H11 <0> d          -1.771  -2.651   0.896  0.00  0.00     0.275 HD
ENDBRANCH  13  20
ENDBRANCH   1  13
TORSDOF 3
