REMARK  7 active torsions:
REMARK  status: ('A' for Active; 'I' for Inactive)
REMARK    1  A    between atoms: C2_2  and  C3_3 
REMARK    2  A    between atoms: C3_3  and  C4_4 
REMARK    3  A    between atoms: C4_4  and  N1_5 
REMARK    4  A    between atoms: C7_9  and  C20_26 
REMARK    5  A    between atoms: C15_19  and  C18_24 
REMARK    6  A    between atoms: C20_26  and  C21_27 
REMARK    7  A    between atoms: C21_27  and  C22_28 
ROOT
ATOM      1  N1  <0> d          -2.787  -2.571   0.015  0.00  0.00    -0.288 N 
ATOM      2  C5  <0> d          -3.488  -2.833   1.158  0.00  0.00     0.233 C 
ATOM      3  O1  <0> d          -3.230  -2.449   2.278  0.00  0.00    -0.272 OA
ATOM      4  C6  <0> d          -4.646  -3.696   0.738  0.00  0.00     0.128 C 
ATOM      5  C7  <0> d          -6.037  -3.419   1.321  0.00  0.00     0.237 C 
ATOM      6  N2  <0> d          -6.947  -3.752   0.175  0.00  0.00     0.113 N 
ATOM      7  C8  <0> d          -6.174  -3.532  -1.087  0.00  0.00     0.279 A 
ATOM      8  C9  <0> d          -4.870  -2.995  -0.663  0.00  0.00     0.147 C 
ATOM      9  C10 <0> d          -3.511  -2.828  -1.123  0.00  0.00     0.234 C 
ATOM     10  O2  <0> d          -3.101  -2.900  -2.261  0.00  0.00    -0.272 OA
ATOM     11  C11 <0> d          -6.066  -4.832  -1.841  0.00  0.00     0.018 A 
ATOM     12  C12 <0> d          -5.477  -6.043  -1.555  0.00  0.00     0.012 A 
ATOM     13  C13 <0> d          -5.544  -7.079  -2.470  0.00  0.00     0.001 A 
ATOM     14  C14 <0> d          -6.205  -6.894  -3.670  0.00  0.00     0.009 A 
ATOM     15  C15 <0> d          -6.799  -5.684  -3.960  0.00  0.00    -0.031 A 
ATOM     16  C16 <0> d          -6.735  -4.636  -3.045  0.00  0.00     0.050 A 
ATOM     17  N3  <0> d          -7.248  -3.339  -3.106  0.00  0.00    -0.324 N 
ATOM     18  C17 <0> d          -6.965  -2.627  -2.000  0.00  0.00     0.267 A 
ATOM     19  O3  <0> d          -7.284  -1.478  -1.779  0.00  0.00    -0.270 OA
ATOM     20  H13 <0> d          -7.274  -4.704   0.238  0.00  0.00     0.318 HD
ATOM     21  H17 <0> d          -7.751  -2.991  -3.859  0.00  0.00     0.169 HD
ENDROOT
BRANCH   5  22
ATOM     22  C20 <0> d          -6.314  -4.327   2.520  0.00  0.00     0.047 C 
BRANCH  22  23
ATOM     23  C21 <0> d          -7.652  -3.942   3.154  0.00  0.00     0.115 C 
BRANCH  23  24
ATOM     24  C22 <0> d          -7.924  -4.837   4.335  0.00  0.00     0.172 C 
ATOM     25  O4  <0> d          -7.122  -5.702   4.642  0.00  0.00    -0.648 OA
ATOM     26  O5  <0> d          -8.947  -4.695   4.984  0.00  0.00    -0.648 OA
ENDBRANCH  23  24
ENDBRANCH  22  23
ENDBRANCH   5  22
BRANCH   1  27
ATOM     27  C4  <0> d          -1.413  -2.063   0.004  0.00  0.00     0.135 C 
BRANCH  27  28
ATOM     28  C3  <0> d          -1.433  -0.534   0.013  0.00  0.00     0.020 C 
BRANCH  28  29
ATOM     29  C2  <0> d           0.002  -0.004   0.002  0.00  0.00    -0.003 C 
ATOM     30  C1  <0> d          -0.019   1.526   0.010  0.00  0.00     0.005 C 
ENDBRANCH  28  29
ENDBRANCH  27  28
ENDBRANCH   1  27
BRANCH  15  31
ATOM     31  C18 <0> d          -7.518  -5.494  -5.271  0.00  0.00     0.036 C 
ATOM     32  C19 <0> d          -6.567  -4.857  -6.286  0.00  0.00     0.010 C 
ENDBRANCH  15  31
TORSDOF 7
