REMARK  5 active torsions:
REMARK  status: ('A' for Active; 'I' for Inactive)
REMARK    1  A    between atoms: C3_3  and  C10_11 
REMARK    2  A    between atoms: C10_11  and  C11_13 
REMARK    3  A    between atoms: C11_13  and  N2_14 
REMARK    4  A    between atoms: C13_17  and  C15_21 
REMARK    5  A    between atoms: C15_21  and  C16_22 
ROOT
ATOM      1  C10 <0> d           0.521   1.046  -3.295  0.00  0.00     0.176 C 
ATOM      2  O1  <0> d          -0.500   1.576  -3.684  0.00  0.00    -0.291 OA
ENDROOT
BRANCH   1   3
ATOM      3  C3  <0> d           0.918   1.184  -1.948  0.00  0.00     0.024 A 
ATOM      4  C2  <0> d           0.203   1.949  -0.857  0.00  0.00     0.115 A 
ATOM      5  C1  <0> d           0.104   3.430  -1.230  0.00  0.00     0.037 C 
ATOM      6  N1  <0> d           1.013   1.787   0.354  0.00  0.00    -0.381 N 
ATOM      7  C9  <0> d           2.055   1.053   0.078  0.00  0.00     0.039 A 
ATOM      8  H22 <0> d           0.807   2.166   1.222  0.00  0.00     0.160 HD
ATOM      9  C4  <0> d           2.044   0.648  -1.349  0.00  0.00     0.002 A 
ATOM     10  C8  <0> d           3.176   0.586   0.911  0.00  0.00     0.030 A 
ATOM     11  C5  <0> d           3.101  -0.158  -1.834  0.00  0.00     0.014 A 
ATOM     12  C6  <0> d           4.096  -0.547  -1.006  0.00  0.00     0.001 A 
ATOM     13  C7  <0> d           4.136  -0.181   0.349  0.00  0.00     0.002 A 
ENDBRANCH   1   3
BRANCH   1  14
ATOM     14  C11 <0> d           1.363   0.241  -4.250  0.00  0.00     0.220 C 
BRANCH  14  15
ATOM     15  N2  <0> d           0.741   0.250  -5.577  0.00  0.00    -0.261 N 
ATOM     16  C14 <0> d           0.994   1.165  -6.519  0.00  0.00     0.326 A 
ATOM     17  N3  <0> d           0.296   0.946  -7.648  0.00  0.00    -0.329 N 
ATOM     18  O3  <0> d           1.771   2.088  -6.374  0.00  0.00    -0.247 OA
ATOM     19  C13 <0> d          -0.522  -0.256  -7.412  0.00  0.00     0.179 A 
ATOM     20  H12 <0> d           0.323   1.478  -8.459  0.00  0.00     0.165 HD
ATOM     21  C12 <0> d          -0.161  -0.659  -5.996  0.00  0.00     0.251 A 
ATOM     22  O2  <0> d          -0.595  -1.603  -5.370  0.00  0.00    -0.271 OA
BRANCH  19  23
ATOM     23  C15 <0> d          -0.152  -1.365  -8.399  0.00  0.00     0.038 C 
BRANCH  23  24
ATOM     24  C16 <0> d          -1.020  -2.597  -8.131  0.00  0.00    -0.020 C 
ATOM     25  C17 <0> d          -2.483  -2.263  -8.425  0.00  0.00     0.009 C 
ATOM     26  C18 <0> d          -0.567  -3.746  -9.034  0.00  0.00     0.009 C 
ENDBRANCH  23  24
ENDBRANCH  19  23
ENDBRANCH  14  15
ENDBRANCH   1  14
TORSDOF 5
