REMARK  3 active torsions:
REMARK  status: ('A' for Active; 'I' for Inactive)
REMARK    1  A    between atoms: C2_2  and  C5_5 
REMARK    2  A    between atoms: C5_5  and  C6_6 
REMARK    3  A    between atoms: C5_5  and  N1_13 
ROOT
ATOM      1  C5  <0> d           0.718  -0.497  -1.257  0.00  0.00     0.225 C 
ENDROOT
BRANCH   1   2
ATOM      2  C2  <0> d           0.002  -0.004   0.002  0.00  0.00    -0.019 C 
ATOM      3  C1  <0> d          -0.019   1.526   0.010  0.00  0.00     0.017 C 
ATOM      4  C3  <0> d           0.742  -0.511   1.242  0.00  0.00     0.017 C 
ATOM      5  C4  <0> d          -1.433  -0.534   0.013  0.00  0.00     0.017 C 
ENDBRANCH   1   2
BRANCH   1   6
ATOM      6  C6  <0> d           2.132   0.024  -1.268  0.00  0.00    -0.001 A 
ATOM      7  C9  <0> d           2.394   1.294  -1.663  0.00  0.00     0.061 A 
ATOM      8  S1  <0> d           4.168   1.379  -1.482  0.00  0.00    -0.074 SA
ATOM      9 Br1  <0> d           1.192   2.630  -2.252  0.00  0.00    -0.042 Br
ATOM     10  C8  <0> d           4.442  -0.286  -0.901  0.00  0.00     0.053 A 
ATOM     11  C7  <0> d           3.183  -0.787  -0.879  0.00  0.00     0.037 A 
ATOM     12 Br2  <0> d           6.068  -1.132  -0.435  0.00  0.00    -0.043 Br
ENDBRANCH   1   6
BRANCH   1  13
ATOM     13  N1  <0> d           0.738  -1.966  -1.265  0.00  0.00    -0.070 N 
ATOM     14  H12 <0> d           1.226  -2.301  -0.447  0.00  0.00     0.275 HD
ATOM     15  H13 <0> d          -0.208  -2.316  -1.258  0.00  0.00     0.275 HD
ATOM     16  H14 <0> d           1.210  -2.292  -2.095  0.00  0.00     0.275 HD
ENDBRANCH   1  13
TORSDOF 3
