REMARK  3 active torsions:
REMARK  status: ('A' for Active; 'I' for Inactive)
REMARK    1  A    between atoms: C3_3  and  C5_6 
REMARK    2  A    between atoms: N1_8  and  C8_11 
REMARK    3  A    between atoms: C12_16  and  N4_17 
ROOT
ATOM      1  C5  <0> d           3.741   1.825  -0.024  0.00  0.00     0.091 A 
ATOM      2  C6  <0> d           4.865   1.057  -0.044  0.00  0.00     0.131 A 
ATOM      3  N1  <0> d           5.929   1.919  -0.047  0.00  0.00    -0.311 N 
ATOM      4  C7  <0> d           5.427   3.182  -0.029  0.00  0.00     0.215 A 
ATOM      5  N2  <0> d           4.124   3.118  -0.021  0.00  0.00    -0.241 NA
ENDROOT
BRANCH   3   6
ATOM      6  C8  <0> d           7.287   1.565  -0.066  0.00  0.00     0.083 A 
ATOM      7  C12 <0> d           8.160   2.144  -0.994  0.00  0.00     0.056 A 
ATOM      8  C11 <0> d           9.500   1.761  -0.966  0.00  0.00     0.050 A 
ATOM      9  C10 <0> d           9.912   0.825  -0.041  0.00  0.00     0.118 A 
ATOM     10  N3  <0> d           9.059   0.295   0.816  0.00  0.00    -0.271 NA
ATOM     11  C9  <0> d           7.783   0.632   0.829  0.00  0.00     0.148 A 
BRANCH   7  12
ATOM     12  N4  <0> d           7.704   3.083  -1.917  0.00  0.00    -0.397 N 
ATOM     13  H9  <0> d           6.769   3.343  -1.922  0.00  0.00     0.156 HD
ATOM     14  H10 <0> d           8.320   3.476  -2.554  0.00  0.00     0.156 HD
ENDBRANCH   7  12
ENDBRANCH   3   6
BRANCH   1  15
ATOM     15  C3  <0> d           2.348   1.329  -0.013  0.00  0.00     0.035 A 
ATOM     16  C2  <0> d           1.179   2.041   0.002  0.00  0.00     0.022 A 
ATOM     17  C1  <0> d          -0.016   1.353   0.009  0.00  0.00     0.008 A 
ATOM     18  C4  <0> d           0.002  -0.004   0.002  0.00  0.00     0.050 A 
ATOM     19  S1  <0> d           1.752  -0.355  -0.017  0.00  0.00    -0.100 SA
ENDBRANCH   1  15
TORSDOF 3
