REMARK  6 active torsions:
REMARK  status: ('A' for Active; 'I' for Inactive)
REMARK    1  A    between atoms: C2_2  and  O1_3 
REMARK    2  A    between atoms: O1_3  and  C3_4 
REMARK       I    between atoms: C3_4  and  N1_6 
REMARK    3  A    between atoms: C6_9  and  N2_12 
REMARK    4  A    between atoms: N2_12  and  C9_13 
REMARK    5  A    between atoms: C12_17  and  O4_18 
REMARK    6  A    between atoms: N4_22  and  C18_26 
ROOT
ATOM      1  C9  <0> d           1.929  -3.985  -7.099  0.00  0.00     0.097 A 
ATOM      2  C10 <0> d           1.365  -4.834  -8.165  0.00  0.00     0.113 A 
ATOM      3  C11 <0> d           2.151  -5.958  -7.600  0.00  0.00     0.236 A 
ATOM      4  O3  <0> d           2.306  -7.134  -7.870  0.00  0.00    -0.283 OA
ATOM      5  C12 <0> d           2.664  -5.042  -6.583  0.00  0.00     0.147 A 
ATOM      6  N3  <0> d           0.541  -4.669  -9.161  0.00  0.00    -0.372 N 
ATOM      7  C13 <0> d          -0.061  -3.355  -9.425  0.00  0.00     0.143 C 
ATOM      8  C14 <0> d           0.248  -2.955 -10.873  0.00  0.00     0.143 C 
ATOM      9  N4  <0> d          -0.095  -4.080 -11.754  0.00  0.00    -0.373 N 
ATOM     10  C15 <0> d           0.508  -5.394 -11.491  0.00  0.00     0.098 C 
ATOM     11  C16 <0> d           0.204  -5.793 -10.046  0.00  0.00     0.148 C 
ATOM     12  C17 <0> d          -0.081  -6.431 -12.450  0.00  0.00     0.034 C 
ENDROOT
BRANCH   1  13
ATOM     13  N2  <0> d           1.786  -2.665  -6.755  0.00  0.00    -0.381 N 
ATOM     14  H33 <0> d           1.201  -2.090  -7.272  0.00  0.00     0.160 HD
BRANCH  13  15
ATOM     15  C6  <0> d           2.519  -2.124  -5.608  0.00  0.00     0.085 C 
ATOM     16  C5  <0> d           2.705  -0.615  -5.787  0.00  0.00     0.045 C 
ATOM     17  C4  <0> d           3.501  -0.059  -4.603  0.00  0.00     0.130 C 
ATOM     18  N1  <0> d           2.822  -0.439  -3.357  0.00  0.00    -0.328 N 
ATOM     19  C3  <0> d           2.490   0.495  -2.443  0.00  0.00     0.362 C 
ATOM     20  C8  <0> d           2.518  -1.857  -3.122  0.00  0.00     0.130 C 
ATOM     21  O2  <0> d           1.933   0.168  -1.414  0.00  0.00    -0.238 OA
ATOM     22  C7  <0> d           1.728  -2.393  -4.325  0.00  0.00     0.045 C 
BRANCH  19  23
ATOM     23  O1  <0> d           2.775   1.791  -2.671  0.00  0.00    -0.304 OA
BRANCH  23  24
ATOM     24  C2  <0> d           2.394   2.727  -1.661  0.00  0.00     0.176 C 
ATOM     25  C1  <0> d           2.796   4.138  -2.094  0.00  0.00     0.034 C 
ENDBRANCH  23  24
ENDBRANCH  19  23
ENDBRANCH  13  15
ENDBRANCH   1  13
BRANCH   5  26
ATOM     26  O4  <0> d           3.522  -5.174  -5.543  0.00  0.00    -0.355 OA
ATOM     27  H32 <0> d           3.881  -6.066  -5.441  0.00  0.00     0.218 HD
ENDBRANCH   5  26
BRANCH   9  28
ATOM     28  C18 <0> d          -0.977  -3.904 -12.822  0.00  0.00     0.030 A 
ATOM     29  C23 <0> d          -0.492  -3.556 -14.076  0.00  0.00     0.030 A 
ATOM     30  C22 <0> d          -1.367  -3.387 -15.131  0.00  0.00     0.009 A 
ATOM     31  C21 <0> d          -2.726  -3.554 -14.938  0.00  0.00    -0.062 A 
ATOM     32  C20 <0> d          -3.213  -3.895 -13.689  0.00  0.00     0.009 A 
ATOM     33  C24 <0> d          -3.678  -3.364 -16.090  0.00  0.00     0.048 C 
ATOM     34  C19 <0> d          -2.343  -4.071 -12.631  0.00  0.00     0.030 A 
ENDBRANCH   9  28
TORSDOF 6
