REMARK  6 active torsions:
REMARK  status: ('A' for Active; 'I' for Inactive)
REMARK    1  A    between atoms: C2_2  and  C3_3 
REMARK    2  A    between atoms: C3_3  and  C4_4 
REMARK    3  A    between atoms: C4_4  and  C5_5 
REMARK    4  A    between atoms: C4_4  and  C6_8 
REMARK       I    between atoms: C6_8  and  N2_10 
REMARK    5  A    between atoms: N2_10  and  C8_12 
REMARK    6  A    between atoms: C8_12  and  C9_13 
ROOT
ATOM      1  C6  <0> d           1.550  -2.512  -2.439  0.00  0.00     0.230 C 
ATOM      2  O1  <0> d           2.060  -1.713  -3.195  0.00  0.00    -0.273 OA
ATOM      3  N2  <0> d           1.707  -3.834  -2.650  0.00  0.00    -0.352 N 
ATOM      4  C7  <0> d           1.090  -4.800  -1.737  0.00  0.00     0.153 C 
ENDROOT
BRANCH   1   5
ATOM      5  C4  <0> d           0.739  -2.027  -1.265  0.00  0.00     0.139 C 
BRANCH   5   6
ATOM      6  C3  <0> d           0.718  -0.497  -1.257  0.00  0.00     0.021 C 
BRANCH   6   7
ATOM      7  C2  <0> d           0.002  -0.004   0.002  0.00  0.00    -0.003 C 
ATOM      8  C1  <0> d          -0.019   1.526   0.010  0.00  0.00     0.005 C 
ENDBRANCH   6   7
ENDBRANCH   5   6
BRANCH   5   9
ATOM      9  C5  <0> d          -0.671  -2.548  -1.378  0.00  0.00     0.084 C 
ATOM     10  S1  <0> d          -1.273  -3.482  -0.229  0.00  0.00    -0.065 SA
ATOM     11  N1  <0> d          -1.424  -2.227  -2.449  0.00  0.00    -0.393 N 
ATOM     12  H9  <0> d          -1.059  -1.660  -3.146  0.00  0.00     0.156 HD
ATOM     13  H10 <0> d          -2.331  -2.562  -2.522  0.00  0.00     0.156 HD
ENDBRANCH   5   9
ENDBRANCH   1   5
BRANCH   3  14
ATOM     14  C8  <0> d           2.495  -4.306  -3.791  0.00  0.00     0.164 C 
BRANCH  14  15
ATOM     15  C9  <0> d           3.936  -4.456  -3.379  0.00  0.00    -0.032 A 
ATOM     16  C12 <0> d           4.389  -5.630  -2.875  0.00  0.00     0.059 A 
ATOM     17  S2  <0> d           6.109  -5.262  -2.568  0.00  0.00    -0.094 SA
ATOM     18  C11 <0> d           6.106  -3.565  -3.123  0.00  0.00     0.051 A 
ATOM     19  C10 <0> d           4.816  -3.396  -3.503  0.00  0.00     0.036 A 
ATOM     20 Br1  <0> d           7.534  -2.325  -3.169  0.00  0.00    -0.043 Br
ENDBRANCH  14  15
ENDBRANCH   3  14
TORSDOF 6
