REMARK  4 active torsions:
REMARK  status: ('A' for Active; 'I' for Inactive)
REMARK    1  A    between atoms: C4_4  and  C7_7 
REMARK    2  A    between atoms: N1_12  and  C12_17 
REMARK    3  A    between atoms: C12_17  and  C13_18 
REMARK       I    between atoms: C13_18  and  N5_20 
REMARK    4  A    between atoms: N5_20  and  C14_21 
ROOT
ATOM      1  C7  <0> d           5.418   3.521  -1.374  0.00  0.00     0.090 A 
ATOM      2  C8  <0> d           4.281   3.108  -2.089  0.00  0.00     0.071 A 
ATOM      3  C9  <0> d           3.358   2.759  -1.126  0.00  0.00     0.131 A 
ATOM      4  C10 <0> d           1.985   2.247  -1.175  0.00  0.00     0.293 A 
ATOM      5  O1  <0> d           1.427   2.044  -2.238  0.00  0.00    -0.264 OA
ATOM      6  N1  <0> d           1.356   2.010  -0.000  0.00  0.00    -0.223 N 
ATOM      7  N2  <0> d           2.028   2.247   1.204  0.00  0.00    -0.162 NA
ATOM      8  C11 <0> d           3.237   2.692   1.243  0.00  0.00     0.257 A 
ATOM      9  N3  <0> d           3.952   2.967   0.095  0.00  0.00    -0.220 N 
ATOM     10  N4  <0> d           5.146   3.409  -0.088  0.00  0.00    -0.166 NA
ENDROOT
BRANCH   6  11
ATOM     11  C12 <0> d          -0.018   1.503   0.010  0.00  0.00     0.257 C 
BRANCH  11  12
ATOM     12  C13 <0> d           0.002  -0.004   0.002  0.00  0.00     0.238 C 
ATOM     13  O2  <0> d           1.060  -0.596  -0.011  0.00  0.00    -0.272 OA
ATOM     14  N5  <0> d          -1.156  -0.694   0.009  0.00  0.00    -0.351 N 
ATOM     15  H11 <0> d          -2.002  -0.220   0.020  0.00  0.00     0.163 HD
BRANCH  14  16
ATOM     16  C14 <0> d          -1.136  -2.159   0.001  0.00  0.00     0.118 C 
ATOM     17  C19 <0> d          -0.992  -2.661   1.414  0.00  0.00    -0.029 A 
ATOM     18  C18 <0> d          -1.710  -3.732   1.897  0.00  0.00    -0.050 A 
ATOM     19  C20 <0> d          -0.093  -2.005   2.245  0.00  0.00     0.010 A 
ATOM     20  C17 <0> d          -2.712  -4.481   1.057  0.00  0.00     0.039 C 
ATOM     21  C23 <0> d          -1.524  -4.151   3.208  0.00  0.00     0.007 A 
ATOM     22  C16 <0> d          -2.488  -4.196  -0.427  0.00  0.00     0.007 C 
ATOM     23  C15 <0> d          -2.430  -2.676  -0.624  0.00  0.00     0.030 C 
ATOM     24  C22 <0> d          -0.629  -3.499   4.031  0.00  0.00     0.001 A 
ATOM     25  C21 <0> d           0.088  -2.421   3.549  0.00  0.00     0.001 A 
ENDBRANCH  14  16
ENDBRANCH  11  12
ENDBRANCH   6  11
BRANCH   1  26
ATOM     26  C4  <0> d           6.695   3.999  -1.961  0.00  0.00    -0.006 A 
ATOM     27  C3  <0> d           7.747   4.379  -1.130  0.00  0.00     0.014 A 
ATOM     28  C2  <0> d           8.932   4.822  -1.681  0.00  0.00     0.001 A 
ATOM     29  C1  <0> d           9.077   4.888  -3.055  0.00  0.00     0.000 A 
ATOM     30  C6  <0> d           8.036   4.512  -3.884  0.00  0.00     0.001 A 
ATOM     31  C5  <0> d           6.848   4.062  -3.344  0.00  0.00     0.014 A 
ENDBRANCH   1  26
TORSDOF 4
