REMARK  10 active torsions:
REMARK  status: ('A' for Active; 'I' for Inactive)
REMARK    1  A    between atoms: C5_5  and  C8_8 
REMARK    2  A    between atoms: C8_8  and  C9_9 
REMARK    3  A    between atoms: N1_12  and  C12_16 
REMARK    4  A    between atoms: C12_16  and  C13_17 
REMARK    5  A    between atoms: C13_17  and  C14_18 
REMARK       I    between atoms: C14_18  and  N2_20 
REMARK    6  A    between atoms: N2_20  and  C15_21 
REMARK    7  A    between atoms: C15_21  and  C16_22 
REMARK    8  A    between atoms: C16_22  and  C17_23 
REMARK    9  A    between atoms: C16_22  and  N3_31 
REMARK   10  A    between atoms: C20_26  and  O3_29 
ROOT
ATOM      1  C14 <0> d           2.227 -10.077   3.018  0.00  0.00     0.219 C 
ATOM      2  O2  <0> d           1.238 -10.758   3.190  0.00  0.00    -0.274 OA
ATOM      3  N2  <0> d           3.452 -10.614   3.179  0.00  0.00    -0.359 N 
ATOM      4  H14 <0> d           4.243 -10.070   3.042  0.00  0.00     0.162 HD
ENDROOT
BRANCH   1   5
ATOM      5  C13 <0> d           2.085  -8.629   2.623  0.00  0.00     0.123 C 
BRANCH   5   6
ATOM      6  C12 <0> d           0.602  -8.275   2.508  0.00  0.00     0.143 C 
BRANCH   6   7
ATOM      7  N1  <0> d           0.464  -6.867   2.124  0.00  0.00    -0.298 N 
ATOM      8  C10 <0> d           0.418  -6.549   0.841  0.00  0.00     0.266 A 
ATOM      9  C9  <0> d           0.278  -5.113   0.521  0.00  0.00     0.076 A 
ATOM     10  O1  <0> d           0.486  -7.395  -0.030  0.00  0.00    -0.266 OA
ATOM     11  S2  <0> d           0.239  -4.406   2.163  0.00  0.00    -0.055 SA
ATOM     12  C11 <0> d           0.387  -5.927   3.087  0.00  0.00     0.148 A 
ATOM     13  S1  <0> d           0.429  -6.138   4.785  0.00  0.00    -0.052 SA
BRANCH   9  14
ATOM     14  C8  <0> d           0.205  -4.499  -0.686  0.00  0.00     0.036 C 
BRANCH  14  15
ATOM     15  C5  <0> d          -0.087  -3.060  -0.763  0.00  0.00    -0.035 A 
ATOM     16  C4  <0> d           0.175  -2.351  -1.941  0.00  0.00     0.012 A 
ATOM     17  C3  <0> d          -0.102  -1.002  -2.005  0.00  0.00     0.007 A 
ATOM     18  C2  <0> d          -0.639  -0.350  -0.908  0.00  0.00    -0.062 A 
ATOM     19  C1  <0> d          -0.940   1.125  -0.988  0.00  0.00     0.048 C 
ATOM     20  C7  <0> d          -0.897  -1.043   0.262  0.00  0.00     0.007 A 
ATOM     21  C6  <0> d          -0.629  -2.393   0.341  0.00  0.00     0.012 A 
ENDBRANCH  14  15
ENDBRANCH   9  14
ENDBRANCH   6   7
ENDBRANCH   5   6
ENDBRANCH   1   5
BRANCH   3  22
ATOM     22  C15 <0> d           3.590 -12.021   3.563  0.00  0.00     0.160 C 
BRANCH  22  23
ATOM     23  C16 <0> d           5.066 -12.342   3.807  0.00  0.00     0.238 C 
BRANCH  23  24
ATOM     24  C17 <0> d           5.569 -11.532   4.974  0.00  0.00    -0.026 A 
ATOM     25  C22 <0> d           6.298 -10.379   4.751  0.00  0.00     0.012 A 
ATOM     26  C21 <0> d           6.756  -9.632   5.819  0.00  0.00     0.037 A 
ATOM     27  C20 <0> d           6.493 -10.046   7.117  0.00  0.00     0.068 A 
ATOM     28  C19 <0> d           5.767 -11.207   7.338  0.00  0.00     0.037 A 
ATOM     29  C18 <0> d           5.306 -11.948   6.266  0.00  0.00     0.012 A 
BRANCH  27  30
ATOM     30  O3  <0> d           6.947  -9.316   8.169  0.00  0.00    -0.356 OA
ATOM     31  C23 <0> d           7.688  -8.132   7.867  0.00  0.00     0.210 C 
ENDBRANCH  27  30
ENDBRANCH  23  24
BRANCH  23  32
ATOM     32  N3  <0> d           5.214 -13.773   4.103  0.00  0.00    -0.061 N 
ATOM     33  C28 <0> d           4.758 -14.559   2.951  0.00  0.00     0.236 C 
ATOM     34  C27 <0> d           4.834 -16.051   3.284  0.00  0.00     0.028 C 
ATOM     35  C26 <0> d           6.283 -16.421   3.616  0.00  0.00     0.003 C 
ATOM     36  C25 <0> d           6.772 -15.542   4.771  0.00  0.00     0.028 C 
ATOM     37  C24 <0> d           6.624 -14.070   4.383  0.00  0.00     0.236 C 
ATOM     38  H34 <0> d           4.657 -14.008   4.911  0.00  0.00     0.280 HD
ENDBRANCH  23  32
ENDBRANCH  22  23
ENDBRANCH   3  22
TORSDOF 10
