REMARK  4 active torsions:
REMARK  status: ('A' for Active; 'I' for Inactive)
REMARK    1  A    between atoms: C4_4  and  N1_9 
REMARK       I    between atoms: N1_9  and  C9_10 
REMARK    2  A    between atoms: C9_10  and  C10_12 
REMARK    3  A    between atoms: C10_12  and  C11_13 
REMARK    4  A    between atoms: C11_13  and  N2_14 
ROOT
ATOM      1  N1  <0> d           7.018   5.790  -2.647  0.00  0.00    -0.356 N 
ATOM      2  C9  <0> d           6.465   5.416  -1.476  0.00  0.00     0.219 C 
ATOM      3  O1  <0> d           6.985   5.741  -0.429  0.00  0.00    -0.274 OA
ATOM      4  H16 <0> d           6.603   5.530  -3.484  0.00  0.00     0.162 HD
ENDROOT
BRANCH   2   5
ATOM      5  C10 <0> d           5.202   4.594  -1.467  0.00  0.00     0.123 C 
BRANCH   5   6
ATOM      6  C11 <0> d           4.790   4.309  -0.022  0.00  0.00     0.144 C 
BRANCH   6   7
ATOM      7  N2  <0> d           3.562   3.510  -0.013  0.00  0.00    -0.290 N 
ATOM      8  C19 <0> d           2.372   4.131   0.002  0.00  0.00     0.181 A 
ATOM      9  N3  <0> d           1.203   3.468   0.009  0.00  0.00    -0.332 N 
ATOM     10  S1  <0> d           2.342   5.843   0.011  0.00  0.00    -0.040 SA
ATOM     11  C18 <0> d           1.178   2.081   0.002  0.00  0.00     0.050 A 
ATOM     12  H1  <0> d           0.369   3.963   0.020  0.00  0.00     0.168 HD
ATOM     13  C13 <0> d           2.397   1.382  -0.013  0.00  0.00     0.059 A 
ATOM     14  C17 <0> d          -0.017   1.377   0.010  0.00  0.00     0.030 A 
ATOM     15  C12 <0> d           3.648   2.162  -0.022  0.00  0.00     0.262 A 
ATOM     16  C14 <0> d           2.402  -0.011  -0.021  0.00  0.00     0.019 A 
ATOM     17  O2  <0> d           4.729   1.606  -0.036  0.00  0.00    -0.267 OA
ATOM     18  C15 <0> d           1.204  -0.695  -0.014  0.00  0.00     0.001 A 
ATOM     19  C16 <0> d           0.002  -0.004   0.002  0.00  0.00     0.002 A 
ENDBRANCH   6   7
ENDBRANCH   5   6
ENDBRANCH   2   5
BRANCH   1  20
ATOM     20  C4  <0> d           8.249   6.590  -2.655  0.00  0.00     0.089 C 
ATOM     21  C3  <0> d           8.990   6.360  -3.972  0.00  0.00     0.063 C 
ATOM     22  C2  <0> d          10.266   7.198  -4.017  0.00  0.00     0.121 C 
ATOM     23  C1  <0> d          11.328   6.563  -3.112  0.00  0.00     0.046 C 
ATOM     24  C20 <0> d          10.806   7.145  -5.463  0.00  0.00     0.046 C 
ATOM     25  N4  <0> d          10.078   8.641  -3.708  0.00  0.00    -0.059 N 
ATOM     26  C6  <0> d           9.148   8.931  -2.584  0.00  0.00     0.121 C 
ATOM     27  H28 <0> d           9.713   9.102  -4.550  0.00  0.00     0.279 HD
ATOM     28  H29 <0> d          10.996   9.037  -3.472  0.00  0.00     0.279 HD
ATOM     29  C5  <0> d           7.887   8.072  -2.554  0.00  0.00     0.063 C 
ATOM     30  C7  <0> d           9.861   8.842  -1.229  0.00  0.00     0.046 C 
ATOM     31  C8  <0> d           8.706  10.399  -2.772  0.00  0.00     0.046 C 
ENDBRANCH   1  20
TORSDOF 4
