REMARK  6 active torsions:
REMARK  status: ('A' for Active; 'I' for Inactive)
REMARK    1  A    between atoms: N1_2  and  C3_4 
REMARK    2  A    between atoms: N2_7  and  C8_10 
REMARK    3  A    between atoms: C8_10  and  C9_11 
REMARK    4  A    between atoms: C8_10  and  C10_13 
REMARK    5  A    between atoms: C9_11  and  N3_12 
REMARK    6  A    between atoms: C15_18  and  O1_19 
ROOT
ATOM      1  C8  <0> d          -4.707  -2.836   1.053  0.00  0.00     0.249 C 
ENDROOT
BRANCH   1   2
ATOM      2  N2  <0> d          -3.443  -2.089   1.026  0.00  0.00    -0.061 N 
ATOM      3  C5  <0> d          -3.703  -0.678   1.336  0.00  0.00     0.238 C 
ATOM      4  C4  <0> d          -2.379   0.089   1.389  0.00  0.00     0.063 C 
ATOM      5  C3  <0> d          -1.680  -0.016   0.031  0.00  0.00     0.225 C 
ATOM      6  C7  <0> d          -1.481  -1.494  -0.317  0.00  0.00     0.063 C 
ATOM      7  C6  <0> d          -2.837  -2.202  -0.307  0.00  0.00     0.238 C 
ATOM      8  H27 <0> d          -2.813  -2.473   1.714  0.00  0.00     0.280 HD
BRANCH   5   9
ATOM      9  N1  <0> d          -0.374   0.653   0.098  0.00  0.00     0.084 N 
ATOM     10  C1  <0> d          -0.533   2.097   0.312  0.00  0.00     0.309 C 
ATOM     11  C2  <0> d           0.471   0.056   1.140  0.00  0.00     0.309 C 
ENDBRANCH   5   9
ENDBRANCH   1   2
BRANCH   1  12
ATOM     12  C9  <0> d          -5.387  -2.639   2.409  0.00  0.00     0.267 C 
BRANCH  12  13
ATOM     13  N3  <0> d          -4.455  -3.011   3.482  0.00  0.00    -0.077 N 
ATOM     14  H19 <0> d          -4.917  -2.919   4.375  0.00  0.00     0.274 HD
ATOM     15  H20 <0> d          -4.159  -3.966   3.354  0.00  0.00     0.274 HD
ATOM     16  H28 <0> d          -3.651  -2.402   3.455  0.00  0.00     0.274 HD
ENDBRANCH  12  13
ENDBRANCH   1  12
BRANCH   1  17
ATOM     17  C10 <0> d          -4.430  -4.301   0.838  0.00  0.00     0.009 A 
ATOM     18  C15 <0> d          -5.416  -5.125   0.314  0.00  0.00     0.076 A 
ATOM     19  C14 <0> d          -5.156  -6.473   0.113  0.00  0.00     0.039 A 
ATOM     20  C13 <0> d          -3.921  -6.994   0.443  0.00  0.00     0.022 A 
ATOM     21  C12 <0> d          -2.941  -6.172   0.971  0.00  0.00     0.011 A 
ATOM     22  C11 <0> d          -3.196  -4.827   1.168  0.00  0.00     0.031 A 
ATOM     23 Br1  <0> d          -1.250  -6.889   1.424  0.00  0.00    -0.051 Br
BRANCH  18  24
ATOM     24  O1  <0> d          -6.632  -4.611  -0.007  0.00  0.00    -0.355 OA
ATOM     25  C16 <0> d          -7.599  -5.517  -0.541  0.00  0.00     0.210 C 
ENDBRANCH  18  24
ENDBRANCH   1  17
TORSDOF 6
