REMARK  5 active torsions:
REMARK  status: ('A' for Active; 'I' for Inactive)
REMARK    1  A    between atoms: C3_3  and  S1_10 
REMARK    2  A    between atoms: C6_6  and  N1_7 
REMARK    3  A    between atoms: S1_10  and  N3_13 
REMARK    4  A    between atoms: N3_13  and  C8_14 
REMARK    5  A    between atoms: C8_14  and  C9_15 
ROOT
ATOM      1  C1  <0> d          -0.017   1.386   0.010  0.00  0.00     0.030 A 
ATOM      2  C2  <0> d           1.168   2.098   0.002  0.00  0.00     0.029 A 
ATOM      3  C3  <0> d           2.378   1.434  -0.013  0.00  0.00     0.100 A 
ATOM      4  C4  <0> d           2.408   0.038  -0.021  0.00  0.00     0.070 A 
ATOM      5  C5  <0> d           1.212  -0.681  -0.013  0.00  0.00     0.053 A 
ATOM      6  C6  <0> d           0.002  -0.004   0.002  0.00  0.00     0.027 A 
ATOM      7  C7  <0> d           3.662  -0.654  -0.038  0.00  0.00     0.101 C 
ATOM      8  N2  <0> d           4.656  -1.202  -0.051  0.00  0.00    -0.191 NA
ENDROOT
BRANCH   3   9
ATOM      9  S1  <0> d           3.884   2.348  -0.024  0.00  0.00     0.260 S 
ATOM     10  O1  <0> d           4.685   1.798  -1.060  0.00  0.00    -0.200 OA
ATOM     11  O2  <0> d           3.525   3.723   0.014  0.00  0.00    -0.200 OA
BRANCH   9  12
ATOM     12  N3  <0> d           4.664   2.023   1.400  0.00  0.00    -0.315 N 
ATOM     13  H7  <0> d           4.804   2.731   2.049  0.00  0.00     0.172 HD
BRANCH  12  14
ATOM     14  C8  <0> d           5.143   0.667   1.681  0.00  0.00     0.137 C 
BRANCH  14  15
ATOM     15  C9  <0> d           6.131   0.707   2.848  0.00  0.00     0.019 C 
ATOM     16  C12 <0> d           6.748  -0.699   3.046  0.00  0.00     0.146 C 
ATOM     17  S2  <0> d           7.044  -0.759   4.859  0.00  0.00     0.144 S 
ATOM     18  C11 <0> d           6.330   0.871   5.339  0.00  0.00     0.141 C 
ATOM     19  O3  <0> d           8.444  -0.740   5.101  0.00  0.00    -0.228 OA
ATOM     20  O4  <0> d           6.251  -1.795   5.423  0.00  0.00    -0.228 OA
ATOM     21  C10 <0> d           5.394   1.140   4.126  0.00  0.00     0.022 C 
ENDBRANCH  14  15
ENDBRANCH  12  14
ENDBRANCH   9  12
ENDBRANCH   3   9
BRANCH   6  22
ATOM     22  N1  <0> d          -1.198  -0.719   0.010  0.00  0.00    -0.399 N 
ATOM     23  H5  <0> d          -2.045  -0.245   0.021  0.00  0.00     0.156 HD
ATOM     24  H6  <0> d          -1.185  -1.689   0.005  0.00  0.00     0.156 HD
ENDBRANCH   6  22
TORSDOF 5
