REMARK  4 active torsions:
REMARK  status: ('A' for Active; 'I' for Inactive)
REMARK    1  A    between atoms: C5_6  and  C6_7 
REMARK       I    between atoms: C6_7  and  N2_9 
REMARK    2  A    between atoms: N2_9  and  N3_10 
REMARK    3  A    between atoms: N3_10  and  C7_11 
REMARK    4  A    between atoms: N4_15  and  C11_18 
ROOT
ATOM      1  C7  <0> d          -2.120  -4.319  -0.000  0.00  0.00     0.178 A 
ATOM      2  C8  <0> d          -1.252  -4.647  -1.233  0.00  0.00     0.134 A 
ATOM      3  C9  <0> d           0.024  -5.194  -0.632  0.00  0.00     0.233 A 
ATOM      4  O2  <0> d           0.987  -5.578  -1.260  0.00  0.00    -0.273 OA
ATOM      5  N4  <0> d          -0.079  -5.187   0.703  0.00  0.00    -0.251 N 
ATOM      6  C10 <0> d          -1.246  -4.716   1.169  0.00  0.00     0.251 A 
ATOM      7  O3  <0> d          -1.552  -4.622   2.338  0.00  0.00    -0.271 OA
ENDROOT
BRANCH   1   8
ATOM      8  N3  <0> d          -2.427  -2.883   0.048  0.00  0.00    -0.224 NA
ATOM      9  H7  <0> d          -3.019  -2.667   0.836  0.00  0.00     0.147 HD
BRANCH   8  10
ATOM     10  N2  <0> d          -1.282  -2.138   0.076  0.00  0.00    -0.287 N 
ATOM     11  C6  <0> d          -1.355  -0.793   0.122  0.00  0.00     0.266 C 
ATOM     12  O1  <0> d          -2.438  -0.243   0.139  0.00  0.00    -0.266 OA
ATOM     13  H6  <0> d          -0.418  -2.577   0.063  0.00  0.00     0.184 HD
BRANCH  11  14
ATOM     14  C5  <0> d          -0.113   0.015   0.153  0.00  0.00     0.036 A 
ATOM     15  C1  <0> d          -0.166   1.411   0.200  0.00  0.00     0.036 A 
ATOM     16  C2  <0> d           1.016   2.125   0.228  0.00  0.00     0.117 A 
ATOM     17  N1  <0> d           2.181   1.508   0.209  0.00  0.00    -0.273 NA
ATOM     18  C3  <0> d           2.275   0.194   0.165  0.00  0.00     0.117 A 
ATOM     19  C4  <0> d           1.143  -0.598   0.135  0.00  0.00     0.036 A 
ENDBRANCH  11  14
ENDBRANCH   8  10
ENDBRANCH   1   8
BRANCH   5  20
ATOM     20  C11 <0> d           0.948  -5.637   1.545  0.00  0.00     0.048 A 
ATOM     21  C16 <0> d           1.621  -4.739   2.361  0.00  0.00     0.054 A 
ATOM     22  C15 <0> d           2.629  -5.186   3.195  0.00  0.00     0.037 A 
ATOM     23  C14 <0> d           2.975  -6.526   3.209  0.00  0.00     0.048 A 
ATOM     24 Cl1  <0> d           3.467  -4.064   4.221  0.00  0.00    -0.084 Cl
ATOM     25  C13 <0> d           2.308  -7.422   2.392  0.00  0.00     0.037 A 
ATOM     26  C12 <0> d           1.296  -6.981   1.560  0.00  0.00     0.054 A 
ATOM     27 Cl2  <0> d           2.744  -9.102   2.412  0.00  0.00    -0.084 Cl
ENDBRANCH   5  20
TORSDOF 4
