REMARK  7 active torsions:
REMARK  status: ('A' for Active; 'I' for Inactive)
REMARK    1  A    between atoms: C2_2  and  O1_3 
REMARK    2  A    between atoms: O1_3  and  C3_4 
REMARK    3  A    between atoms: C6_7  and  N1_10 
REMARK    4  A    between atoms: C9_11  and  N2_12 
REMARK    5  A    between atoms: C13_20  and  S1_21 
REMARK    6  A    between atoms: S1_21  and  C14_22 
REMARK    7  A    between atoms: C14_22  and  C15_23 
REMARK       I    between atoms: C15_23  and  N6_25 
ROOT
ATOM      1  N1  <0> d           0.458  -6.261   1.256  0.00  0.00    -0.276 N 
ATOM      2  C9  <0> d           0.001  -6.802   2.387  0.00  0.00     0.124 A 
ATOM      3  C10 <0> d           0.399  -8.112   2.713  0.00  0.00     0.081 A 
ATOM      4  C11 <0> d           0.132  -8.990   3.786  0.00  0.00     0.068 A 
ATOM      5  N3  <0> d           0.773 -10.104   3.578  0.00  0.00    -0.177 NA
ATOM      6  N4  <0> d           1.485 -10.021   2.375  0.00  0.00    -0.260 N 
ATOM      7  H1  <0> d           2.042 -10.719   1.995  0.00  0.00     0.191 HD
ATOM      8  C12 <0> d           1.261  -8.792   1.830  0.00  0.00     0.162 A 
ATOM      9  N5  <0> d           1.670  -8.175   0.722  0.00  0.00    -0.204 NA
ATOM     10  C13 <0> d           1.270  -6.946   0.447  0.00  0.00     0.177 A 
ATOM     11  C25 <0> d          -0.747  -8.688   4.973  0.00  0.00     0.073 C 
ENDROOT
BRANCH  10  12
ATOM     12  S1  <0> d           1.835  -6.181  -1.037  0.00  0.00    -0.082 SA
BRANCH  12  13
ATOM     13  C14 <0> d           2.887  -7.441  -1.808  0.00  0.00     0.185 C 
BRANCH  13  14
ATOM     14  C15 <0> d           3.442  -6.908  -3.104  0.00  0.00     0.234 C 
ATOM     15  O2  <0> d           3.241  -5.755  -3.420  0.00  0.00    -0.272 OA
ATOM     16  N6  <0> d           4.161  -7.713  -3.910  0.00  0.00    -0.317 N 
ATOM     17  C20 <0> d           4.574  -7.270  -5.174  0.00  0.00     0.043 A 
ATOM     18  C16 <0> d           4.519  -9.072  -3.483  0.00  0.00     0.132 C 
ATOM     19  C19 <0> d           5.537  -7.967  -5.890  0.00  0.00    -0.031 A 
ATOM     20  C21 <0> d           4.012  -6.115  -5.704  0.00  0.00     0.030 A 
ATOM     21  C18 <0> d           6.159  -9.228  -5.352  0.00  0.00     0.042 C 
ATOM     22  C24 <0> d           5.935  -7.501  -7.132  0.00  0.00     0.009 A 
ATOM     23  C17 <0> d           5.995  -9.300  -3.834  0.00  0.00     0.025 C 
ATOM     24  C23 <0> d           5.365  -6.355  -7.662  0.00  0.00     0.001 A 
ATOM     25  C22 <0> d           4.408  -5.660  -6.946  0.00  0.00     0.002 A 
ENDBRANCH  13  14
ENDBRANCH  12  13
ENDBRANCH  10  12
BRANCH   1  26
ATOM     26  C6  <0> d           0.082  -4.978   0.915  0.00  0.00     0.043 A 
ATOM     27  C5  <0> d          -0.698  -4.757  -0.218  0.00  0.00     0.033 A 
ATOM     28  C4  <0> d          -1.072  -3.473  -0.556  0.00  0.00     0.039 A 
ATOM     29  C3  <0> d          -0.674  -2.402   0.232  0.00  0.00     0.068 A 
ATOM     30  C8  <0> d           0.108  -2.619   1.358  0.00  0.00     0.039 A 
ATOM     31  C7  <0> d           0.481  -3.901   1.704  0.00  0.00     0.033 A 
BRANCH  29  32
ATOM     32  O1  <0> d          -1.044  -1.138  -0.104  0.00  0.00    -0.352 OA
BRANCH  32  33
ATOM     33  C2  <0> d          -1.849  -0.987  -1.276  0.00  0.00     0.171 C 
ATOM     34  C1  <0> d          -2.164   0.494  -1.491  0.00  0.00     0.034 C 
ENDBRANCH  32  33
ENDBRANCH  29  32
ENDBRANCH   1  26
BRANCH   2  35
ATOM     35  N2  <0> d          -0.843  -6.093   3.218  0.00  0.00    -0.384 N 
ATOM     36  H11 <0> d          -1.010  -5.152   3.051  0.00  0.00     0.157 HD
ATOM     37  H27 <0> d          -1.270  -6.536   3.968  0.00  0.00     0.157 HD
ENDBRANCH   2  35
TORSDOF 7
