REMARK  4 active torsions:
REMARK  status: ('A' for Active; 'I' for Inactive)
REMARK    1  A    between atoms: C5_6  and  S1_12 
REMARK    2  A    between atoms: S1_12  and  N2_15 
REMARK    3  A    between atoms: C12_18  and  O5_27 
REMARK    4  A    between atoms: C17_23  and  O4_25 
ROOT
ATOM      1  N2  <0> d          -4.706  -4.350  -1.581  0.00  0.00    -0.271 N 
ATOM      2  C10 <0> d          -5.829  -3.682  -2.253  0.00  0.00     0.145 C 
ATOM      3  C11 <0> d          -6.605  -4.747  -3.040  0.00  0.00     0.058 C 
ATOM      4  C12 <0> d          -5.691  -5.327  -4.119  0.00  0.00     0.155 C 
ATOM      5  C13 <0> d          -4.382  -5.769  -3.519  0.00  0.00     0.001 A 
ATOM      6  C14 <0> d          -3.937  -5.273  -2.303  0.00  0.00     0.054 A 
ATOM      7  C15 <0> d          -2.719  -5.693  -1.780  0.00  0.00     0.034 A 
ATOM      8  C16 <0> d          -1.946  -6.604  -2.471  0.00  0.00     0.039 A 
ATOM      9  C17 <0> d          -2.386  -7.100  -3.689  0.00  0.00     0.069 A 
ATOM     10  C18 <0> d          -3.607  -6.688  -4.207  0.00  0.00     0.048 A 
ENDROOT
BRANCH   1  11
ATOM     11  S1  <0> d          -4.352  -4.013   0.001  0.00  0.00     0.265 S 
ATOM     12  O2  <0> d          -3.758  -5.184   0.543  0.00  0.00    -0.200 OA
ATOM     13  O3  <0> d          -5.515  -3.419   0.561  0.00  0.00    -0.200 OA
BRANCH  11  14
ATOM     14  C5  <0> d          -3.103  -2.769   0.002  0.00  0.00     0.080 A 
ATOM     15  C4  <0> d          -3.456  -1.432   0.010  0.00  0.00     0.027 A 
ATOM     16  C3  <0> d          -2.483  -0.454   0.011  0.00  0.00     0.032 A 
ATOM     17  C2  <0> d          -1.135  -0.808   0.003  0.00  0.00     0.043 A 
ATOM     18  N1  <0> d           0.015  -0.019   0.002  0.00  0.00    -0.322 N 
ATOM     19  C7  <0> d          -0.793  -2.155  -0.005  0.00  0.00    -0.021 A 
ATOM     20  C1  <0> d           0.000   1.446   0.009  0.00  0.00     0.159 C 
ATOM     21  C9  <0> d           1.139  -0.756  -0.012  0.00  0.00     0.228 A 
ATOM     22  C8  <0> d           0.717  -2.210  -0.012  0.00  0.00     0.144 A 
ATOM     23  O1  <0> d           2.276  -0.336  -0.020  0.00  0.00    -0.273 OA
ATOM     24  C6  <0> d          -1.766  -3.129  -0.006  0.00  0.00     0.035 A 
ENDBRANCH  11  14
ENDBRANCH   1  11
BRANCH   4  25
ATOM     25  O5  <0> d          -6.333  -6.449  -4.727  0.00  0.00    -0.391 OA
ATOM     26  H20 <0> d          -5.811  -6.871  -5.423  0.00  0.00     0.210 HD
ENDBRANCH   4  25
BRANCH   9  27
ATOM     27  O4  <0> d          -1.627  -7.999  -4.371  0.00  0.00    -0.356 OA
ATOM     28  C19 <0> d          -0.388  -8.388  -3.775  0.00  0.00     0.210 C 
ENDBRANCH   9  27
TORSDOF 4
