REMARK  3 active torsions:
REMARK  status: ('A' for Active; 'I' for Inactive)
REMARK    1  A    between atoms: C6_6  and  C7_7 
REMARK    2  A    between atoms: C11_12  and  S2_19 
REMARK    3  A    between atoms: S2_19  and  N3_22 
ROOT
ATOM      1  C7  <0> d           3.826  -2.011  -0.424  0.00  0.00     0.226 C 
ATOM      2  N1  <0> d           3.639  -0.630   0.012  0.00  0.00    -0.363 N 
ATOM      3  C8  <0> d           2.406   0.018  -0.005  0.00  0.00     0.055 A 
ATOM      4  C9  <0> d           2.380   1.412  -0.006  0.00  0.00     0.056 A 
ATOM      5  C10 <0> d           1.175   2.084   0.002  0.00  0.00     0.059 A 
ATOM      6  C11 <0> d          -0.017   1.379   0.010  0.00  0.00     0.102 A 
ATOM      7  C12 <0> d           0.002  -0.004   0.002  0.00  0.00     0.054 A 
ATOM      8  C13 <0> d           1.205  -0.678  -0.007  0.00  0.00     0.107 A 
ATOM      9  S1  <0> d           1.223  -2.446  -0.035  0.00  0.00     0.263 S 
ATOM     10  O1  <0> d           0.478  -2.886   1.093  0.00  0.00    -0.200 OA
ATOM     11  O2  <0> d           0.916  -2.844  -1.364  0.00  0.00    -0.200 OA
ATOM     12  N2  <0> d           2.816  -2.858   0.242  0.00  0.00    -0.289 N 
ATOM     13 Cl1  <0> d           1.152   3.820   0.003  0.00  0.00    -0.083 Cl
ATOM     14  H6  <0> d           4.412  -0.138   0.330  0.00  0.00     0.162 HD
ATOM     15  H9  <0> d           3.063  -3.609   0.804  0.00  0.00     0.175 HD
ENDROOT
BRANCH   1  16
ATOM     16  C6  <0> d           3.655  -2.100  -1.919  0.00  0.00    -0.016 A 
ATOM     17  C1  <0> d           3.166  -3.260  -2.490  0.00  0.00     0.013 A 
ATOM     18  C2  <0> d           3.004  -3.341  -3.860  0.00  0.00     0.024 A 
ATOM     19  C3  <0> d           3.342  -2.264  -4.661  0.00  0.00     0.034 A 
ATOM     20  C4  <0> d           3.837  -1.106  -4.089  0.00  0.00     0.024 A 
ATOM     21 Cl2  <0> d           3.145  -2.367  -6.383  0.00  0.00    -0.084 Cl
ATOM     22  C5  <0> d           3.993  -1.025  -2.718  0.00  0.00     0.013 A 
ENDBRANCH   1  16
BRANCH   6  23
ATOM     23  S2  <0> d          -1.553   2.241   0.022  0.00  0.00     0.258 S 
ATOM     24  O3  <0> d          -1.474   3.227  -0.999  0.00  0.00    -0.201 OA
ATOM     25  O4  <0> d          -2.574   1.252   0.048  0.00  0.00    -0.201 OA
BRANCH  23  26
ATOM     26  N3  <0> d          -1.646   3.056   1.460  0.00  0.00    -0.324 N 
ATOM     27  H10 <0> d          -2.139   3.889   1.514  0.00  0.00     0.169 HD
ATOM     28  H11 <0> d          -1.207   2.700   2.249  0.00  0.00     0.169 HD
ENDBRANCH  23  26
ENDBRANCH   6  23
TORSDOF 3
