REMARK  1 active torsions:
REMARK  status: ('A' for Active; 'I' for Inactive)
REMARK    1  A    between atoms: C5_8  and  C6_11 
ROOT
ATOM      1  C1  <0> d          -0.019   1.526   0.010  0.00  0.00     0.029 C 
ATOM      2  C2  <0> d           0.002  -0.004   0.002  0.00  0.00     0.087 C 
ATOM      3  C3  <0> d           0.707  -0.492  -1.273  0.00  0.00     0.070 C 
ATOM      4  S1  <0> d           0.439  -2.297  -1.374  0.00  0.00    -0.083 SA
ATOM      5  C4  <0> d           0.662  -2.754   0.319  0.00  0.00     0.207 A 
ATOM      6  N1  <0> d           0.776  -3.940   0.842  0.00  0.00    -0.121 NA
ATOM      7  N2  <0> d           0.911  -3.836   2.120  0.00  0.00    -0.127 NA
ATOM      8  C5  <0> d           0.892  -2.570   2.475  0.00  0.00     0.179 A 
ATOM      9  N3  <0> d           0.741  -1.831   1.329  0.00  0.00    -0.232 N 
ATOM     10  N4  <0> d           0.696  -0.482   1.197  0.00  0.00    -0.224 NA
ATOM     11  C12 <0> d           2.204  -0.189  -1.190  0.00  0.00     0.023 C 
ATOM     12  H6  <0> d           1.619  -0.080   1.264  0.00  0.00     0.147 HD
ENDROOT
BRANCH   8  13
ATOM     13  C6  <0> d           1.010  -2.042   3.851  0.00  0.00     0.013 A 
ATOM     14  C11 <0> d           1.468  -2.865   4.881  0.00  0.00     0.017 A 
ATOM     15  C10 <0> d           1.583  -2.365   6.161  0.00  0.00     0.025 A 
ATOM     16  C9  <0> d           1.233  -1.052   6.428  0.00  0.00     0.034 A 
ATOM     17  C8  <0> d           0.773  -0.232   5.412  0.00  0.00     0.025 A 
ATOM     18 Cl1  <0> d           1.372  -0.431   8.043  0.00  0.00    -0.084 Cl
ATOM     19  C7  <0> d           0.660  -0.719   4.126  0.00  0.00     0.017 A 
ENDBRANCH   8  13
TORSDOF 1
