REMARK  4 active torsions:
REMARK  status: ('A' for Active; 'I' for Inactive)
REMARK    1  A    between atoms: C6_6  and  C8_9 
REMARK       I    between atoms: C8_9  and  N1_11 
REMARK    2  A    between atoms: C10_13  and  C17_21 
REMARK       I    between atoms: C17_21  and  N3_23 
REMARK    3  A    between atoms: N3_23  and  C18_24 
REMARK    4  A    between atoms: C18_24  and  C20_26 
ROOT
ATOM      1  C8  <0> d           0.199  -3.426   2.877  0.00  0.00     0.258 C 
ATOM      2  O1  <0> d           1.188  -3.781   3.489  0.00  0.00    -0.267 OA
ATOM      3  N1  <0> d          -1.026  -3.634   3.398  0.00  0.00    -0.346 N 
ATOM      4  C9  <0> d          -2.337  -3.280   2.804  0.00  0.00     0.141 C 
ATOM      5  C10 <0> d          -3.256  -4.473   3.148  0.00  0.00     0.106 C 
ATOM      6  C11 <0> d          -2.615  -5.117   4.390  0.00  0.00    -0.007 C 
ATOM      7  C12 <0> d          -1.367  -4.275   4.691  0.00  0.00     0.136 C 
ATOM      8  C13 <0> d          -3.583  -5.070   5.568  0.00  0.00     0.039 C 
ATOM      9  C14 <0> d          -2.946  -5.767   6.774  0.00  0.00     0.233 C 
ATOM     10  N2  <0> d          -2.633  -7.159   6.428  0.00  0.00    -0.075 N 
ATOM     11  C15 <0> d          -1.632  -7.195   5.355  0.00  0.00     0.233 C 
ATOM     12  C16 <0> d          -2.213  -6.558   4.089  0.00  0.00     0.039 C 
ATOM     13  H17 <0> d          -2.270  -7.633   7.241  0.00  0.00     0.277 HD
ATOM     14  H32 <0> d          -3.473  -7.624   6.117  0.00  0.00     0.277 HD
ENDROOT
BRANCH   5  15
ATOM     15  C17 <0> d          -4.648  -3.990   3.465  0.00  0.00     0.224 C 
ATOM     16  O2  <0> d          -4.809  -2.914   4.001  0.00  0.00    -0.273 OA
ATOM     17  N3  <0> d          -5.714  -4.753   3.151  0.00  0.00    -0.353 N 
ATOM     18  H22 <0> d          -5.585  -5.613   2.722  0.00  0.00     0.163 HD
BRANCH  17  19
ATOM     19  C18 <0> d          -7.067  -4.282   3.458  0.00  0.00     0.113 C 
ATOM     20  C19 <0> d          -7.417  -4.645   4.903  0.00  0.00     0.037 C 
BRANCH  19  21
ATOM     21  C20 <0> d          -8.051  -4.937   2.523  0.00  0.00    -0.006 A 
ATOM     22  C22 <0> d          -8.221  -6.418   2.232  0.00  0.00     0.160 A 
ATOM     23  N5  <0> d          -9.324  -6.438   1.256  0.00  0.00    -0.183 NA
ATOM     24  C23 <0> d          -8.612  -7.178   3.501  0.00  0.00     0.041 C 
ATOM     25  N4  <0> d          -9.668  -5.271   1.052  0.00  0.00    -0.159 NA
ATOM     26  C21 <0> d          -8.971  -4.351   1.755  0.00  0.00     0.059 A 
ATOM     27  C24 <0> d          -9.201  -2.863   1.680  0.00  0.00     0.072 C 
ENDBRANCH  19  21
ENDBRANCH  17  19
ENDBRANCH   5  15
BRANCH   1  28
ATOM     28  C6  <0> d           0.341  -2.765   1.564  0.00  0.00     0.092 A 
ATOM     29  C5  <0> d           0.359  -3.528   0.393  0.00  0.00     0.052 A 
ATOM     30  C4  <0> d           0.492  -2.903  -0.831  0.00  0.00     0.026 A 
ATOM     31 Cl1  <0> d           0.215  -5.256   0.477  0.00  0.00    -0.083 Cl
ATOM     32  C3  <0> d           0.606  -1.526  -0.901  0.00  0.00     0.011 A 
ATOM     33  C2  <0> d           0.589  -0.764   0.252  0.00  0.00    -0.022 A 
ATOM     34  C1  <0> d           0.714   0.736   0.165  0.00  0.00     0.051 C 
ATOM     35  C7  <0> d           0.463  -1.374   1.486  0.00  0.00     0.139 A 
ATOM     36  F1  <0> d           0.451  -0.629   2.613  0.00  0.00    -0.204 F 
ENDBRANCH   1  28
TORSDOF 4
