REMARK  6 active torsions:
REMARK  status: ('A' for Active; 'I' for Inactive)
REMARK    1  A    between atoms: O1_2  and  C2_3 
REMARK    2  A    between atoms: C6_7  and  C8_10 
REMARK    3  A    between atoms: C7_8  and  O2_9 
REMARK    4  A    between atoms: N1_11  and  N2_12 
REMARK    5  A    between atoms: C9_13  and  C10_14 
REMARK    6  A    between atoms: C9_13  and  C16_20 
ROOT
ATOM      1  N2  <0> d          -2.540  -0.458  -0.040  0.00  0.00    -0.153 NA
ATOM      2  C9  <0> d          -2.563   0.839   0.118  0.00  0.00     0.081 C 
ENDROOT
BRANCH   2   3
ATOM      3  C10 <0> d          -1.306   1.602   0.118  0.00  0.00    -0.009 A 
ATOM      4  C15 <0> d          -1.332   3.000   0.171  0.00  0.00     0.013 A 
ATOM      5  C14 <0> d          -0.149   3.708   0.165  0.00  0.00     0.001 A 
ATOM      6  C13 <0> d           1.062   3.040   0.113  0.00  0.00     0.000 A 
ATOM      7  C12 <0> d           1.096   1.657   0.066  0.00  0.00     0.001 A 
ATOM      8  C11 <0> d          -0.078   0.934   0.071  0.00  0.00     0.013 A 
ENDBRANCH   2   3
BRANCH   2   9
ATOM      9  C16 <0> d          -3.878   1.553   0.299  0.00  0.00     0.084 C 
ATOM     10  C19 <0> d          -5.028   0.539   0.379  0.00  0.00     0.296 C 
ATOM     11  N4  <0> d          -6.288   1.276   0.568  0.00  0.00     0.143 N 
ATOM     12  C18 <0> d          -6.531   2.176  -0.571  0.00  0.00     0.509 C 
ATOM     13  C20 <0> d          -6.249   2.044   1.823  0.00  0.00     0.547 C 
ATOM     14  N3  <0> d          -5.448   3.171  -0.635  0.00  0.00    -0.017 N 
ATOM     15  C17 <0> d          -4.142   2.492  -0.886  0.00  0.00     0.258 C 
ATOM     16  C22 <0> d          -5.403   3.953   0.612  0.00  0.00     0.509 C 
ATOM     17  H26 <0> d          -5.658   3.868  -1.460  0.00  0.00     0.284 HD
ATOM     18  N5  <0> d          -5.168   3.040   1.742  0.00  0.00     0.143 N 
ATOM     19  C21 <0> d          -3.865   2.371   1.598  0.00  0.00     0.296 C 
ENDBRANCH   2   9
BRANCH   1  20
ATOM     20  N1  <0> d          -3.644  -1.111  -0.178  0.00  0.00    -0.162 NA
ATOM     21  C8  <0> d          -3.836  -2.220   0.489  0.00  0.00     0.155 C 
BRANCH  21  22
ATOM     22  C6  <0> d          -5.021  -3.044   0.218  0.00  0.00     0.019 A 
ATOM     23  C5  <0> d          -5.292  -4.169   1.007  0.00  0.00     0.016 A 
ATOM     24  C4  <0> d          -6.405  -4.939   0.749  0.00  0.00     0.004 A 
ATOM     25  C3  <0> d          -7.260  -4.607  -0.289  0.00  0.00     0.040 A 
ATOM     26  C2  <0> d          -7.006  -3.497  -1.079  0.00  0.00     0.102 A 
ATOM     27  C7  <0> d          -5.891  -2.705  -0.829  0.00  0.00     0.110 A 
BRANCH  26  28
ATOM     28  O1  <0> d          -7.851  -3.179  -2.096  0.00  0.00    -0.353 OA
ATOM     29  C1  <0> d          -8.980  -4.032  -2.292  0.00  0.00     0.210 C 
ENDBRANCH  26  28
BRANCH  27  30
ATOM     30  O2  <0> d          -5.643  -1.613  -1.597  0.00  0.00    -0.357 OA
ATOM     31  H7  <0> d          -4.760  -0.989  -1.396  0.00  0.00     0.217 HD
ENDBRANCH  27  30
ENDBRANCH  21  22
ENDBRANCH   1  20
TORSDOF 6
