REMARK  2 active torsions:
REMARK  status: ('A' for Active; 'I' for Inactive)
REMARK    1  A    between atoms: C9_10  and  N2_15 
REMARK    2  A    between atoms: C10_11  and  C11_12 
REMARK       I    between atoms: C11_12  and  N1_14 
ROOT
ATOM      1  C1  <0> d          -0.015   1.078  -0.003  0.00  0.00     0.001 A 
ATOM      2  C2  <0> d          -1.224   1.753   0.007  0.00  0.00     0.001 A 
ATOM      3  C3  <0> d          -1.253   3.134   0.013  0.00  0.00     0.019 A 
ATOM      4  C4  <0> d          -0.065   3.854  -0.000  0.00  0.00     0.011 A 
ATOM      5  C5  <0> d           1.156   3.172   0.009  0.00  0.00    -0.011 A 
ATOM      6  C6  <0> d           1.173   1.782  -0.007  0.00  0.00     0.013 A 
ATOM      7  C7  <0> d           2.448   3.923   0.012  0.00  0.00    -0.013 A 
ATOM      8  C8  <0> d           2.521   5.228   0.389  0.00  0.00     0.098 A 
ATOM      9  S1  <0> d           4.229   5.661   0.206  0.00  0.00    -0.100 SA
ATOM     10  C9  <0> d           4.848   4.142  -0.351  0.00  0.00     0.101 A 
ATOM     11  C10 <0> d           3.725   3.329  -0.384  0.00  0.00     0.074 A 
ATOM     12  C12 <0> d           1.396   6.101   0.858  0.00  0.00     0.100 C 
ATOM     13  S2  <0> d          -0.114   5.617  -0.033  0.00  0.00    -0.128 SA
ENDROOT
BRANCH  11  14
ATOM     14  C11 <0> d           3.814   1.930  -0.800  0.00  0.00     0.252 C 
ATOM     15  O1  <0> d           4.028   1.062   0.027  0.00  0.00    -0.268 OA
ATOM     16  N1  <0> d           3.660   1.601  -2.098  0.00  0.00    -0.366 N 
ATOM     17  H5  <0> d           3.467   2.385  -2.844  0.00  0.00     0.159 HD
ATOM     18  H6  <0> d           3.727   0.548  -2.410  0.00  0.00     0.159 HD
ENDBRANCH  11  14
BRANCH  10  19
ATOM     19  N2  <0> d           6.150   3.817  -0.677  0.00  0.00    -0.292 NA
ATOM     20  H7  <0> d           6.943   4.576  -0.600  0.00  0.00     0.187 HD
ENDBRANCH  10  19
TORSDOF 2
