REMARK  5 active torsions:
REMARK  status: ('A' for Active; 'I' for Inactive)
REMARK    1  A    between atoms: C4_4  and  C12_14 
REMARK    2  A    between atoms: C12_14  and  C13_15 
REMARK    3  A    between atoms: C12_14  and  N2_23 
REMARK    4  A    between atoms: C13_15  and  C14_16 
REMARK    5  A    between atoms: C14_16  and  C15_17 
ROOT
ATOM      1  C1  <0> d          -0.018   1.503   0.010  0.00  0.00     0.048 C 
ATOM      2  C2  <0> d           0.002  -0.004   0.002  0.00  0.00    -0.061 A 
ATOM      3  C3  <0> d           0.006  -0.691  -1.198  0.00  0.00     0.018 A 
ATOM      4  C4  <0> d           0.025  -2.070  -1.213  0.00  0.00    -0.000 A 
ATOM      5  C5  <0> d           0.040  -2.782  -0.015  0.00  0.00     0.050 A 
ATOM      6  C6  <0> d           0.037  -2.081   1.184  0.00  0.00    -0.013 A 
ATOM      7  C7  <0> d           0.023  -0.704   1.196  0.00  0.00     0.017 A 
ATOM      8  C8  <0> d           0.056  -3.118   2.283  0.00  0.00     0.063 A 
ATOM      9  C9  <0> d           0.071  -4.439   1.543  0.00  0.00     0.234 A 
ATOM     10  O1  <0> d           0.088  -5.544   2.042  0.00  0.00    -0.272 OA
ATOM     11  N1  <0> d           0.060  -4.156   0.229  0.00  0.00    -0.325 N 
ATOM     12  C10 <0> d           1.316  -2.969   3.138  0.00  0.00     0.030 C 
ATOM     13  C11 <0> d          -1.198  -3.003   3.151  0.00  0.00     0.030 C 
ATOM     14  H7  <0> d           0.066  -4.829  -0.469  0.00  0.00     0.169 HD
ENDROOT
BRANCH   4  15
ATOM     15  C12 <0> d           0.028  -2.808  -2.527  0.00  0.00     0.219 C 
BRANCH  15  16
ATOM     16  C13 <0> d          -1.407  -3.187  -2.902  0.00  0.00     0.042 C 
BRANCH  16  17
ATOM     17  C14 <0> d          -1.393  -4.043  -4.170  0.00  0.00     0.041 C 
BRANCH  17  18
ATOM     18  C15 <0> d          -2.805  -4.417  -4.540  0.00  0.00    -0.058 A 
ATOM     19  C20 <0> d          -3.539  -3.599  -5.378  0.00  0.00     0.007 A 
ATOM     20  C19 <0> d          -4.833  -3.943  -5.720  0.00  0.00     0.001 A 
ATOM     21  C18 <0> d          -5.397  -5.101  -5.217  0.00  0.00     0.000 A 
ATOM     22  C17 <0> d          -4.664  -5.917  -4.375  0.00  0.00     0.001 A 
ATOM     23  C16 <0> d          -3.369  -5.574  -4.036  0.00  0.00     0.007 A 
ENDBRANCH  17  18
ENDBRANCH  16  17
ENDBRANCH  15  16
BRANCH  15  24
ATOM     24  N2  <0> d           0.595  -1.946  -3.572  0.00  0.00    -0.071 N 
ATOM     25  H23 <0> d           1.541  -1.696  -3.324  0.00  0.00     0.275 HD
ATOM     26  H24 <0> d           0.597  -2.440  -4.451  0.00  0.00     0.275 HD
ATOM     27  H25 <0> d           0.038  -1.109  -3.657  0.00  0.00     0.275 HD
ENDBRANCH  15  24
ENDBRANCH   4  15
TORSDOF 5
