REMARK  4 active torsions:
REMARK  status: ('A' for Active; 'I' for Inactive)
REMARK    1  A    between atoms: N1_5  and  C5_7 
REMARK    2  A    between atoms: C5_7  and  C6_8 
REMARK       I    between atoms: C6_8  and  N3_10 
REMARK    3  A    between atoms: C7_11  and  C11_16 
REMARK    4  A    between atoms: C7_11  and  O2_20 
ROOT
ATOM      1  C6  <0> d          -2.414   0.942   4.266  0.00  0.00     0.262 C 
ATOM      2  O1  <0> d          -2.907   1.639   5.128  0.00  0.00    -0.270 OA
ATOM      3  N3  <0> d          -1.818   1.509   3.199  0.00  0.00    -0.191 N 
ATOM      4  C7  <0> d          -1.694   2.956   2.953  0.00  0.00     0.261 A 
ATOM      5  C8  <0> d          -0.933   3.023   1.614  0.00  0.00     0.129 A 
ATOM      6  C9  <0> d          -0.718   1.572   1.248  0.00  0.00     0.034 A 
ATOM      7  N4  <0> d          -1.216   0.824   2.145  0.00  0.00    -0.176 NA
ATOM      8  C10 <0> d          -0.013   1.086   0.008  0.00  0.00     0.067 C 
ENDROOT
BRANCH   1   9
ATOM      9  C5  <0> d          -2.469  -0.559   4.389  0.00  0.00     0.256 C 
BRANCH   9  10
ATOM     10  N1  <0> d          -3.163  -0.923   5.627  0.00  0.00    -0.265 N 
ATOM     11  C4  <0> d          -2.588  -1.116   6.832  0.00  0.00     0.029 A 
ATOM     12  C3  <0> d          -3.568  -1.433   7.710  0.00  0.00     0.055 A 
ATOM     13  C12 <0> d          -1.119  -0.996   7.146  0.00  0.00     0.070 C 
ATOM     14  C2  <0> d          -4.782  -1.443   7.016  0.00  0.00     0.053 A 
ATOM     15  C1  <0> d          -6.134  -1.752   7.604  0.00  0.00     0.072 C 
ATOM     16  N2  <0> d          -4.540  -1.138   5.767  0.00  0.00    -0.177 NA
ENDBRANCH   9  10
ENDBRANCH   1   9
BRANCH   4  17
ATOM     17  C11 <0> d          -3.076   3.603   2.832  0.00  0.00     0.440 C 
ATOM     18  F1  <0> d          -3.777   3.433   4.030  0.00  0.00    -0.166 F 
ATOM     19  F2  <0> d          -2.929   4.968   2.566  0.00  0.00    -0.166 F 
ATOM     20  F3  <0> d          -3.784   2.998   1.788  0.00  0.00    -0.166 F 
ENDBRANCH   4  17
BRANCH   4  21
ATOM     21  O2  <0> d          -0.936   3.580   3.991  0.00  0.00    -0.362 OA
ATOM     22  H12 <0> d          -1.334   3.503   4.870  0.00  0.00     0.213 HD
ENDBRANCH   4  21
TORSDOF 4
