REMARK  5 active torsions:
REMARK  status: ('A' for Active; 'I' for Inactive)
REMARK    1  A    between atoms: O1_2  and  C2_3 
REMARK    2  A    between atoms: C5_6  and  N1_9 
REMARK    3  A    between atoms: C9_11  and  C12_15 
REMARK    4  A    between atoms: N2_17  and  C13_18 
REMARK    5  A    between atoms: C14_20  and  C15_23 
ROOT
ATOM      1  N1  <0> d           2.458  -2.458  -4.302  0.00  0.00    -0.317 N 
ATOM      2  C8  <0> d           2.653  -3.907  -4.429  0.00  0.00     0.145 C 
ATOM      3  C9  <0> d           2.958  -4.152  -5.923  0.00  0.00     0.093 C 
ATOM      4  C10 <0> d           3.542  -2.787  -6.354  0.00  0.00     0.118 C 
ATOM      5  C11 <0> d           2.948  -1.804  -5.369  0.00  0.00     0.225 C 
ATOM      6  O2  <0> d           2.920  -0.601  -5.520  0.00  0.00    -0.273 OA
ENDROOT
BRANCH   3   7
ATOM      7  C12 <0> d           3.975  -5.252  -6.091  0.00  0.00     0.202 C 
ATOM      8  O3  <0> d           3.578  -6.539  -6.112  0.00  0.00    -0.174 OA
ATOM      9  N2  <0> d           5.237  -4.958  -6.217  0.00  0.00    -0.038 NA
BRANCH   9  10
ATOM     10  C13 <0> d           6.157  -5.953  -6.370  0.00  0.00     0.747 A 
ATOM     11  N3  <0> d           5.905  -7.248  -6.408  0.00  0.00    -0.034 NA
ATOM     12  C14 <0> d           7.041  -7.922  -6.568  0.00  0.00     0.271 A 
ATOM     13  N4  <0> d           8.037  -7.079  -6.636  0.00  0.00    -0.134 NA
ATOM     14  N5  <0> d           7.494  -5.789  -6.516  0.00  0.00    -0.103 N 
ATOM     15  H13 <0> d           7.979  -4.949  -6.533  0.00  0.00     0.208 HD
BRANCH  12  16
ATOM     16  C15 <0> d           7.160  -9.422  -6.657  0.00  0.00     0.455 C 
ATOM     17  F1  <0> d           7.395  -9.793  -7.985  0.00  0.00    -0.163 F 
ATOM     18  F2  <0> d           8.224  -9.853  -5.858  0.00  0.00    -0.163 F 
ATOM     19  F3  <0> d           5.973 -10.011  -6.211  0.00  0.00    -0.163 F 
ENDBRANCH  12  16
ENDBRANCH   9  10
ENDBRANCH   3   7
BRANCH   1  20
ATOM     20  C5  <0> d           1.836  -1.836  -3.211  0.00  0.00     0.037 A 
ATOM     21  C4  <0> d           1.799  -0.450  -3.130  0.00  0.00     0.032 A 
ATOM     22  C3  <0> d           1.185   0.162  -2.055  0.00  0.00     0.039 A 
ATOM     23  C2  <0> d           0.606  -0.607  -1.056  0.00  0.00     0.068 A 
ATOM     24  C7  <0> d           0.648  -1.992  -1.134  0.00  0.00     0.039 A 
ATOM     25  C6  <0> d           1.256  -2.605  -2.211  0.00  0.00     0.032 A 
BRANCH  23  26
ATOM     26  O1  <0> d           0.002  -0.004   0.002  0.00  0.00    -0.356 OA
ATOM     27  C1  <0> d          -0.004   1.425   0.017  0.00  0.00     0.210 C 
ENDBRANCH  23  26
ENDBRANCH   1  20
TORSDOF 5
