REMARK  6 active torsions:
REMARK  status: ('A' for Active; 'I' for Inactive)
REMARK    1  A    between atoms: C2_2  and  N1_3 
REMARK    2  A    between atoms: C5_6  and  C7_8 
REMARK    3  A    between atoms: C7_8  and  N2_9 
REMARK    4  A    between atoms: N2_9  and  S1_10 
REMARK    5  A    between atoms: S1_10  and  C8_13 
REMARK    6  A    between atoms: C13_18  and  N3_19 
ROOT
ATOM      1  S1  <0> d          -4.277  -5.473  -2.567  0.00  0.00     0.261 S 
ATOM      2  O1  <0> d          -5.609  -5.574  -3.051  0.00  0.00    -0.200 OA
ATOM      3  O2  <0> d          -3.163  -5.300  -3.432  0.00  0.00    -0.200 OA
ENDROOT
BRANCH   1   4
ATOM      4  N2  <0> d          -4.254  -4.202  -1.505  0.00  0.00    -0.315 N 
ATOM      5  H15 <0> d          -5.061  -3.688  -1.348  0.00  0.00     0.172 HD
BRANCH   4   6
ATOM      6  C7  <0> d          -3.015  -3.856  -0.804  0.00  0.00     0.138 C 
BRANCH   6   7
ATOM      7  C5  <0> d          -3.146  -2.456  -0.201  0.00  0.00     0.031 C 
ATOM      8  C4  <0> d          -3.243  -1.387  -1.314  0.00  0.00     0.035 C 
ATOM      9  C3  <0> d          -2.404  -0.200  -0.807  0.00  0.00     0.235 C 
ATOM     10  N1  <0> d          -1.891  -0.571   0.530  0.00  0.00    -0.071 N 
ATOM     11  C6  <0> d          -1.851  -2.056   0.551  0.00  0.00     0.241 C 
ATOM     12  H21 <0> d          -2.512  -0.230   1.249  0.00  0.00     0.279 HD
BRANCH  10  13
ATOM     13  C2  <0> d          -0.541  -0.025   0.724  0.00  0.00     0.230 C 
ATOM     14  C1  <0> d          -0.617   1.500   0.825  0.00  0.00     0.034 C 
ENDBRANCH  10  13
ENDBRANCH   6   7
ENDBRANCH   4   6
ENDBRANCH   1   4
BRANCH   1  15
ATOM     15  C8  <0> d          -3.967  -6.936  -1.635  0.00  0.00     0.106 A 
ATOM     16  C13 <0> d          -4.869  -7.343  -0.660  0.00  0.00     0.049 A 
ATOM     17  C12 <0> d          -4.625  -8.501   0.068  0.00  0.00     0.032 A 
ATOM     18  C11 <0> d          -3.481  -9.236  -0.171  0.00  0.00     0.021 A 
ATOM     19  C10 <0> d          -2.581  -8.825  -1.138  0.00  0.00     0.012 A 
ATOM     20  C9  <0> d          -2.825  -7.676  -1.869  0.00  0.00     0.046 A 
ATOM     21 Br1  <0> d          -1.016  -9.836  -1.463  0.00  0.00    -0.051 Br
BRANCH  16  22
ATOM     22  N3  <0> d          -6.022  -6.593  -0.417  0.00  0.00    -0.398 N 
ATOM     23  H19 <0> d          -6.150  -5.742  -0.863  0.00  0.00     0.156 HD
ATOM     24  H20 <0> d          -6.695  -6.925   0.198  0.00  0.00     0.156 HD
ENDBRANCH  16  22
ENDBRANCH   1  15
TORSDOF 6
