REMARK  8 active torsions:
REMARK  status: ('A' for Active; 'I' for Inactive)
REMARK    1  A    between atoms: C5_5  and  N1_9 
REMARK       I    between atoms: N1_9  and  C9_10 
REMARK    2  A    between atoms: C9_10  and  C10_12 
REMARK    3  A    between atoms: C10_12  and  N2_13 
REMARK    4  A    between atoms: N2_13  and  C12_15 
REMARK    5  A    between atoms: C12_15  and  C13_16 
REMARK       I    between atoms: C13_16  and  N3_18 
REMARK       I    between atoms: N3_18  and  C14_19 
REMARK       I    between atoms: C14_19  and  N4_21 
REMARK    6  A    between atoms: N4_21  and  C15_22 
REMARK    7  A    between atoms: C15_22  and  C16_23 
REMARK    8  A    between atoms: C16_23  and  O4_24 
ROOT
ATOM      1  N2  <0> d          -6.002   2.896  -1.139  0.00  0.00    -0.058 N 
ATOM      2  C11 <0> d          -6.291   1.871  -0.128  0.00  0.00     0.270 C 
ATOM      3  H29 <0> d          -5.590   2.390  -2.025  0.00  0.00     0.280 HD
ENDROOT
BRANCH   1   4
ATOM      4  C10 <0> d          -4.993   3.846  -0.653  0.00  0.00     0.337 C 
BRANCH   4   5
ATOM      5  C9  <0> d          -3.676   3.135  -0.477  0.00  0.00     0.248 C 
ATOM      6  N1  <0> d          -2.598   3.812  -0.036  0.00  0.00    -0.325 N 
ATOM      7  H9  <0> d          -2.696   4.864   0.271  0.00  0.00     0.169 HD
ATOM      8  O1  <0> d          -3.587   1.952  -0.732  0.00  0.00    -0.271 OA
BRANCH   6   9
ATOM      9  C5  <0> d          -1.352   3.178   0.031  0.00  0.00     0.046 A 
ATOM     10  C4  <0> d          -0.728   2.745  -1.132  0.00  0.00    -0.034 A 
ATOM     11  C3  <0> d           0.499   2.115  -1.062  0.00  0.00     0.015 A 
ATOM     12  C18 <0> d          -1.391   2.960  -2.469  0.00  0.00     0.050 C 
ATOM     13  C2  <0> d           1.110   1.923   0.163  0.00  0.00    -0.061 A 
ATOM     14  C1  <0> d           2.452   1.240   0.235  0.00  0.00     0.048 C 
ATOM     15  C7  <0> d           0.494   2.356   1.322  0.00  0.00     0.015 A 
ATOM     16  C6  <0> d          -0.735   2.983   1.260  0.00  0.00    -0.034 A 
ATOM     17  C8  <0> d          -1.406   3.456   2.523  0.00  0.00     0.050 C 
ENDBRANCH   6   9
ENDBRANCH   4   5
ENDBRANCH   1   4
BRANCH   1  18
ATOM     18  C12 <0> d          -7.228   3.593  -1.547  0.00  0.00     0.337 C 
BRANCH  18  19
ATOM     19  C13 <0> d          -8.140   2.630  -2.263  0.00  0.00     0.251 C 
ATOM     20  O2  <0> d          -7.801   1.476  -2.418  0.00  0.00    -0.271 OA
ATOM     21  N3  <0> d          -9.332   3.051  -2.731  0.00  0.00    -0.278 N 
ATOM     22  C14 <0> d         -10.146   2.189  -3.371  0.00  0.00     0.322 C 
ATOM     23  H17 <0> d          -9.639   4.098  -2.591  0.00  0.00     0.173 HD
ATOM     24  O3  <0> d          -9.807   1.033  -3.527  0.00  0.00    -0.247 OA
ATOM     25  N4  <0> d         -11.338   2.610  -3.839  0.00  0.00    -0.341 N 
ATOM     26  H18 <0> d         -11.646   3.657  -3.699  0.00  0.00     0.164 HD
BRANCH  25  27
ATOM     27  C15 <0> d         -12.224   1.674  -4.535  0.00  0.00     0.150 C 
BRANCH  27  28
ATOM     28  C16 <0> d         -13.502   2.400  -4.960  0.00  0.00     0.186 C 
BRANCH  28  29
ATOM     29  O4  <0> d         -13.180   3.404  -5.925  0.00  0.00    -0.394 OA
ATOM     30  C17 <0> d         -14.310   4.146  -6.391  0.00  0.00     0.201 C 
ENDBRANCH  28  29
ENDBRANCH  27  28
ENDBRANCH  25  27
ENDBRANCH  18  19
ENDBRANCH   1  18
TORSDOF 8
