REMARK  2 active torsions:
REMARK  status: ('A' for Active; 'I' for Inactive)
REMARK    1  A    between atoms: C6_10  and  C7_12 
REMARK    2  A    between atoms: C7_12  and  N5_13 
ROOT
ATOM      1  C1  <0> d          -0.151   0.869   0.301  0.00  0.00     0.182 C 
ATOM      2  N1  <0> d          -0.071  -0.583   0.118  0.00  0.00    -0.256 N 
ATOM      3  C2  <0> d          -0.028  -1.236  -1.077  0.00  0.00     0.164 A 
ATOM      4  C3  <0> d           0.045  -2.612  -0.780  0.00  0.00     0.086 A 
ATOM      5  C4  <0> d           0.043  -2.731   0.627  0.00  0.00     0.159 A 
ATOM      6  N2  <0> d          -0.020  -1.537   1.142  0.00  0.00    -0.182 NA
ATOM      7  C5  <0> d           0.102  -3.522  -1.850  0.00  0.00     0.217 A 
ATOM      8  O1  <0> d           0.173  -4.855  -1.623  0.00  0.00    -0.169 OA
ATOM      9  N3  <0> d           0.085  -3.044  -3.088  0.00  0.00    -0.204 NA
ATOM     10  C6  <0> d           0.016  -1.744  -3.319  0.00  0.00     0.157 A 
ATOM     11  N4  <0> d          -0.040  -0.854  -2.353  0.00  0.00    -0.211 NA
ENDROOT
BRANCH  10  12
ATOM     12  C7  <0> d          -0.000  -1.264  -4.747  0.00  0.00     0.315 C 
BRANCH  12  13
ATOM     13  N5  <0> d          -1.389  -1.183  -5.221  0.00  0.00    -0.060 N 
ATOM     14  C12 <0> d          -1.413  -0.879  -6.685  0.00  0.00     0.189 C 
ATOM     15  C11 <0> d          -0.435   0.366  -6.834  0.00  0.00     0.034 C 
ATOM     16  C13 <0> d          -2.807  -0.172  -6.824  0.00  0.00     0.039 C 
ATOM     17  C10 <0> d          -1.213   1.538  -6.189  0.00  0.00     0.008 C 
ATOM     18  C9  <0> d          -2.543   0.887  -5.695  0.00  0.00     0.013 C 
ATOM     19  C8  <0> d          -2.091  -0.067  -4.546  0.00  0.00     0.240 C 
ATOM     20  H17 <0> d          -1.867  -2.053  -5.041  0.00  0.00     0.280 HD
ENDBRANCH  12  13
ENDBRANCH  10  12
TORSDOF 2
