REMARK  5 active torsions:
REMARK  status: ('A' for Active; 'I' for Inactive)
REMARK    1  A    between atoms: C5_5  and  N1_8 
REMARK       I    between atoms: N1_8  and  C8_9 
REMARK    2  A    between atoms: C8_9  and  C9_11 
REMARK    3  A    between atoms: C9_11  and  C10_12 
REMARK    4  A    between atoms: N3_17  and  C13_18 
REMARK    5  A    between atoms: C17_22  and  O3_24 
ROOT
ATOM      1  C10 <0> d           0.424  -6.867   2.557  0.00  0.00     0.156 A 
ATOM      2  C11 <0> d           0.532  -8.383   2.589  0.00  0.00     0.238 A 
ATOM      3  O2  <0> d          -0.353  -9.101   2.175  0.00  0.00    -0.272 OA
ATOM      4  N2  <0> d           1.652  -8.870   3.096  0.00  0.00    -0.305 N 
ATOM      5  C12 <0> d           2.664  -8.060   3.569  0.00  0.00     0.170 A 
ATOM      6  N3  <0> d           3.813  -8.421   4.090  0.00  0.00    -0.225 NA
ATOM      7  S1  <0> d           2.042  -6.405   3.304  0.00  0.00    -0.077 SA
ATOM      8  H12 <0> d           1.766  -9.832   3.138  0.00  0.00     0.171 HD
ENDROOT
BRANCH   1   9
ATOM      9  C9  <0> d           0.309  -6.349   1.121  0.00  0.00     0.128 C 
BRANCH   9  10
ATOM     10  C8  <0> d           0.175  -4.848   1.138  0.00  0.00     0.223 C 
ATOM     11  N1  <0> d           0.059  -4.170  -0.021  0.00  0.00    -0.327 N 
ATOM     12  H9  <0> d          -0.017  -4.651  -0.860  0.00  0.00     0.169 HD
ATOM     13  O1  <0> d           0.173  -4.251   2.193  0.00  0.00    -0.273 OA
BRANCH  11  14
ATOM     14  C5  <0> d           0.046  -2.771  -0.014  0.00  0.00     0.034 A 
ATOM     15  C4  <0> d           0.791  -2.073   0.927  0.00  0.00     0.030 A 
ATOM     16  C3  <0> d           0.777  -0.692   0.931  0.00  0.00     0.009 A 
ATOM     17  C2  <0> d           0.022  -0.004  -0.001  0.00  0.00    -0.062 A 
ATOM     18  C1  <0> d           0.008   1.503   0.007  0.00  0.00     0.048 C 
ATOM     19  C7  <0> d          -0.726  -0.696  -0.936  0.00  0.00     0.009 A 
ATOM     20  C6  <0> d          -0.712  -2.077  -0.948  0.00  0.00     0.030 A 
ENDBRANCH  11  14
ENDBRANCH   9  10
ENDBRANCH   1   9
BRANCH   6  21
ATOM     21  C13 <0> d           4.121  -9.749   4.216  0.00  0.00     0.062 A 
ATOM     22  C18 <0> d           5.386 -10.212   3.850  0.00  0.00     0.068 A 
ATOM     23  C17 <0> d           5.693 -11.555   3.987  0.00  0.00     0.067 A 
ATOM     24  C16 <0> d           4.740 -12.440   4.473  0.00  0.00     0.036 A 
ATOM     25  C15 <0> d           3.484 -11.984   4.830  0.00  0.00     0.005 A 
ATOM     26  C14 <0> d           3.169 -10.647   4.705  0.00  0.00     0.032 A 
BRANCH  23  27
ATOM     27  O3  <0> d           6.925 -12.009   3.638  0.00  0.00    -0.361 OA
ATOM     28  H17 <0> d           6.996 -12.285   2.714  0.00  0.00     0.217 HD
ENDBRANCH  23  27
ENDBRANCH   6  21
TORSDOF 5
