REMARK  4 active torsions:
REMARK  status: ('A' for Active; 'I' for Inactive)
REMARK    1  A    between atoms: C4_6  and  C5_7 
REMARK    2  A    between atoms: C5_7  and  N3_8 
REMARK    3  A    between atoms: N3_8  and  C6_9 
REMARK    4  A    between atoms: N4_13  and  C10_15 
ROOT
ATOM      1  C6  <0> d          -1.668   1.660   3.381  0.00  0.00     0.247 C 
ATOM      2  C7  <0> d          -1.770   3.044   2.699  0.00  0.00     0.140 C 
ATOM      3  C8  <0> d          -0.964   2.890   1.427  0.00  0.00     0.222 C 
ATOM      4  O1  <0> d          -0.559   3.808   0.747  0.00  0.00    -0.273 OA
ATOM      5  N4  <0> d          -0.763   1.588   1.162  0.00  0.00    -0.345 N 
ATOM      6  C9  <0> d          -1.397   0.734   2.173  0.00  0.00     0.162 C 
ENDROOT
BRANCH   1   7
ATOM      7  N3  <0> d          -0.553   1.626   4.338  0.00  0.00     0.097 N 
ATOM      8  H9  <0> d           0.262   2.256   3.951  0.00  0.00     0.317 HD
BRANCH   7   9
ATOM      9  C5  <0> d          -0.974   2.123   5.654  0.00  0.00     0.346 C 
BRANCH   9  10
ATOM     10  C4  <0> d           0.193   2.074   6.606  0.00  0.00     0.111 A 
ATOM     11  N1  <0> d           0.517   1.031   7.401  0.00  0.00    -0.348 N 
ATOM     12  C1  <0> d          -0.196  -0.246   7.494  0.00  0.00     0.157 C 
ATOM     13  C2  <0> d           1.638   1.388   8.101  0.00  0.00     0.108 A 
ATOM     14  C3  <0> d           1.955   2.639   7.717  0.00  0.00     0.106 A 
ATOM     15  N2  <0> d           1.056   3.033   6.803  0.00  0.00    -0.353 N 
ATOM     16  H23 <0> d           1.130   4.034   6.354  0.00  0.00     0.166 HD
ENDBRANCH   9  10
ENDBRANCH   7   9
ENDBRANCH   1   7
BRANCH   5  17
ATOM     17  C10 <0> d          -0.013   1.086   0.008  0.00  0.00     0.095 C 
ATOM     18  C18 <0> d           1.422   1.654  -0.003  0.00  0.00     0.064 C 
ATOM     19  C17 <0> d           1.759   1.852  -1.465  0.00  0.00    -0.050 A 
ATOM     20  C12 <0> d           0.600   1.841  -2.217  0.00  0.00    -0.050 A 
ATOM     21  C16 <0> d           2.983   2.029  -2.088  0.00  0.00     0.007 A 
ATOM     22  C11 <0> d          -0.596   1.634  -1.312  0.00  0.00     0.064 C 
ATOM     23  C13 <0> d           0.667   2.006  -3.591  0.00  0.00     0.007 A 
ATOM     24  C14 <0> d           1.889   2.181  -4.210  0.00  0.00     0.001 A 
ATOM     25  C15 <0> d           3.049   2.193  -3.458  0.00  0.00     0.001 A 
ENDBRANCH   5  17
TORSDOF 4
