REMARK  7 active torsions:
REMARK  status: ('A' for Active; 'I' for Inactive)
REMARK    1  A    between atoms: C8_9  and  C9_11 
REMARK    2  A    between atoms: C9_11  and  N1_12 
REMARK       I    between atoms: N1_12  and  C10_13 
REMARK    3  A    between atoms: C10_13  and  C11_15 
REMARK    4  A    between atoms: C14_18  and  C17_21 
REMARK    5  A    between atoms: C17_21  and  N2_22 
REMARK    6  A    between atoms: N2_22  and  C18_23 
REMARK    7  A    between atoms: C26_33  and  O5_34 
ROOT
ATOM      1  C11 <0> d           8.401  -1.706  -1.323  0.00  0.00     0.078 C 
ATOM      2  C12 <0> d           8.436  -0.227  -0.934  0.00  0.00     0.014 C 
ATOM      3  C13 <0> d           9.574   0.470  -1.681  0.00  0.00     0.007 C 
ATOM      4  C14 <0> d          10.905  -0.186  -1.309  0.00  0.00     0.003 C 
ATOM      5  C15 <0> d          10.871  -1.665  -1.698  0.00  0.00     0.007 C 
ATOM      6  C16 <0> d           9.732  -2.362  -0.951  0.00  0.00     0.014 C 
ENDROOT
BRANCH   4   7
ATOM      7  C17 <0> d          12.044   0.512  -2.056  0.00  0.00     0.124 C 
BRANCH   7   8
ATOM      8  N2  <0> d          13.328  -0.036  -1.611  0.00  0.00    -0.385 N 
ATOM      9  H34 <0> d          13.350  -0.734  -0.938  0.00  0.00     0.159 HD
BRANCH   8  10
ATOM     10  C18 <0> d          14.498   0.439  -2.145  0.00  0.00     0.097 A 
ATOM     11  C26 <0> d          14.804   1.402  -3.095  0.00  0.00     0.147 A 
ATOM     12  C25 <0> d          16.237   1.158  -2.952  0.00  0.00     0.236 A 
ATOM     13  C19 <0> d          15.923   0.120  -1.940  0.00  0.00     0.113 A 
ATOM     14  O4  <0> d          17.251   1.607  -3.452  0.00  0.00    -0.283 OA
ATOM     15  N3  <0> d          16.604  -0.707  -1.198  0.00  0.00    -0.376 N 
ATOM     16  C24 <0> d          18.071  -0.740  -1.267  0.00  0.00     0.123 C 
ATOM     17  C20 <0> d          15.919  -1.628  -0.281  0.00  0.00     0.123 C 
ATOM     18  C23 <0> d          18.525  -2.173  -1.538  0.00  0.00     0.020 C 
ATOM     19  C22 <0> d          17.924  -3.104  -0.483  0.00  0.00     0.003 C 
ATOM     20  C21 <0> d          16.396  -3.055  -0.568  0.00  0.00     0.020 C 
BRANCH  11  21
ATOM     21  O5  <0> d          14.063   2.243  -3.858  0.00  0.00    -0.355 OA
ATOM     22  H33 <0> d          14.586   2.810  -4.440  0.00  0.00     0.218 HD
ENDBRANCH  11  21
ENDBRANCH   8  10
ENDBRANCH   7   8
ENDBRANCH   4   7
BRANCH   1  23
ATOM     23  C10 <0> d           7.280  -2.393  -0.587  0.00  0.00     0.221 C 
ATOM     24  N1  <0> d           6.008  -1.982  -0.760  0.00  0.00    -0.358 N 
ATOM     25  H10 <0> d           5.815  -1.243  -1.358  0.00  0.00     0.162 HD
ATOM     26  O3  <0> d           7.522  -3.317   0.162  0.00  0.00    -0.273 OA
BRANCH  24  27
ATOM     27  C9  <0> d           4.918  -2.649  -0.044  0.00  0.00     0.157 C 
BRANCH  27  28
ATOM     28  C8  <0> d           3.587  -1.993  -0.416  0.00  0.00     0.171 C 
ATOM     29  C7  <0> d           2.441  -2.689   0.331  0.00  0.00     0.209 C 
ATOM     30  O1  <0> d           1.214  -2.043  -0.029  0.00  0.00    -0.346 OA
ATOM     31  C5  <0> d           1.212  -0.683  -0.014  0.00  0.00     0.102 A 
ATOM     32  C4  <0> d           2.404   0.031  -0.019  0.00  0.00     0.102 A 
ATOM     33  C6  <0> d           0.002  -0.004   0.002  0.00  0.00     0.039 A 
ATOM     34  C3  <0> d           2.378   1.418  -0.012  0.00  0.00     0.039 A 
ATOM     35  O2  <0> d           3.602  -0.615  -0.029  0.00  0.00    -0.339 OA
ATOM     36  C2  <0> d           1.170   2.088   0.002  0.00  0.00     0.003 A 
ATOM     37  C1  <0> d          -0.017   1.378   0.010  0.00  0.00     0.003 A 
ENDBRANCH  27  28
ENDBRANCH  24  27
ENDBRANCH   1  23
TORSDOF 7
