REMARK  3 active torsions:
REMARK  status: ('A' for Active; 'I' for Inactive)
REMARK    1  A    between atoms: C6_8  and  C10_13 
REMARK    2  A    between atoms: C7_9  and  O2_12 
REMARK    3  A    between atoms: C11_15  and  C12_18 
ROOT
ATOM      1  C1  <0> d          -0.016   1.357   0.009  0.00  0.00     0.001 A 
ATOM      2  C2  <0> d           1.162   2.096   0.002  0.00  0.00     0.002 A 
ATOM      3  C3  <0> d           2.386   1.497  -0.013  0.00  0.00     0.030 A 
ATOM      4  C4  <0> d           2.480   0.095  -0.021  0.00  0.00     0.047 A 
ATOM      5  N1  <0> d           3.684  -0.492  -0.035  0.00  0.00    -0.326 N 
ATOM      6  C5  <0> d           3.857  -1.798  -0.044  0.00  0.00     0.237 A 
ATOM      7  O1  <0> d           4.982  -2.263  -0.057  0.00  0.00    -0.272 OA
ATOM      8  C6  <0> d           2.659  -2.721  -0.038  0.00  0.00     0.186 A 
ATOM      9  C7  <0> d           1.286  -2.078  -0.022  0.00  0.00     0.073 A 
ATOM     10  C8  <0> d           1.238  -0.682  -0.013  0.00  0.00     0.021 A 
ATOM     11  C9  <0> d           0.002  -0.004   0.002  0.00  0.00     0.016 A 
ATOM     12  H13 <0> d           4.471   0.075  -0.039  0.00  0.00     0.169 HD
ENDROOT
BRANCH   8  13
ATOM     13  C10 <0> d           2.769  -3.625   1.191  0.00  0.00     0.274 A 
ATOM     14  O3  <0> d           2.738  -2.841   2.394  0.00  0.00    -0.227 OA
ATOM     15  N3  <0> d           3.973  -3.069   3.052  0.00  0.00    -0.111 NA
ATOM     16  C11 <0> d           4.711  -3.889   2.379  0.00  0.00     0.181 A 
ATOM     17  N2  <0> d           4.077  -4.297   1.219  0.00  0.00    -0.342 N 
ATOM     18  H8  <0> d           4.428  -4.909   0.553  0.00  0.00     0.164 HD
BRANCH  16  19
ATOM     19  C12 <0> d           6.061  -4.335   2.797  0.00  0.00     0.104 A 
ATOM     20  N4  <0> d           6.739  -5.182   2.033  0.00  0.00    -0.257 NA
ATOM     21  C16 <0> d           7.943  -5.599   2.366  0.00  0.00     0.117 A 
ATOM     22  C15 <0> d           8.544  -5.174   3.538  0.00  0.00     0.019 A 
ATOM     23  C14 <0> d           7.867  -4.292   4.368  0.00  0.00     0.004 A 
ATOM     24  C13 <0> d           6.605  -3.865   3.991  0.00  0.00     0.036 A 
ENDBRANCH  16  19
ENDBRANCH   8  13
BRANCH   9  25
ATOM     25  O2  <0> d           0.170  -2.815  -0.016  0.00  0.00    -0.363 OA
ATOM     26  H7  <0> d          -0.645  -2.295  -0.005  0.00  0.00     0.217 HD
ENDBRANCH   9  25
TORSDOF 3
