REMARK  6 active torsions:
REMARK  status: ('A' for Active; 'I' for Inactive)
REMARK    1  A    between atoms: C2_2  and  N1_3 
REMARK    2  A    between atoms: N1_3  and  C3_4 
REMARK    3  A    between atoms: N1_3  and  S1_6 
REMARK    4  A    between atoms: S1_6  and  C5_9 
REMARK    5  A    between atoms: C7_11  and  N2_16 
REMARK       I    between atoms: N2_16  and  C11_17 
REMARK    6  A    between atoms: C11_17  and  C12_19 
REMARK       I    between atoms: C12_19  and  N3_21 
ROOT
ATOM      1  C5  <0> d          -0.265   0.792  -3.581  0.00  0.00     0.103 A 
ATOM      2  C6  <0> d           0.421   0.806  -4.779  0.00  0.00     0.056 A 
ATOM      3  C7  <0> d           0.473   1.972  -5.534  0.00  0.00     0.036 A 
ATOM      4  C8  <0> d          -0.165   3.119  -5.080  0.00  0.00     0.031 A 
ATOM      5  C9  <0> d          -0.849   3.099  -3.881  0.00  0.00     0.028 A 
ATOM      6  C10 <0> d          -0.905   1.935  -3.134  0.00  0.00     0.057 A 
ATOM      7 Cl1  <0> d          -1.772   1.911  -1.631  0.00  0.00    -0.083 Cl
ENDROOT
BRANCH   3   8
ATOM      8  N2  <0> d           1.167   1.989  -6.747  0.00  0.00    -0.319 N 
ATOM      9  C11 <0> d           1.170   0.898  -7.538  0.00  0.00     0.313 C 
ATOM     10  O3  <0> d           0.500  -0.069  -7.240  0.00  0.00    -0.262 OA
ATOM     11  H14 <0> d           1.648   2.787  -7.019  0.00  0.00     0.169 HD
BRANCH   9  12
ATOM     12  C12 <0> d           1.996   0.880  -8.782  0.00  0.00     0.309 C 
ATOM     13  O4  <0> d           2.666   1.847  -9.080  0.00  0.00    -0.262 OA
ATOM     14  N3  <0> d           1.998  -0.211  -9.573  0.00  0.00    -0.357 N 
ATOM     15  C13 <0> d           2.809  -0.230 -10.793  0.00  0.00     0.149 C 
ATOM     16  H15 <0> d           1.463  -0.984  -9.335  0.00  0.00     0.162 HD
ENDBRANCH   9  12
ENDBRANCH   3   8
BRANCH   1  17
ATOM     17  S1  <0> d          -0.333  -0.686  -2.623  0.00  0.00     0.262 S 
ATOM     18  O1  <0> d           0.377  -1.676  -3.355  0.00  0.00    -0.200 OA
ATOM     19  O2  <0> d          -1.688  -0.853  -2.230  0.00  0.00    -0.200 OA
BRANCH  17  20
ATOM     20  N1  <0> d           0.532  -0.411  -1.238  0.00  0.00    -0.307 N 
BRANCH  20  21
ATOM     21  C2  <0> d          -0.112   0.228  -0.087  0.00  0.00     0.131 C 
ATOM     22  C1  <0> d           0.484   1.621   0.122  0.00  0.00     0.027 C 
ENDBRANCH  20  21
BRANCH  20  23
ATOM     23  C3  <0> d           1.940  -0.807  -1.163  0.00  0.00     0.131 C 
ATOM     24  C4  <0> d           2.048  -2.191  -0.520  0.00  0.00     0.027 C 
ENDBRANCH  20  23
ENDBRANCH  17  20
ENDBRANCH   1  17
TORSDOF 6
