REMARK  5 active torsions:
REMARK  status: ('A' for Active; 'I' for Inactive)
REMARK    1  A    between atoms: C3_3  and  N4_22 
REMARK    2  A    between atoms: C6_6  and  C7_7 
REMARK       I    between atoms: C7_7  and  N1_9 
REMARK    3  A    between atoms: N1_9  and  C8_10 
REMARK    4  A    between atoms: C11_13  and  N3_16 
REMARK       I    between atoms: N3_16  and  C13_17 
REMARK    5  A    between atoms: C13_17  and  C14_19 
ROOT
ATOM      1  C7  <0> d          -1.401  -0.557  -0.431  0.00  0.00     0.256 C 
ATOM      2  O1  <0> d          -2.449  -0.120  -0.869  0.00  0.00    -0.267 OA
ATOM      3  N1  <0> d          -1.366  -1.776   0.141  0.00  0.00    -0.322 N 
ATOM      4  H5  <0> d          -0.549  -2.094   0.556  0.00  0.00     0.169 HD
ENDROOT
BRANCH   1   5
ATOM      5  C6  <0> d          -0.169   0.249  -0.527  0.00  0.00     0.032 A 
ATOM      6  C1  <0> d          -0.204   1.514  -1.121  0.00  0.00     0.019 A 
ATOM      7  C2  <0> d           0.948   2.264  -1.208  0.00  0.00     0.032 A 
ATOM      8  C3  <0> d           2.145   1.763  -0.706  0.00  0.00     0.059 A 
ATOM      9  C4  <0> d           2.183   0.504  -0.115  0.00  0.00     0.032 A 
ATOM     10  C5  <0> d           1.036  -0.251  -0.025  0.00  0.00     0.019 A 
BRANCH   8  11
ATOM     11  N4  <0> d           3.310   2.525  -0.797  0.00  0.00    -0.222 N 
ATOM     12  N5  <0> d           3.295   3.867  -0.400  0.00  0.00    -0.260 N 
ATOM     13  C20 <0> d           4.259   4.711  -0.807  0.00  0.00     0.236 C 
ATOM     14  H19 <0> d           2.586   4.190   0.178  0.00  0.00     0.190 HD
ATOM     15  C19 <0> d           5.360   4.226  -1.712  0.00  0.00     0.114 C 
ATOM     16  O4  <0> d           4.239   5.870  -0.448  0.00  0.00    -0.272 OA
ATOM     17  C18 <0> d           5.705   2.776  -1.368  0.00  0.00     0.114 C 
ATOM     18  C17 <0> d           4.439   1.966  -1.270  0.00  0.00     0.243 C 
ATOM     19  O3  <0> d           4.437   0.804  -1.620  0.00  0.00    -0.271 OA
ENDBRANCH   8  11
ENDBRANCH   1   5
BRANCH   3  20
ATOM     20  C8  <0> d          -2.510  -2.585   0.138  0.00  0.00     0.052 A 
ATOM     21  C12 <0> d          -2.747  -3.471   1.178  0.00  0.00     0.148 A 
ATOM     22  N2  <0> d          -3.824  -4.232   1.183  0.00  0.00    -0.241 NA
ATOM     23  C11 <0> d          -4.710  -4.191   0.201  0.00  0.00     0.129 A 
ATOM     24  C10 <0> d          -4.536  -3.331  -0.877  0.00  0.00     0.053 A 
ATOM     25  C9  <0> d          -3.421  -2.513  -0.915  0.00  0.00     0.035 A 
BRANCH  23  26
ATOM     26  N3  <0> d          -5.832  -5.019   0.249  0.00  0.00    -0.311 N 
ATOM     27  C13 <0> d          -5.953  -5.934   1.231  0.00  0.00     0.227 C 
ATOM     28  O2  <0> d          -5.133  -5.976   2.124  0.00  0.00    -0.273 OA
ATOM     29  H9  <0> d          -6.524  -4.938  -0.426  0.00  0.00     0.170 HD
BRANCH  27  30
ATOM     30  C14 <0> d          -7.107  -6.902   1.221  0.00  0.00     0.078 A 
ATOM     31  C16 <0> d          -7.189  -7.916   2.364  0.00  0.00     0.015 A 
ATOM     32  C15 <0> d          -8.172  -6.745   2.308  0.00  0.00     0.015 A 
ENDBRANCH  27  30
ENDBRANCH  23  26
ENDBRANCH   3  20
TORSDOF 5
