REMARK  4 active torsions:
REMARK  status: ('A' for Active; 'I' for Inactive)
REMARK    1  A    between atoms: C2_2  and  N1_3 
REMARK       I    between atoms: N1_3  and  C3_4 
REMARK    2  A    between atoms: C3_4  and  C4_6 
REMARK    3  A    between atoms: C4_6  and  N2_7 
REMARK       I    between atoms: N3_10  and  C9_13 
REMARK    4  A    between atoms: C9_13  and  C10_15 
ROOT
ATOM      1  N2  <0> d          -2.912  -3.899   0.100  0.00  0.00     0.100 N 
ATOM      2  C5  <0> d          -2.386  -4.378  -1.185  0.00  0.00     0.293 C 
ATOM      3  C6  <0> d          -2.233  -5.902  -1.135  0.00  0.00     0.156 C 
ATOM      4  N3  <0> d          -3.521  -6.487  -0.734  0.00  0.00    -0.348 N 
ATOM      5  C7  <0> d          -4.179  -5.962   0.472  0.00  0.00     0.156 C 
ATOM      6  C8  <0> d          -4.255  -4.435   0.359  0.00  0.00     0.293 C 
ATOM      7  C9  <0> d          -4.084  -7.479  -1.452  0.00  0.00     0.230 C 
ATOM      8  O2  <0> d          -3.572  -7.843  -2.490  0.00  0.00    -0.272 OA
ENDROOT
BRANCH   7   9
ATOM      9  C10 <0> d          -5.349  -8.138  -0.965  0.00  0.00     0.061 C 
ATOM     10  C14 <0> d          -5.677  -9.337  -1.858  0.00  0.00     0.251 C 
ATOM     11  N4  <0> d          -5.864  -8.884  -3.241  0.00  0.00    -0.074 N 
ATOM     12  C13 <0> d          -7.015  -7.976  -3.318  0.00  0.00     0.232 C 
ATOM     13  H23 <0> d          -6.027  -9.683  -3.836  0.00  0.00     0.277 HD
ATOM     14  H29 <0> d          -5.034  -8.401  -3.551  0.00  0.00     0.277 HD
ATOM     15  C12 <0> d          -6.738  -6.725  -2.481  0.00  0.00     0.029 C 
ATOM     16  C11 <0> d          -6.504  -7.133  -1.024  0.00  0.00     0.022 C 
ATOM     17  C15 <0> d          -5.157  -8.612   0.477  0.00  0.00     0.027 C 
ENDBRANCH   7   9
BRANCH   1  18
ATOM     18  C4  <0> d          -2.911  -2.431   0.156  0.00  0.00     0.374 C 
BRANCH  18  19
ATOM     19  C3  <0> d          -1.491  -1.928   0.132  0.00  0.00     0.246 C 
ATOM     20  N1  <0> d          -1.244  -0.604   0.175  0.00  0.00    -0.360 N 
ATOM     21  H6  <0> d          -1.980   0.025   0.221  0.00  0.00     0.162 HD
ATOM     22  O1  <0> d          -0.570  -2.715   0.074  0.00  0.00    -0.272 OA
BRANCH  20  23
ATOM     23  C2  <0> d           0.137  -0.115   0.151  0.00  0.00     0.118 C 
ATOM     24  C1  <0> d           0.138   1.414   0.209  0.00  0.00     0.026 C 
ENDBRANCH  20  23
ENDBRANCH  18  19
ENDBRANCH   1  18
TORSDOF 4
