REMARK  4 active torsions:
REMARK  status: ('A' for Active; 'I' for Inactive)
REMARK    1  A    between atoms: C2_2  and  C3_3 
REMARK    2  A    between atoms: C2_2  and  N1_11 
REMARK       I    between atoms: N1_11  and  C9_12 
REMARK    3  A    between atoms: C9_12  and  C10_14 
REMARK    4  A    between atoms: C10_14  and  N2_15 
ROOT
ATOM      1  N1  <0> d           2.317   5.373  -0.879  0.00  0.00    -0.351 N 
ATOM      2  C9  <0> d           3.413   5.915  -1.447  0.00  0.00     0.236 C 
ATOM      3  O1  <0> d           4.507   5.439  -1.229  0.00  0.00    -0.272 OA
ATOM      4  H8  <0> d           1.442   5.753  -1.054  0.00  0.00     0.163 HD
ENDROOT
BRANCH   2   5
ATOM      5  C10 <0> d           3.278   7.112  -2.353  0.00  0.00     0.235 C 
BRANCH   5   6
ATOM      6  N2  <0> d           4.602   7.508  -2.839  0.00  0.00    -0.299 N 
ATOM      7  C14 <0> d           5.085   6.977  -3.986  0.00  0.00     0.264 A 
ATOM      8  C13 <0> d           6.413   7.408  -4.424  0.00  0.00     0.099 A 
ATOM      9  O2  <0> d           4.439   6.169  -4.630  0.00  0.00    -0.267 OA
ATOM     10  C12 <0> d           7.100   8.341  -3.631  0.00  0.00     0.164 A 
ATOM     11  C15 <0> d           7.240   7.102  -5.520  0.00  0.00     0.160 A 
ATOM     12  N3  <0> d           6.521   8.800  -2.510  0.00  0.00    -0.224 NA
ATOM     13  N5  <0> d           8.289   8.571  -4.246  0.00  0.00    -0.256 N 
ATOM     14  C11 <0> d           5.337   8.409  -2.139  0.00  0.00     0.215 A 
ATOM     15  N4  <0> d           8.342   7.791  -5.408  0.00  0.00    -0.182 NA
ATOM     16  C16 <0> d           9.337   9.480  -3.774  0.00  0.00     0.182 C 
ENDBRANCH   5   6
ENDBRANCH   2   5
BRANCH   1  17
ATOM     17  C2  <0> d           2.448   4.209   0.001  0.00  0.00     0.113 C 
ATOM     18  C1  <0> d           2.772   4.678   1.421  0.00  0.00     0.037 C 
BRANCH  17  19
ATOM     19  C3  <0> d           1.153   3.438   0.010  0.00  0.00    -0.033 A 
ATOM     20  C8  <0> d           1.172   2.056   0.002  0.00  0.00     0.054 A 
ATOM     21  C7  <0> d          -0.016   1.347   0.009  0.00  0.00     0.155 A 
ATOM     22  C6  <0> d          -1.226   2.024   0.019  0.00  0.00     0.154 A 
ATOM     23  F1  <0> d           0.002  -0.004   0.002  0.00  0.00    -0.203 F 
ATOM     24  C5  <0> d          -1.242   3.408   0.032  0.00  0.00     0.046 A 
ATOM     25  F2  <0> d          -2.387   1.335   0.021  0.00  0.00    -0.203 F 
ATOM     26  C4  <0> d          -0.053   4.113   0.025  0.00  0.00     0.012 A 
ENDBRANCH  17  19
ENDBRANCH   1  17
TORSDOF 4
