REMARK  6 active torsions:
REMARK  status: ('A' for Active; 'I' for Inactive)
REMARK    1  A    between atoms: C2_2  and  C3_3 
REMARK    2  A    between atoms: C2_2  and  S2_16 
REMARK       I    between atoms: C3_3  and  N1_5 
REMARK    3  A    between atoms: N1_5  and  C4_6 
REMARK    4  A    between atoms: C7_9  and  S1_12 
REMARK    5  A    between atoms: S1_12  and  N2_15 
REMARK    6  A    between atoms: S2_16  and  C10_17 
ROOT
ATOM      1  C1  <0> d          -0.007   1.532   0.016  0.00  0.00     0.031 C 
ATOM      2  C2  <0> d           0.003   0.002   0.004  0.00  0.00     0.143 C 
ENDROOT
BRANCH   2   3
ATOM      3  C3  <0> d           0.730  -0.505   1.222  0.00  0.00     0.236 C 
ATOM      4  O1  <0> d           1.909  -0.785   1.153  0.00  0.00    -0.272 OA
ATOM      5  N1  <0> d           0.071  -0.647   2.389  0.00  0.00    -0.326 N 
ATOM      6  H5  <0> d          -0.852  -0.361   2.463  0.00  0.00     0.169 HD
BRANCH   5   7
ATOM      7  C4  <0> d           0.720  -1.209   3.495  0.00  0.00     0.034 A 
ATOM      8  C9  <0> d           2.071  -0.968   3.706  0.00  0.00     0.031 A 
ATOM      9  C8  <0> d           2.707  -1.518   4.801  0.00  0.00     0.027 A 
ATOM     10  C7  <0> d           2.002  -2.319   5.681  0.00  0.00     0.079 A 
ATOM     11  C6  <0> d           0.658  -2.566   5.471  0.00  0.00     0.027 A 
ATOM     12  C5  <0> d           0.015  -2.013   4.381  0.00  0.00     0.031 A 
BRANCH  10  13
ATOM     13  S1  <0> d           2.819  -3.026   7.073  0.00  0.00     0.256 S 
ATOM     14  O2  <0> d           3.943  -2.201   7.346  0.00  0.00    -0.201 OA
ATOM     15  O3  <0> d           1.814  -3.289   8.043  0.00  0.00    -0.201 OA
BRANCH  13  16
ATOM     16  N2  <0> d           3.414  -4.496   6.597  0.00  0.00    -0.324 N 
ATOM     17  H10 <0> d           3.275  -4.804   5.688  0.00  0.00     0.169 HD
ATOM     18  H11 <0> d           3.903  -5.048   7.227  0.00  0.00     0.169 HD
ENDBRANCH  13  16
ENDBRANCH  10  13
ENDBRANCH   5   7
ENDBRANCH   2   3
BRANCH   2  19
ATOM     19  S2  <0> d           0.847  -0.585  -1.491  0.00  0.00    -0.076 SA
BRANCH  19  20
ATOM     20  C10 <0> d          -0.192  -0.042  -2.807  0.00  0.00     0.197 A 
ATOM     21  N5  <0> d           0.018  -0.243  -4.140  0.00  0.00    -0.271 N 
ATOM     22  C11 <0> d          -1.044   0.350  -4.784  0.00  0.00     0.159 A 
ATOM     23  C12 <0> d           1.017  -0.879  -4.857  0.00  0.00     0.053 A 
ATOM     24  N4  <0> d          -1.816   0.870  -3.848  0.00  0.00    -0.129 NA
ATOM     25  C19 <0> d          -1.144   0.324  -6.195  0.00  0.00     0.054 A 
ATOM     26  N3  <0> d          -1.311   0.638  -2.688  0.00  0.00    -0.122 NA
ATOM     27  C18 <0> d          -0.188  -0.279  -6.937  0.00  0.00     0.017 A 
ATOM     28  C17 <0> d           0.946  -0.916  -6.261  0.00  0.00    -0.009 A 
ATOM     29  C16 <0> d           1.951  -1.557  -6.992  0.00  0.00     0.014 A 
ATOM     30  C15 <0> d           3.004  -2.148  -6.330  0.00  0.00     0.001 A 
ATOM     31  C14 <0> d           3.072  -2.110  -4.945  0.00  0.00     0.002 A 
ATOM     32  C13 <0> d           2.088  -1.481  -4.210  0.00  0.00     0.031 A 
ENDBRANCH  19  20
ENDBRANCH   2  19
TORSDOF 6
