REMARK  3 active torsions:
REMARK  status: ('A' for Active; 'I' for Inactive)
REMARK    1  A    between atoms: C7_7  and  C9_10 
REMARK    2  A    between atoms: C9_10  and  C10_11 
REMARK    3  A    between atoms: C9_10  and  O1_17 
ROOT
ATOM      1  C1  <0> d           1.176   1.782   0.000  0.00  0.00     0.001 A 
ATOM      2  C2  <0> d           1.155   3.164   0.008  0.00  0.00     0.002 A 
ATOM      3  C3  <0> d          -0.046   3.840   0.024  0.00  0.00     0.029 A 
ATOM      4  C4  <0> d          -1.251   3.134   0.031  0.00  0.00     0.034 A 
ATOM      5  C5  <0> d          -1.219   1.749   0.017  0.00  0.00    -0.023 A 
ATOM      6  C6  <0> d          -0.013   1.076   0.008  0.00  0.00     0.010 A 
ATOM      7  C7  <0> d          -2.641   1.235   0.035  0.00  0.00     0.073 A 
ATOM      8  C8  <0> d          -3.510   2.503   0.051  0.00  0.00     0.132 A 
ATOM      9  N1  <0> d          -2.560   3.619   0.047  0.00  0.00    -0.389 N 
ATOM     10  H9  <0> d          -2.805   4.558   0.055  0.00  0.00     0.159 HD
ENDROOT
BRANCH   7  11
ATOM     11  C9  <0> d          -2.898   0.396   1.288  0.00  0.00     0.180 C 
BRANCH  11  12
ATOM     12  C10 <0> d          -4.342  -0.035   1.317  0.00  0.00     0.063 A 
ATOM     13  N2  <0> d          -5.295   0.874   1.243  0.00  0.00    -0.263 NA
ATOM     14  C14 <0> d          -6.572   0.544   1.260  0.00  0.00     0.117 A 
ATOM     15  C13 <0> d          -6.958  -0.779   1.367  0.00  0.00     0.019 A 
ATOM     16  C12 <0> d          -5.984  -1.762   1.452  0.00  0.00     0.003 A 
ATOM     17  C11 <0> d          -4.653  -1.377   1.426  0.00  0.00     0.030 A 
ENDBRANCH  11  12
BRANCH  11  18
ATOM     18  O1  <0> d          -2.057  -0.759   1.269  0.00  0.00    -0.389 OA
ATOM     19  H14 <0> d          -2.199  -1.336   0.505  0.00  0.00     0.210 HD
ENDBRANCH  11  18
ENDBRANCH   7  11
TORSDOF 3
