REMARK  5 active torsions:
REMARK  status: ('A' for Active; 'I' for Inactive)
REMARK    1  A    between atoms: C2_2  and  C3_3 
REMARK    2  A    between atoms: C2_2  and  N1_8 
REMARK       I    between atoms: N1_8  and  C7_9 
REMARK    3  A    between atoms: C7_9  and  C8_11 
REMARK    4  A    between atoms: C10_13  and  C15_23 
REMARK    5  A    between atoms: C13_19  and  C14_20 
REMARK       I    between atoms: C14_20  and  N5_22 
ROOT
ATOM      1  C8  <0> d          -3.732  -0.708   1.675  0.00  0.00     0.112 A 
ATOM      2  C9  <0> d          -4.013  -1.949   2.165  0.00  0.00     0.068 A 
ATOM      3  C10 <0> d          -5.332  -2.448   2.062  0.00  0.00     0.071 A 
ATOM      4  N2  <0> d          -6.277  -1.717   1.497  0.00  0.00    -0.227 NA
ATOM      5  C11 <0> d          -6.011  -0.505   1.016  0.00  0.00     0.171 A 
ATOM      6  N3  <0> d          -4.746   0.026   1.097  0.00  0.00    -0.283 N 
ATOM      7  C12 <0> d          -4.785   1.258   0.525  0.00  0.00     0.217 A 
ATOM      8  N4  <0> d          -5.993   1.512   0.109  0.00  0.00    -0.234 NA
ATOM      9  C13 <0> d          -6.798   0.467   0.380  0.00  0.00     0.171 A 
ENDROOT
BRANCH   1  10
ATOM     10  C7  <0> d          -2.365  -0.156   1.766  0.00  0.00     0.269 C 
ATOM     11  N1  <0> d          -1.361  -0.920   2.241  0.00  0.00    -0.347 N 
ATOM     12  H8  <0> d          -1.573  -1.924   2.637  0.00  0.00     0.163 HD
ATOM     13  O1  <0> d          -2.145   0.987   1.415  0.00  0.00    -0.266 OA
BRANCH  11  14
ATOM     14  C2  <0> d           0.014  -0.413   2.229  0.00  0.00     0.121 C 
ATOM     15  C1  <0> d           0.258   0.429   3.483  0.00  0.00     0.038 C 
BRANCH  14  16
ATOM     16  C3  <0> d           0.977  -1.572   2.206  0.00  0.00     0.005 A 
ATOM     17  S1  <0> d           0.888  -3.124   3.084  0.00  0.00    -0.104 SA
ATOM     18  C6  <0> d           2.400  -3.848   2.469  0.00  0.00     0.050 A 
ATOM     19  C5  <0> d           2.864  -2.873   1.649  0.00  0.00     0.008 A 
ATOM     20  C4  <0> d           2.132  -1.709   1.510  0.00  0.00     0.017 A 
ENDBRANCH  14  16
ENDBRANCH  11  14
ENDBRANCH   1  10
BRANCH   3  21
ATOM     21  C15 <0> d          -5.656  -3.794   2.588  0.00  0.00    -0.007 A 
ATOM     22  C20 <0> d          -6.956  -4.291   2.489  0.00  0.00     0.014 A 
ATOM     23  C19 <0> d          -7.251  -5.545   2.981  0.00  0.00     0.001 A 
ATOM     24  C18 <0> d          -6.261  -6.311   3.572  0.00  0.00     0.000 A 
ATOM     25  C17 <0> d          -4.971  -5.823   3.674  0.00  0.00     0.001 A 
ATOM     26  C16 <0> d          -4.661  -4.572   3.180  0.00  0.00     0.014 A 
ENDBRANCH   3  21
BRANCH   9  27
ATOM     27  C14 <0> d          -8.227   0.365   0.071  0.00  0.00     0.272 C 
ATOM     28  O2  <0> d          -8.844  -0.640   0.371  0.00  0.00    -0.266 OA
ATOM     29  N5  <0> d          -8.857   1.384  -0.546  0.00  0.00    -0.365 N 
ATOM     30  H11 <0> d          -9.930   1.307  -0.779  0.00  0.00     0.159 HD
ATOM     31  H12 <0> d          -8.300   2.292  -0.818  0.00  0.00     0.159 HD
ENDBRANCH   9  27
TORSDOF 5
