REMARK  5 active torsions:
REMARK  status: ('A' for Active; 'I' for Inactive)
REMARK    1  A    between atoms: C2_2  and  N1_3 
REMARK    2  A    between atoms: N1_3  and  C3_4 
REMARK    3  A    between atoms: N1_3  and  C8_10 
REMARK    4  A    between atoms: C3_4  and  C4_5 
REMARK    5  A    between atoms: C11_15  and  N3_21 
ROOT
ATOM      1  C8  <0> d          -0.033  -0.711  -2.364  0.00  0.00     0.169 A 
ATOM      2  N2  <0> d           0.407  -1.138  -3.527  0.00  0.00    -0.228 NA
ATOM      3  C9  <0> d          -0.408  -1.320  -4.564  0.00  0.00     0.053 A 
ATOM      4  C10 <0> d          -1.712  -1.032  -4.322  0.00  0.00     0.041 A 
ATOM      5  S1  <0> d          -1.688  -0.525  -2.625  0.00  0.00    -0.053 SA
ATOM      6  C11 <0> d          -2.859  -1.135  -5.268  0.00  0.00     0.226 C 
ATOM      7  C12 <0> d          -2.410  -1.970  -6.478  0.00  0.00     0.047 C 
ATOM      8  C13 <0> d          -1.050  -1.455  -6.956  0.00  0.00    -0.040 C 
ATOM      9  C14 <0> d           0.035  -1.808  -5.936  0.00  0.00     0.069 C 
ATOM     10  C15 <0> d          -0.708  -2.098  -8.302  0.00  0.00     0.015 C 
ATOM     11  C16 <0> d          -1.113   0.064  -7.124  0.00  0.00     0.015 C 
ENDROOT
BRANCH   1  12
ATOM     12  N1  <0> d           0.688  -0.476  -1.203  0.00  0.00    -0.358 N 
BRANCH  12  13
ATOM     13  C2  <0> d           0.002  -0.004   0.002  0.00  0.00     0.120 C 
ATOM     14  C1  <0> d          -0.019   1.526   0.010  0.00  0.00     0.026 C 
ENDBRANCH  12  13
BRANCH  12  15
ATOM     15  C3  <0> d           2.135  -0.701  -1.182  0.00  0.00     0.157 C 
BRANCH  15  16
ATOM     16  C4  <0> d           2.421  -2.145  -0.763  0.00  0.00     0.139 C 
ATOM     17  O1  <0> d           1.949  -3.046  -1.772  0.00  0.00    -0.384 OA
ATOM     18  C7  <0> d           3.053  -3.790  -2.318  0.00  0.00     0.168 C 
ATOM     19  C6  <0> d           4.134  -3.782  -1.209  0.00  0.00     0.029 C 
ATOM     20  C5  <0> d           3.944  -2.357  -0.621  0.00  0.00     0.035 C 
ENDBRANCH  15  16
ENDBRANCH  12  15
ENDBRANCH   1  12
BRANCH   6  21
ATOM     21  N3  <0> d          -3.993  -1.792  -4.604  0.00  0.00    -0.070 N 
ATOM     22  H26 <0> d          -4.271  -1.251  -3.799  0.00  0.00     0.275 HD
ATOM     23  H27 <0> d          -4.767  -1.860  -5.248  0.00  0.00     0.275 HD
ATOM     24  H28 <0> d          -3.719  -2.718  -4.309  0.00  0.00     0.275 HD
ENDBRANCH   6  21
TORSDOF 5
