REMARK  2 active torsions:
REMARK  status: ('A' for Active; 'I' for Inactive)
REMARK    1  A    between atoms: C7_7  and  C8_8 
REMARK    2  A    between atoms: C11_14  and  C12_15 
ROOT
ATOM      1  C8  <0> d           0.756  -0.713   3.601  0.00  0.00     0.132 A 
ATOM      2  N1  <0> d           0.923   0.583   3.485  0.00  0.00    -0.155 NA
ATOM      3  N2  <0> d           0.434   1.450   4.438  0.00  0.00    -0.189 N 
ATOM      4  C9  <0> d           0.475   2.861   4.367  0.00  0.00     0.162 C 
ATOM      5  N3  <0> d           0.588   3.520   3.246  0.00  0.00    -0.281 NA
ATOM      6  C10 <0> d           0.375   3.522   5.699  0.00  0.00     0.082 C 
ATOM      7  C11 <0> d           1.025   4.715   5.973  0.00  0.00     0.030 C 
ATOM      8  C20 <0> d          -0.457   2.833   6.718  0.00  0.00     0.283 C 
ATOM      9  O1  <0> d          -0.972   3.455   7.634  0.00  0.00    -0.265 OA
ATOM     10  N5  <0> d          -0.629   1.502   6.602  0.00  0.00    -0.182 NA
ATOM     11  C21 <0> d          -0.170   0.886   5.541  0.00  0.00     0.201 A 
ATOM     12  S1  <0> d          -0.143  -0.841   5.141  0.00  0.00    -0.028 SA
ATOM     13  H8  <0> d           0.649   3.040   2.405  0.00  0.00     0.188 HD
ENDROOT
BRANCH   7  14
ATOM     14  C12 <0> d           1.424   5.010   7.280  0.00  0.00    -0.027 A 
ATOM     15  C19 <0> d           1.373   4.093   8.482  0.00  0.00     0.159 A 
ATOM     16  N4  <0> d           1.904   4.868   9.607  0.00  0.00    -0.385 N 
ATOM     17  C18 <0> d           2.226   6.067   9.195  0.00  0.00     0.039 A 
ATOM     18  H16 <0> d           1.999   4.544  10.517  0.00  0.00     0.160 HD
ATOM     19  C13 <0> d           1.947   6.211   7.750  0.00  0.00    -0.002 A 
ATOM     20  C17 <0> d           2.788   7.227   9.900  0.00  0.00     0.030 A 
ATOM     21  C14 <0> d           2.231   7.443   7.123  0.00  0.00     0.014 A 
ATOM     22  C15 <0> d           2.750   8.469   7.839  0.00  0.00     0.001 A 
ATOM     23  C16 <0> d           3.025   8.365   9.208  0.00  0.00     0.002 A 
ENDBRANCH   7  14
BRANCH   1  24
ATOM     24  C7  <0> d           1.194  -1.792   2.688  0.00  0.00     0.007 A 
ATOM     25  C2  <0> d           1.893  -1.482   1.522  0.00  0.00    -0.049 A 
ATOM     26  C1  <0> d           2.204  -0.046   1.187  0.00  0.00     0.049 C 
ATOM     27  C3  <0> d           2.304  -2.493   0.677  0.00  0.00     0.007 A 
ATOM     28  C4  <0> d           2.020  -3.812   0.984  0.00  0.00     0.001 A 
ATOM     29  C5  <0> d           1.322  -4.126   2.136  0.00  0.00     0.001 A 
ATOM     30  C6  <0> d           0.906  -3.124   2.989  0.00  0.00     0.015 A 
ENDBRANCH   1  24
TORSDOF 2
