REMARK  4 active torsions:
REMARK  status: ('A' for Active; 'I' for Inactive)
REMARK    1  A    between atoms: C2_2  and  N1_3 
REMARK    2  A    between atoms: C7_9  and  C10_15 
REMARK       I    between atoms: C10_15  and  N2_17 
REMARK    3  A    between atoms: N2_17  and  C11_18 
REMARK    4  A    between atoms: C11_18  and  C13_20 
ROOT
ATOM      1  N1  <0> d           0.711  -0.489   1.189  0.00  0.00    -0.237 N 
ATOM      2  C3  <0> d           2.034  -0.649   1.335  0.00  0.00     0.269 A 
ATOM      3  O1  <0> d           2.799  -0.385   0.428  0.00  0.00    -0.266 OA
ATOM      4  C4  <0> d           2.535  -1.154   2.623  0.00  0.00     0.056 A 
ATOM      5  C5  <0> d           3.853  -1.411   3.039  0.00  0.00     0.020 A 
ATOM      6  C6  <0> d           4.106  -1.888   4.303  0.00  0.00     0.018 A 
ATOM      7  C7  <0> d           3.063  -2.126   5.199  0.00  0.00     0.033 A 
ATOM      8  C8  <0> d           1.747  -1.873   4.797  0.00  0.00     0.043 A 
ATOM      9  C9  <0> d           1.504  -1.400   3.540  0.00  0.00     0.096 A 
ATOM     10  S1  <0> d           0.039  -0.953   2.649  0.00  0.00     0.268 S 
ATOM     11  O2  <0> d          -0.706  -2.142   2.423  0.00  0.00    -0.200 OA
ATOM     12  O3  <0> d          -0.504   0.207   3.263  0.00  0.00    -0.200 OA
ENDROOT
BRANCH   7  13
ATOM     13  C10 <0> d           3.345  -2.639   6.558  0.00  0.00     0.252 C 
ATOM     14  O4  <0> d           2.432  -2.844   7.333  0.00  0.00    -0.268 OA
ATOM     15  N2  <0> d           4.616  -2.880   6.937  0.00  0.00    -0.347 N 
ATOM     16  H10 <0> d           5.346  -2.717   6.319  0.00  0.00     0.163 HD
BRANCH  15  17
ATOM     17  C11 <0> d           4.896  -3.388   8.282  0.00  0.00     0.133 C 
ATOM     18  C12 <0> d           4.981  -2.217   9.263  0.00  0.00     0.039 C 
BRANCH  17  19
ATOM     19  C13 <0> d           6.206  -4.133   8.275  0.00  0.00     0.056 A 
ATOM     20  N3  <0> d           7.115  -3.844   7.365  0.00  0.00    -0.263 NA
ATOM     21  C17 <0> d           8.278  -4.466   7.324  0.00  0.00     0.117 A 
ATOM     22  C16 <0> d           8.580  -5.460   8.236  0.00  0.00     0.019 A 
ATOM     23  C15 <0> d           7.646  -5.795   9.204  0.00  0.00     0.003 A 
ATOM     24  C14 <0> d           6.438  -5.116   9.220  0.00  0.00     0.029 A 
ENDBRANCH  17  19
ENDBRANCH  15  17
ENDBRANCH   7  13
BRANCH   1  25
ATOM     25  C2  <0> d           0.002  -0.004   0.002  0.00  0.00     0.140 C 
ATOM     26  C1  <0> d          -0.019   1.526   0.010  0.00  0.00     0.028 C 
ENDBRANCH   1  25
TORSDOF 4
