REMARK  5 active torsions:
REMARK  status: ('A' for Active; 'I' for Inactive)
REMARK    1  A    between atoms: C6_6  and  C10_12 
REMARK    2  A    between atoms: C10_12  and  N5_30 
REMARK    3  A    between atoms: C13_15  and  N2_18 
REMARK    4  A    between atoms: C16_19  and  N4_23 
REMARK       I    between atoms: N4_23  and  C19_24 
REMARK    5  A    between atoms: C19_24  and  C20_26 
ROOT
ATOM      1  C11 <0> d          -0.620   3.022   1.329  0.00  0.00     0.237 C 
ATOM      2  C12 <0> d          -1.466   3.491   2.514  0.00  0.00     0.055 C 
ATOM      3  C13 <0> d          -0.950   2.833   3.797  0.00  0.00     0.115 C 
ATOM      4  C14 <0> d          -0.998   1.311   3.635  0.00  0.00     0.055 C 
ATOM      5  C15 <0> d          -0.165   0.905   2.417  0.00  0.00     0.237 C 
ATOM      6  N5  <0> d          -0.729   1.552   1.213  0.00  0.00    -0.066 N 
ATOM      7  H25 <0> d          -1.720   1.296   1.131  0.00  0.00     0.280 HD
ENDROOT
BRANCH   6   8
ATOM      8  C10 <0> d          -0.013   1.086   0.008  0.00  0.00     0.293 C 
BRANCH   8   9
ATOM      9  C6  <0> d          -0.742   1.585  -1.213  0.00  0.00     0.061 A 
ATOM     10  C5  <0> d          -0.316   2.764  -1.822  0.00  0.00     0.030 A 
ATOM     11  C4  <0> d          -0.962   3.229  -2.932  0.00  0.00     0.016 A 
ATOM     12  C3  <0> d          -2.057   2.492  -3.421  0.00  0.00    -0.004 A 
ATOM     13  C2  <0> d          -2.772   2.910  -4.554  0.00  0.00     0.014 A 
ATOM     14  C7  <0> d          -2.441   1.305  -2.749  0.00  0.00     0.105 A 
ATOM     15  C1  <0> d          -3.826   2.170  -4.997  0.00  0.00     0.004 A 
ATOM     16  C9  <0> d          -4.207   1.003  -4.341  0.00  0.00     0.045 A 
ATOM     17  C8  <0> d          -3.536   0.567  -3.236  0.00  0.00     0.145 A 
ATOM     18  F1  <0> d          -3.921  -0.569  -2.613  0.00  0.00    -0.204 F 
ATOM     19  N1  <0> d          -1.763   0.902  -1.670  0.00  0.00    -0.248 NA
ENDBRANCH   8   9
ENDBRANCH   6   8
BRANCH   3  20
ATOM     20  N2  <0> d          -1.791   3.232   4.927  0.00  0.00    -0.249 N 
ATOM     21  N3  <0> d          -3.168   3.009   5.049  0.00  0.00    -0.183 NA
ATOM     22  C18 <0> d          -3.567   3.504   6.193  0.00  0.00     0.142 A 
ATOM     23  C17 <0> d          -2.462   4.068   6.837  0.00  0.00     0.071 A 
ATOM     24  C16 <0> d          -1.376   3.888   6.035  0.00  0.00     0.128 A 
BRANCH  24  25
ATOM     25  N4  <0> d          -0.073   4.303   6.308  0.00  0.00    -0.311 N 
ATOM     26  C19 <0> d           0.201   4.951   7.458  0.00  0.00     0.227 C 
ATOM     27  O1  <0> d          -0.685   5.171   8.256  0.00  0.00    -0.273 OA
ATOM     28  H19 <0> d           0.636   4.127   5.670  0.00  0.00     0.170 HD
BRANCH  26  29
ATOM     29  C20 <0> d           1.609   5.400   7.752  0.00  0.00     0.078 A 
ATOM     30  C22 <0> d           1.857   6.127   9.075  0.00  0.00     0.015 A 
ATOM     31  C21 <0> d           2.354   4.692   8.886  0.00  0.00     0.015 A 
ENDBRANCH  26  29
ENDBRANCH  24  25
ENDBRANCH   3  20
TORSDOF 5
