REMARK  2 active torsions:
REMARK  status: ('A' for Active; 'I' for Inactive)
REMARK    1  A    between atoms: N1_5  and  C8_9 
REMARK    2  A    between atoms: C8_9  and  C9_10 
ROOT
ATOM      1  C8  <0> d          -0.756  -3.952   1.415  0.00  0.00     0.244 C 
ENDROOT
BRANCH   1   2
ATOM      2  N1  <0> d          -0.754  -2.527   1.059  0.00  0.00    -0.066 N 
ATOM      3  C4  <0> d          -0.982  -2.384  -0.384  0.00  0.00     0.235 C 
ATOM      4  C3  <0> d          -1.061  -0.900  -0.748  0.00  0.00     0.032 C 
ATOM      5  C2  <0> d           0.256  -0.216  -0.367  0.00  0.00    -0.015 C 
ATOM      6  C1  <0> d           0.155   1.283  -0.655  0.00  0.00     0.010 C 
ATOM      7  C6  <0> d           0.522  -0.435   1.125  0.00  0.00     0.037 C 
ATOM      8  C5  <0> d           0.541  -1.936   1.419  0.00  0.00     0.184 C 
ATOM      9  C7  <0> d           0.805  -2.159   2.910  0.00  0.00     0.040 C 
ATOM     10  H30 <0> d          -1.489  -2.055   1.563  0.00  0.00     0.280 HD
ENDBRANCH   1   2
BRANCH   1  11
ATOM     11  C9  <0> d          -2.188  -4.400   1.716  0.00  0.00    -0.017 C 
ATOM     12  C13 <0> d          -2.213  -5.913   1.948  0.00  0.00     0.038 C 
ATOM     13  C12 <0> d          -3.658  -6.366   2.169  0.00  0.00     0.233 C 
ATOM     14  N2  <0> d          -4.464  -6.037   0.988  0.00  0.00    -0.075 N 
ATOM     15  C11 <0> d          -4.503  -4.582   0.801  0.00  0.00     0.233 C 
ATOM     16  H21 <0> d          -5.403  -6.384   1.115  0.00  0.00     0.277 HD
ATOM     17  H29 <0> d          -4.056  -6.468   0.172  0.00  0.00     0.277 HD
ATOM     18  C10 <0> d          -3.091  -4.060   0.527  0.00  0.00     0.038 C 
ATOM     19  C14 <0> d          -2.696  -3.682   2.968  0.00  0.00     0.017 C 
ENDBRANCH   1  11
TORSDOF 2
