REMARK  5 active torsions:
REMARK  status: ('A' for Active; 'I' for Inactive)
REMARK    1  A    between atoms: N1_15  and  C19_24 
REMARK    2  A    between atoms: C12_16  and  C13_17 
REMARK    3  A    between atoms: C16_20  and  O4_23 
REMARK    4  A    between atoms: C19_24  and  C20_25 
REMARK    5  A    between atoms: C20_25  and  O5_26 
ROOT
ATOM      1  C1  <0> d          -0.276   1.238  -0.686  0.00  0.00     0.048 C 
ATOM      2  C2  <0> d          -0.190  -0.263  -0.586  0.00  0.00    -0.060 A 
ATOM      3  C3  <0> d          -0.112  -1.030  -1.740  0.00  0.00     0.016 A 
ATOM      4  C4  <0> d          -0.035  -2.403  -1.671  0.00  0.00    -0.027 A 
ATOM      5  C5  <0> d          -0.033  -3.041  -0.430  0.00  0.00     0.096 A 
ATOM      6  C6  <0> d          -0.106  -2.254   0.731  0.00  0.00     0.050 A 
ATOM      7  C7  <0> d          -0.182  -0.864   0.642  0.00  0.00     0.025 A 
ATOM      8  C8  <0> d          -0.088  -2.923   2.056  0.00  0.00     0.196 C 
ATOM      9  O1  <0> d          -0.315  -2.340   3.101  0.00  0.00    -0.287 OA
ATOM     10  C9  <0> d           0.227  -4.354   1.987  0.00  0.00     0.060 A 
ATOM     11  C10 <0> d           0.277  -5.007   0.788  0.00  0.00     0.156 A 
ATOM     12  O2  <0> d           0.036  -4.391  -0.386  0.00  0.00    -0.303 OA
ATOM     13  C11 <0> d           0.623  -6.416   1.044  0.00  0.00     0.279 A 
ATOM     14  O3  <0> d           0.751  -7.268   0.187  0.00  0.00    -0.265 OA
ATOM     15  N1  <0> d           0.777  -6.623   2.368  0.00  0.00    -0.331 N 
ATOM     16  C12 <0> d           0.538  -5.346   3.059  0.00  0.00     0.161 A 
ATOM     17  C21 <0> d           0.046  -3.217  -2.936  0.00  0.00     0.051 C 
ENDROOT
BRANCH  16  18
ATOM     18  C13 <0> d           1.772  -4.925   3.815  0.00  0.00    -0.030 A 
ATOM     19  C18 <0> d           1.657  -4.408   5.092  0.00  0.00     0.012 A 
ATOM     20  C17 <0> d           2.788  -4.027   5.788  0.00  0.00     0.037 A 
ATOM     21  C16 <0> d           4.038  -4.154   5.202  0.00  0.00     0.065 A 
ATOM     22  C15 <0> d           4.151  -4.668   3.918  0.00  0.00     0.037 A 
ATOM     23  C14 <0> d           3.018  -5.052   3.228  0.00  0.00     0.012 A 
BRANCH  21  24
ATOM     24  O4  <0> d           5.151  -3.775   5.883  0.00  0.00    -0.361 OA
ATOM     25  H11 <0> d           5.400  -2.850   5.747  0.00  0.00     0.217 HD
ENDBRANCH  21  24
ENDBRANCH  16  18
BRANCH  15  26
ATOM     26  C19 <0> d           1.121  -7.897   3.005  0.00  0.00     0.153 C 
BRANCH  26  27
ATOM     27  C20 <0> d          -0.159  -8.603   3.458  0.00  0.00     0.184 C 
BRANCH  27  28
ATOM     28  O5  <0> d          -0.936  -8.960   2.313  0.00  0.00    -0.399 OA
ATOM     29  H16 <0> d          -1.764  -9.413   2.525  0.00  0.00     0.209 HD
ENDBRANCH  27  28
ENDBRANCH  26  27
ENDBRANCH  15  26
TORSDOF 5
