REMARK  2 active torsions:
REMARK  status: ('A' for Active; 'I' for Inactive)
REMARK    1  A    between atoms: C5_6  and  C6_8 
REMARK    2  A    between atoms: C6_8  and  N3_9 
ROOT
ATOM      1  N3  <0> d           1.434  -2.820   2.979  0.00  0.00     0.094 N 
ATOM      2  C7  <0> d           2.229  -3.684   2.095  0.00  0.00     0.278 C 
ATOM      3  C8  <0> d           3.450  -2.914   1.591  0.00  0.00     0.035 C 
ATOM      4  C9  <0> d           4.487  -2.815   2.714  0.00  0.00     0.238 C 
ATOM      5  N4  <0> d           4.059  -1.801   3.686  0.00  0.00    -0.074 N 
ATOM      6  C10 <0> d           3.736  -2.446   4.967  0.00  0.00     0.238 C 
ATOM      7  C11 <0> d           2.909  -3.707   4.715  0.00  0.00     0.035 C 
ATOM      8  C12 <0> d           1.473  -3.312   4.361  0.00  0.00     0.278 C 
ATOM      9  C13 <0> d           2.904  -4.575   5.975  0.00  0.00     0.013 C 
ATOM     10  C14 <0> d           4.059  -3.648   0.396  0.00  0.00     0.013 C 
ATOM     11  H14 <0> d           4.804  -1.134   3.825  0.00  0.00     0.277 HD
ATOM     12  H25 <0> d           3.243  -1.323   3.336  0.00  0.00     0.277 HD
ENDROOT
BRANCH   1  13
ATOM     13  C6  <0> d           0.051  -2.707   2.499  0.00  0.00     0.331 C 
BRANCH  13  14
ATOM     14  C5  <0> d           0.035  -1.975   1.182  0.00  0.00     0.066 A 
ATOM     15  C4  <0> d           0.038  -2.678  -0.013  0.00  0.00     0.048 A 
ATOM     16  C3  <0> d           0.023  -1.962  -1.199  0.00  0.00     0.120 A 
ATOM     17  N1  <0> d           0.005  -0.639  -1.153  0.00  0.00    -0.246 NA
ATOM     18  C2  <0> d           0.002  -0.004   0.002  0.00  0.00     0.122 A 
ATOM     19  C1  <0> d          -0.018   1.503   0.010  0.00  0.00     0.093 C 
ATOM     20  N2  <0> d           0.022  -0.651   1.150  0.00  0.00    -0.237 NA
ENDBRANCH  13  14
ENDBRANCH   1  13
TORSDOF 2
