REMARK  5 active torsions:
REMARK  status: ('A' for Active; 'I' for Inactive)
REMARK    1  A    between atoms: O1_2  and  C2_3 
REMARK    2  A    between atoms: C5_6  and  C9_11 
REMARK    3  A    between atoms: C6_7  and  O2_9 
REMARK    4  A    between atoms: C14_17  and  O5_34 
REMARK    5  A    between atoms: C18_21  and  C21_25 
ROOT
ATOM      1  C9  <0> d           2.580  -2.529   4.300  0.00  0.00     0.070 A 
ATOM      2  C10 <0> d           3.151  -1.754   5.311  0.00  0.00     0.034 A 
ATOM      3  C11 <0> d           3.774  -2.376   6.359  0.00  0.00     0.021 A 
ATOM      4  C12 <0> d           3.819  -3.779   6.376  0.00  0.00     0.060 A 
ATOM      5  C13 <0> d           3.235  -4.493   5.330  0.00  0.00     0.084 A 
ATOM      6  N1  <0> d           2.634  -3.855   4.345  0.00  0.00    -0.249 NA
ATOM      7  C14 <0> d           3.292  -5.994   5.317  0.00  0.00     0.209 C 
ATOM      8  C15 <0> d           4.718  -6.470   5.256  0.00  0.00     0.045 C 
ATOM      9  C16 <0> d           5.582  -6.226   6.257  0.00  0.00     0.026 C 
ATOM     10  C17 <0> d           7.015  -6.707   6.170  0.00  0.00     0.067 C 
ATOM     11  C18 <0> d           7.464  -6.729   4.709  0.00  0.00     0.031 C 
ATOM     12  C19 <0> d           6.528  -7.663   3.932  0.00  0.00     0.093 C 
ATOM     13  C20 <0> d           5.114  -7.182   4.106  0.00  0.00     0.161 C 
ATOM     14  O3  <0> d           4.296  -7.414   3.239  0.00  0.00    -0.292 OA
ATOM     15  N2  <0> d           5.215  -5.558   7.384  0.00  0.00    -0.326 N 
ATOM     16  C27 <0> d           4.468  -4.478   7.489  0.00  0.00     0.258 C 
ATOM     17  O4  <0> d           4.304  -4.021   8.604  0.00  0.00    -0.267 OA
ATOM     18  H23 <0> d           5.547  -5.925   8.219  0.00  0.00     0.169 HD
ENDROOT
BRANCH   1  19
ATOM     19  C5  <0> d           1.900  -1.865   3.166  0.00  0.00     0.026 A 
ATOM     20  C4  <0> d           1.835  -0.472   3.108  0.00  0.00     0.019 A 
ATOM     21  C3  <0> d           1.202   0.144   2.051  0.00  0.00     0.038 A 
ATOM     22  C2  <0> d           0.625  -0.618   1.041  0.00  0.00     0.070 A 
ATOM     23  C7  <0> d           0.680  -2.003   1.093  0.00  0.00     0.074 A 
ATOM     24  C6  <0> d           1.319  -2.631   2.148  0.00  0.00     0.083 A 
BRANCH  22  25
ATOM     25  O1  <0> d           0.002  -0.004   0.002  0.00  0.00    -0.356 OA
ATOM     26  C1  <0> d          -0.017   1.425   0.010  0.00  0.00     0.210 C 
ENDBRANCH  22  25
BRANCH  24  27
ATOM     27  O2  <0> d           1.377  -3.987   2.199  0.00  0.00    -0.355 OA
ATOM     28  C8  <0> d           0.763  -4.703   1.126  0.00  0.00     0.210 C 
ENDBRANCH  24  27
ENDBRANCH   1  19
BRANCH   7  29
ATOM     29  O5  <0> d           2.678  -6.499   6.504  0.00  0.00    -0.384 OA
ATOM     30  H24 <0> d           1.749  -6.247   6.605  0.00  0.00     0.211 HD
ENDBRANCH   7  29
BRANCH  11  31
ATOM     31  C21 <0> d           8.880  -7.239   4.620  0.00  0.00    -0.053 A 
ATOM     32  C26 <0> d           9.869  -6.440   4.078  0.00  0.00     0.007 A 
ATOM     33  C25 <0> d          11.168  -6.906   4.001  0.00  0.00     0.001 A 
ATOM     34  C24 <0> d          11.476  -8.174   4.457  0.00  0.00     0.000 A 
ATOM     35  C23 <0> d          10.486  -8.975   4.993  0.00  0.00     0.001 A 
ATOM     36  C22 <0> d           9.187  -8.508   5.075  0.00  0.00     0.007 A 
ENDBRANCH  11  31
TORSDOF 5
