REMARK  3 active torsions:
REMARK  status: ('A' for Active; 'I' for Inactive)
REMARK    1  A    between atoms: C4_4  and  N1_9 
REMARK       I    between atoms: N1_9  and  C8_10 
REMARK    2  A    between atoms: C8_10  and  C9_12 
REMARK    3  A    between atoms: C12_15  and  N2_18 
ROOT
ATOM      1  N1  <0> d           0.028  -2.771  -2.419  0.00  0.00    -0.323 N 
ATOM      2  C8  <0> d           0.149  -4.113  -2.427  0.00  0.00     0.256 C 
ATOM      3  O1  <0> d           0.163  -4.728  -1.378  0.00  0.00    -0.267 OA
ATOM      4  H7  <0> d          -0.060  -2.287  -3.255  0.00  0.00     0.169 HD
ENDROOT
BRANCH   2   5
ATOM      5  C9  <0> d           0.264  -4.837  -3.710  0.00  0.00     0.032 A 
ATOM      6  C14 <0> d           0.388  -6.228  -3.722  0.00  0.00     0.019 A 
ATOM      7  C13 <0> d           0.489  -6.898  -4.923  0.00  0.00     0.037 A 
ATOM      8  C12 <0> d           0.478  -6.194  -6.115  0.00  0.00     0.102 A 
ATOM      9  C11 <0> d           0.361  -4.816  -6.110  0.00  0.00     0.037 A 
ATOM     10  C10 <0> d           0.253  -4.134  -4.916  0.00  0.00     0.019 A 
BRANCH   8  11
ATOM     11  N2  <0> d           0.592  -6.920  -7.400  0.00  0.00    -0.116 N 
ATOM     12  O2  <0> d           0.582  -6.308  -8.443  0.00  0.00    -0.532 OA
ATOM     13  O3  <0> d           0.694  -8.124  -7.407  0.00  0.00    -0.532 OA
ENDBRANCH   8  11
ENDBRANCH   2   5
BRANCH   1  14
ATOM     14  C4  <0> d           0.031  -2.075  -1.206  0.00  0.00     0.035 A 
ATOM     15  C3  <0> d           0.794  -2.537  -0.141  0.00  0.00     0.037 A 
ATOM     16  C2  <0> d           0.795  -1.848   1.056  0.00  0.00    -0.043 A 
ATOM     17  C1  <0> d           1.622  -2.349   2.212  0.00  0.00     0.049 C 
ATOM     18  C7  <0> d           0.033  -0.702   1.197  0.00  0.00     0.012 A 
ATOM     19  C6  <0> d          -0.724  -0.237   0.136  0.00  0.00     0.021 A 
ATOM     20  I1  <0> d           0.031   0.335   3.017  0.00  0.00    -0.044 I 
ATOM     21  C5  <0> d          -0.729  -0.921  -1.063  0.00  0.00     0.031 A 
ENDBRANCH   1  14
TORSDOF 3
