REMARK  6 active torsions:
REMARK  status: ('A' for Active; 'I' for Inactive)
REMARK    1  A    between atoms: C5_5  and  O1_7 
REMARK    2  A    between atoms: O1_7  and  C7_8 
REMARK    3  A    between atoms: C7_8  and  C8_9 
REMARK    4  A    between atoms: C8_9  and  N1_10 
REMARK       I    between atoms: N1_10  and  C9_11 
REMARK    5  A    between atoms: C9_11  and  C10_13 
REMARK       I    between atoms: N2_15  and  C18_23 
REMARK    6  A    between atoms: C18_23  and  C19_25 
ROOT
ATOM      1  C10 <0> d           1.834  -6.340   2.711  0.00  0.00     0.106 C 
ATOM      2  C11 <0> d           0.985  -5.923   3.932  0.00  0.00     0.140 C 
ATOM      3  N2  <0> d           0.184  -7.126   4.260  0.00  0.00    -0.350 N 
ATOM      4  C12 <0> d           1.119  -8.258   4.053  0.00  0.00     0.136 C 
ATOM      5  C13 <0> d           1.922  -7.873   2.795  0.00  0.00    -0.007 C 
ATOM      6  C14 <0> d           1.298  -8.507   1.557  0.00  0.00     0.039 C 
ATOM      7  C15 <0> d           1.448 -10.029   1.637  0.00  0.00     0.233 C 
ATOM      8  N3  <0> d           2.871 -10.378   1.726  0.00  0.00    -0.075 N 
ATOM      9  C16 <0> d           3.442  -9.841   2.967  0.00  0.00     0.233 C 
ATOM     10  C17 <0> d           3.376  -8.312   2.942  0.00  0.00     0.039 C 
ATOM     11  C18 <0> d          -1.103  -7.179   4.656  0.00  0.00     0.224 C 
ATOM     12  O3  <0> d          -1.622  -8.250   4.889  0.00  0.00    -0.273 OA
ATOM     13  H19 <0> d           2.971 -11.382   1.718  0.00  0.00     0.277 HD
ATOM     14  H33 <0> d           3.361  -9.987   0.935  0.00  0.00     0.277 HD
ENDROOT
BRANCH   1  15
ATOM     15  C9  <0> d           1.154  -5.923   1.432  0.00  0.00     0.224 C 
ATOM     16  N1  <0> d           1.888  -5.654   0.335  0.00  0.00    -0.359 N 
ATOM     17  H10 <0> d           2.855  -5.729   0.367  0.00  0.00     0.162 HD
ATOM     18  O2  <0> d          -0.055  -5.830   1.391  0.00  0.00    -0.273 OA
BRANCH  16  19
ATOM     19  C8  <0> d           1.227  -5.249  -0.908  0.00  0.00     0.149 C 
BRANCH  19  20
ATOM     20  C7  <0> d           2.280  -5.006  -1.991  0.00  0.00     0.195 C 
BRANCH  20  21
ATOM     21  O1  <0> d           2.941  -6.236  -2.297  0.00  0.00    -0.346 OA
BRANCH  21  22
ATOM     22  C5  <0> d           3.913  -6.194  -3.247  0.00  0.00     0.107 A 
ATOM     23  C4  <0> d           4.596  -7.352  -3.595  0.00  0.00     0.149 A 
ATOM     24  C3  <0> d           5.585  -7.306  -4.561  0.00  0.00     0.045 A 
ATOM     25  F1  <0> d           4.295  -8.522  -2.990  0.00  0.00    -0.203 F 
ATOM     26  C2  <0> d           5.891  -6.109  -5.181  0.00  0.00     0.003 A 
ATOM     27  C1  <0> d           5.212  -4.955  -4.836  0.00  0.00     0.003 A 
ATOM     28  C6  <0> d           4.224  -4.995  -3.871  0.00  0.00     0.040 A 
ENDBRANCH  21  22
ENDBRANCH  20  21
ENDBRANCH  19  20
ENDBRANCH  16  19
ENDBRANCH   1  15
BRANCH  11  29
ATOM     29  C19 <0> d          -1.897  -5.907   4.810  0.00  0.00     0.082 C 
ATOM     30  C23 <0> d          -3.320  -6.243   5.267  0.00  0.00     0.040 C 
ATOM     31  C22 <0> d          -4.094  -4.943   5.496  0.00  0.00     0.168 C 
ATOM     32  O4  <0> d          -3.407  -4.144   6.461  0.00  0.00    -0.391 OA
ATOM     33  C21 <0> d          -2.088  -3.759   6.067  0.00  0.00     0.168 C 
ATOM     34  C20 <0> d          -1.233  -5.012   5.861  0.00  0.00     0.040 C 
ENDBRANCH  11  29
TORSDOF 6
