REMARK  3 active torsions:
REMARK  status: ('A' for Active; 'I' for Inactive)
REMARK    1  A    between atoms: C5_5  and  N1_9 
REMARK    2  A    between atoms: C16_18  and  C17_19 
REMARK    3  A    between atoms: N2_20  and  C18_21 
ROOT
ATOM      1  N1  <0> d          -0.048  -4.173  -0.014  0.00  0.00    -0.244 N 
ATOM      2  C9  <0> d           0.122  -4.816   1.153  0.00  0.00     0.266 A 
ATOM      3  O1  <0> d           0.188  -4.176   2.185  0.00  0.00    -0.267 OA
ATOM      4  C10 <0> d           0.230  -6.280   1.204  0.00  0.00     0.044 A 
ATOM      5  C11 <0> d           0.406  -6.955   2.412  0.00  0.00     0.018 A 
ATOM      6  C12 <0> d           0.502  -8.329   2.418  0.00  0.00     0.001 A 
ATOM      7  C13 <0> d           0.426  -9.050   1.235  0.00  0.00     0.001 A 
ATOM      8  C14 <0> d           0.252  -8.403   0.029  0.00  0.00     0.013 A 
ATOM      9  C15 <0> d           0.152  -7.016   0.003  0.00  0.00    -0.003 A 
ATOM     10  C16 <0> d          -0.035  -6.274  -1.260  0.00  0.00     0.059 A 
ATOM     11  C23 <0> d          -0.136  -4.811  -1.192  0.00  0.00     0.267 A 
ATOM     12  O2  <0> d          -0.295  -4.169  -2.214  0.00  0.00    -0.267 OA
ENDROOT
BRANCH  10  13
ATOM     13  C17 <0> d          -0.119  -6.934  -2.466  0.00  0.00     0.107 C 
ATOM     14  N2  <0> d          -0.128  -6.229  -3.629  0.00  0.00    -0.350 N 
ATOM     15  H15 <0> d           0.007  -5.269  -3.615  0.00  0.00     0.166 HD
BRANCH  14  16
ATOM     16  C18 <0> d          -0.330  -6.886  -4.840  0.00  0.00     0.127 A 
ATOM     17  N3  <0> d          -0.338  -6.194  -5.969  0.00  0.00    -0.243 NA
ATOM     18  C22 <0> d          -0.521  -6.778  -7.137  0.00  0.00     0.119 A 
ATOM     19  C21 <0> d          -0.725  -8.141  -7.224  0.00  0.00     0.019 A 
ATOM     20  C20 <0> d          -0.730  -8.902  -6.063  0.00  0.00     0.005 A 
ATOM     21  C19 <0> d          -0.529  -8.262  -4.853  0.00  0.00     0.050 A 
ENDBRANCH  14  16
ENDBRANCH  10  13
BRANCH   1  22
ATOM     22  C5  <0> d          -0.144  -2.776   0.000  0.00  0.00     0.046 A 
ATOM     23  C4  <0> d           0.890  -2.012   0.526  0.00  0.00     0.031 A 
ATOM     24  C3  <0> d           0.792  -0.635   0.538  0.00  0.00     0.009 A 
ATOM     25  C2  <0> d          -0.334  -0.015   0.026  0.00  0.00    -0.056 A 
ATOM     26  C1  <0> d          -0.437   1.488   0.041  0.00  0.00     0.049 C 
ATOM     27  C7  <0> d          -1.367  -0.773  -0.493  0.00  0.00    -0.054 A 
ATOM     28  C6  <0> d          -1.273  -2.151  -0.513  0.00  0.00     0.037 A 
ATOM     29  C8  <0> d          -2.595  -0.094  -1.043  0.00  0.00     0.049 C 
ENDBRANCH   1  22
TORSDOF 3
