REMARK  3 active torsions:
REMARK  status: ('A' for Active; 'I' for Inactive)
REMARK    1  A    between atoms: C6_6  and  N2_20 
REMARK    2  A    between atoms: N1_10  and  S1_11 
REMARK    3  A    between atoms: S1_11  and  C10_14 
ROOT
ATOM      1  C1  <0> d          -0.019   1.526   0.010  0.00  0.00     0.034 C 
ATOM      2  C2  <0> d           0.002  -0.004   0.002  0.00  0.00     0.102 A 
ATOM      3  C3  <0> d           0.778  -0.520  -1.221  0.00  0.00     0.067 A 
ATOM      4  C4  <0> d           1.932  -1.304  -0.637  0.00  0.00    -0.026 A 
ATOM      5  C5  <0> d           2.959  -1.994  -1.251  0.00  0.00     0.038 A 
ATOM      6  C6  <0> d           3.916  -2.646  -0.485  0.00  0.00     0.026 A 
ATOM      7  C7  <0> d           3.834  -2.600   0.900  0.00  0.00     0.031 A 
ATOM      8  C8  <0> d           2.809  -1.911   1.512  0.00  0.00     0.033 A 
ATOM      9  C9  <0> d           1.845  -1.254   0.745  0.00  0.00     0.052 A 
ATOM     10  N1  <0> d           0.735  -0.509   1.166  0.00  0.00    -0.266 N 
ENDROOT
BRANCH  10  11
ATOM     11  S1  <0> d           0.315  -0.236   2.744  0.00  0.00     0.273 S 
ATOM     12  O1  <0> d           1.502  -0.380   3.512  0.00  0.00    -0.199 OA
ATOM     13  O2  <0> d          -0.462   0.954   2.758  0.00  0.00    -0.199 OA
BRANCH  11  14
ATOM     14  C10 <0> d          -0.761  -1.545   3.230  0.00  0.00     0.137 A 
ATOM     15  S2  <0> d          -1.340  -2.937   2.275  0.00  0.00    -0.087 SA
ATOM     16  C13 <0> d          -2.344  -3.707   3.534  0.00  0.00     0.052 A 
ATOM     17  C12 <0> d          -2.179  -2.861   4.580  0.00  0.00     0.028 A 
ATOM     18  C11 <0> d          -1.367  -1.753   4.425  0.00  0.00     0.041 A 
ATOM     19 Br1  <0> d          -1.107  -0.545   5.856  0.00  0.00    -0.049 Br
ENDBRANCH  11  14
ENDBRANCH  10  11
BRANCH   6  20
ATOM     20  N2  <0> d           4.957  -3.345  -1.106  0.00  0.00    -0.399 N 
ATOM     21  H12 <0> d           5.012  -3.375  -2.074  0.00  0.00     0.156 HD
ATOM     22  H13 <0> d           5.625  -3.800  -0.569  0.00  0.00     0.156 HD
ENDBRANCH   6  20
TORSDOF 3
