REMARK  6 active torsions:
REMARK  status: ('A' for Active; 'I' for Inactive)
REMARK    1  A    between atoms: C4_4  and  O1_5 
REMARK    2  A    between atoms: C9_11  and  N1_13 
REMARK       I    between atoms: N1_13  and  C11_14 
REMARK    3  A    between atoms: C11_14  and  C12_16 
REMARK    4  A    between atoms: C15_19  and  S1_22 
REMARK    5  A    between atoms: S1_22  and  N2_25 
REMARK    6  A    between atoms: N2_25  and  C18_26 
ROOT
ATOM      1  N1  <0> d          -2.157   5.492  -1.006  0.00  0.00    -0.323 N 
ATOM      2  C11 <0> d          -2.969   4.617  -0.379  0.00  0.00     0.256 C 
ATOM      3  O3  <0> d          -2.506   3.619   0.137  0.00  0.00    -0.267 OA
ATOM      4  H8  <0> d          -2.564   6.433  -1.403  0.00  0.00     0.169 HD
ENDROOT
BRANCH   2   5
ATOM      5  C12 <0> d          -4.424   4.873  -0.319  0.00  0.00     0.032 A 
ATOM      6  C17 <0> d          -5.268   3.969   0.329  0.00  0.00     0.018 A 
ATOM      7  C16 <0> d          -6.625   4.214   0.382  0.00  0.00     0.026 A 
ATOM      8  C15 <0> d          -7.149   5.351  -0.207  0.00  0.00     0.079 A 
ATOM      9  C14 <0> d          -6.318   6.250  -0.851  0.00  0.00     0.026 A 
ATOM     10  C13 <0> d          -4.959   6.021  -0.905  0.00  0.00     0.018 A 
BRANCH   8  11
ATOM     11  S1  <0> d          -8.884   5.654  -0.136  0.00  0.00     0.259 S 
ATOM     12  O4  <0> d          -9.143   6.733  -1.024  0.00  0.00    -0.201 OA
ATOM     13  O5  <0> d          -9.523   4.392  -0.264  0.00  0.00    -0.201 OA
BRANCH  11  14
ATOM     14  N2  <0> d          -9.223   6.205   1.389  0.00  0.00    -0.307 N 
ATOM     15  H13 <0> d          -9.580   5.495   2.149  0.00  0.00     0.173 HD
BRANCH  14  16
ATOM     16  C18 <0> d          -8.844   7.566   1.777  0.00  0.00     0.029 C 
ATOM     17  C19 <0> d          -9.671   8.573   0.976  0.00  0.00     0.038 C 
ATOM     18  C20 <0> d          -9.109   7.762   3.271  0.00  0.00     0.038 C 
ATOM     19  C21 <0> d          -7.357   7.783   1.490  0.00  0.00     0.038 C 
ENDBRANCH  14  16
ENDBRANCH  11  14
ENDBRANCH   8  11
ENDBRANCH   2   5
BRANCH   1  20
ATOM     20  C9  <0> d          -0.801   5.202  -1.150  0.00  0.00     0.037 A 
ATOM     21  C8  <0> d          -0.131   5.590  -2.311  0.00  0.00     0.030 A 
ATOM     22  C7  <0> d           1.195   5.309  -2.469  0.00  0.00     0.017 A 
ATOM     23  C6  <0> d           1.890   4.638  -1.456  0.00  0.00     0.004 A 
ATOM     24  C2  <0> d           3.315   4.330  -1.597  0.00  0.00    -0.044 A 
ATOM     25  C5  <0> d           1.222   4.250  -0.280  0.00  0.00     0.091 A 
ATOM     26  C1  <0> d           4.073   4.725  -2.837  0.00  0.00     0.049 C 
ATOM     27  C3  <0> d           3.934   3.677  -0.578  0.00  0.00     0.071 A 
ATOM     28  C4  <0> d           3.202   3.318   0.572  0.00  0.00     0.183 A 
ATOM     29  O2  <0> d           1.897   3.604   0.695  0.00  0.00    -0.287 OA
ATOM     30  C10 <0> d          -0.127   4.537  -0.136  0.00  0.00     0.067 A 
BRANCH  28  31
ATOM     31  O1  <0> d           3.770   2.733   1.478  0.00  0.00    -0.341 OA
ATOM     32  H23 <0> d           3.212   2.447   2.381  0.00  0.00     0.220 HD
ENDBRANCH  28  31
ENDBRANCH   1  20
TORSDOF 6
