REMARK  2 active torsions:
REMARK  status: ('A' for Active; 'I' for Inactive)
REMARK    1  A    between atoms: N1_2  and  C2_3 
REMARK    2  A    between atoms: C2_3  and  C3_4 
ROOT
ATOM      1  C3  <0> d          -1.301  -2.055   0.003  0.00  0.00     0.159 A 
ATOM      2  N2  <0> d          -0.123  -2.629  -0.005  0.00  0.00    -0.192 NA
ATOM      3  C4  <0> d           0.036  -3.957  -0.010  0.00  0.00     0.282 A 
ATOM      4  O1  <0> d           1.147  -4.458  -0.022  0.00  0.00    -0.265 OA
ATOM      5  C5  <0> d          -1.196  -4.809   0.001  0.00  0.00     0.073 A 
ATOM      6  C6  <0> d          -1.273  -6.151   0.063  0.00  0.00    -0.047 C 
ATOM      7  C7  <0> d          -0.073  -7.063   0.306  0.00  0.00     0.036 C 
ATOM      8  C8  <0> d          -0.417  -7.932   1.523  0.00  0.00     0.004 C 
ATOM      9  C9  <0> d          -1.760  -8.629   1.312  0.00  0.00     0.002 C 
ATOM     10  C10 <0> d          -2.893  -7.606   1.201  0.00  0.00     0.020 C 
ATOM     11  C11 <0> d          -2.667  -6.759  -0.054  0.00  0.00     0.084 C 
ATOM     12  S1  <0> d          -3.737  -5.272  -0.009  0.00  0.00    -0.100 SA
ATOM     13  C12 <0> d          -2.458  -4.041   0.001  0.00  0.00     0.112 A 
ATOM     14  N3  <0> d          -2.441  -2.729   0.011  0.00  0.00    -0.224 NA
ENDROOT
BRANCH   1  15
ATOM     15  C2  <0> d          -1.362  -0.549   0.012  0.00  0.00     0.349 C 
BRANCH  15  16
ATOM     16  N1  <0> d           0.002  -0.004   0.002  0.00  0.00     0.086 N 
ATOM     17  C1  <0> d          -0.018   1.465   0.010  0.00  0.00     0.307 C 
ATOM     18  H5  <0> d           0.526  -0.354  -0.786  0.00  0.00     0.315 HD
ENDBRANCH  15  16
ENDBRANCH   1  15
TORSDOF 2
