REMARK  6 active torsions:
REMARK  status: ('A' for Active; 'I' for Inactive)
REMARK    1  A    between atoms: C3_3  and  C10_15 
REMARK    2  A    between atoms: C10_15  and  C11_16 
REMARK    3  A    between atoms: C11_16  and  C12_17 
REMARK       I    between atoms: C12_17  and  N4_19 
REMARK    4  A    between atoms: N4_19  and  C13_20 
REMARK    5  A    between atoms: C13_20  and  C14_21 
REMARK    6  A    between atoms: N5_24  and  C18_26 
ROOT
ATOM      1  C10 <0> d          -0.228   0.061  -2.470  0.00  0.00     0.054 C 
ENDROOT
BRANCH   1   2
ATOM      2  C3  <0> d          -0.096  -0.688  -1.169  0.00  0.00     0.017 A 
ATOM      3  C2  <0> d           0.126  -0.008  -0.013  0.00  0.00    -0.034 A 
ATOM      4  C1  <0> d           0.244   1.494  -0.021  0.00  0.00     0.050 C 
ATOM      5  C6  <0> d           0.251  -0.730   1.196  0.00  0.00     0.042 A 
ATOM      6  C5  <0> d           0.135  -2.121   1.183  0.00  0.00     0.139 A 
ATOM      7  C7  <0> d           0.483  -0.345   2.538  0.00  0.00     0.065 A 
ATOM      8  N1  <0> d          -0.089  -2.776   0.002  0.00  0.00    -0.307 N 
ATOM      9  N3  <0> d           0.288  -2.541   2.458  0.00  0.00    -0.257 N 
ATOM     10  C4  <0> d          -0.204  -2.090  -1.150  0.00  0.00     0.253 A 
ATOM     11  H1  <0> d          -0.166  -3.743  -0.004  0.00  0.00     0.170 HD
ATOM     12  O1  <0> d          -0.404  -2.692  -2.192  0.00  0.00    -0.268 OA
ATOM     13  N2  <0> d           0.508  -1.423   3.270  0.00  0.00    -0.175 NA
ATOM     14  C8  <0> d           0.244  -3.933   2.912  0.00  0.00     0.182 C 
ATOM     15  C9  <0> d           0.669   1.066   3.034  0.00  0.00     0.073 C 
ENDBRANCH   1   2
BRANCH   1  16
ATOM     16  C11 <0> d           1.134   0.118  -3.165  0.00  0.00     0.107 C 
BRANCH  16  17
ATOM     17  C12 <0> d           1.002   0.867  -4.466  0.00  0.00     0.217 C 
ATOM     18  O2  <0> d          -0.074   1.312  -4.804  0.00  0.00    -0.274 OA
ATOM     19  N4  <0> d           2.082   1.043  -5.255  0.00  0.00    -0.361 N 
ATOM     20  H15 <0> d           2.943   0.688  -4.984  0.00  0.00     0.162 HD
BRANCH  19  21
ATOM     21  C13 <0> d           1.954   1.771  -6.519  0.00  0.00     0.128 C 
BRANCH  21  22
ATOM     22  C14 <0> d           3.315   1.828  -7.215  0.00  0.00     0.031 C 
ATOM     23  C17 <0> d           3.241   2.699  -8.494  0.00  0.00     0.241 C 
ATOM     24  N5  <0> d           4.361   2.182  -9.322  0.00  0.00    -0.067 N 
ATOM     25  C16 <0> d           4.360   0.715  -9.132  0.00  0.00     0.236 C 
ATOM     26  H32 <0> d           5.236   2.573  -9.007  0.00  0.00     0.280 HD
ATOM     27  C15 <0> d           3.707   0.438  -7.765  0.00  0.00     0.035 C 
BRANCH  24  28
ATOM     28  C18 <0> d           4.138   2.510 -10.737  0.00  0.00     0.180 C 
ATOM     29  C19 <0> d           4.108   4.029 -10.910  0.00  0.00     0.039 C 
ATOM     30  C20 <0> d           5.272   1.923 -11.581  0.00  0.00     0.039 C 
ENDBRANCH  24  28
ENDBRANCH  21  22
ENDBRANCH  19  21
ENDBRANCH  16  17
ENDBRANCH   1  16
TORSDOF 6
