REMARK  3 active torsions:
REMARK  status: ('A' for Active; 'I' for Inactive)
REMARK    1  A    between atoms: N1_4  and  C6_8 
REMARK    2  A    between atoms: C6_8  and  C7_9 
REMARK    3  A    between atoms: N4_17  and  C12_20 
ROOT
ATOM      1  C7  <0> d           1.289  -3.985  -2.484  0.00  0.00     0.137 A 
ATOM      2  N2  <0> d           1.817  -4.657  -3.537  0.00  0.00    -0.309 N 
ATOM      3  H2  <0> d           2.278  -4.171  -4.239  0.00  0.00     0.170 HD
ATOM      4  C8  <0> d           1.704  -6.004  -3.613  0.00  0.00     0.262 A 
ATOM      5  O2  <0> d           2.172  -6.626  -4.551  0.00  0.00    -0.267 OA
ATOM      6  C9  <0> d           1.000  -6.685  -2.527  0.00  0.00     0.099 A 
ATOM      7  C10 <0> d           0.680  -8.027  -2.244  0.00  0.00     0.160 A 
ATOM      8  N3  <0> d           0.025  -8.064  -1.116  0.00  0.00    -0.177 NA
ATOM      9  N4  <0> d          -0.113  -6.765  -0.612  0.00  0.00    -0.215 N 
ATOM     10  C11 <0> d           0.487  -5.904  -1.479  0.00  0.00     0.170 A 
ATOM     11  N5  <0> d           0.664  -4.575  -1.507  0.00  0.00    -0.213 NA
ENDROOT
BRANCH   1  12
ATOM     12  C6  <0> d           1.439  -2.486  -2.440  0.00  0.00     0.350 C 
BRANCH  12  13
ATOM     13  N1  <0> d           0.805  -1.966  -1.221  0.00  0.00     0.100 N 
ATOM     14  C3  <0> d           0.720  -0.499  -1.256  0.00  0.00     0.304 C 
ATOM     15  C2  <0> d           0.002  -0.004   0.002  0.00  0.00     0.145 C 
ATOM     16  C1  <0> d          -0.019   1.526   0.010  0.00  0.00     0.041 C 
ATOM     17  O1  <0> d           0.695  -0.479   1.159  0.00  0.00    -0.383 OA
ATOM     18  C5  <0> d           0.797  -1.904   1.226  0.00  0.00     0.198 C 
ATOM     19  C4  <0> d           1.523  -2.417  -0.020  0.00  0.00     0.299 C 
ENDBRANCH  12  13
ENDBRANCH   1  12
BRANCH   9  20
ATOM     20  C12 <0> d          -0.758  -6.411   0.580  0.00  0.00     0.060 A 
ATOM     21  C17 <0> d          -1.881  -7.114   0.998  0.00  0.00     0.031 A 
ATOM     22  C16 <0> d          -2.512  -6.766   2.176  0.00  0.00     0.002 A 
ATOM     23  C15 <0> d          -2.034  -5.713   2.934  0.00  0.00     0.000 A 
ATOM     24  C14 <0> d          -0.920  -5.008   2.518  0.00  0.00     0.002 A 
ATOM     25  C13 <0> d          -0.281  -5.354   1.343  0.00  0.00     0.031 A 
ENDBRANCH   9  20
TORSDOF 3
