REMARK  3 active torsions:
REMARK  status: ('A' for Active; 'I' for Inactive)
REMARK    1  A    between atoms: C12_12  and  C13_14 
REMARK       I    between atoms: C13_14  and  N1_16 
REMARK    2  A    between atoms: N1_16  and  N2_17 
REMARK    3  A    between atoms: C14_18  and  C15_19 
ROOT
ATOM      1  C13 <0> d           7.269  -1.459  -0.079  0.00  0.00     0.293 C 
ATOM      2  O2  <0> d           7.919  -0.430  -0.080  0.00  0.00    -0.264 OA
ATOM      3  N1  <0> d           7.896  -2.652  -0.092  0.00  0.00    -0.265 N 
ATOM      4  H8  <0> d           7.378  -3.472  -0.091  0.00  0.00     0.190 HD
ENDROOT
BRANCH   1   5
ATOM      5  C12 <0> d           5.802  -1.401  -0.064  0.00  0.00     0.146 A 
ATOM      6  C11 <0> d           5.059  -0.261  -0.050  0.00  0.00     0.058 A 
ATOM      7  C10 <0> d           3.704  -0.655  -0.038  0.00  0.00     0.012 A 
ATOM      8  C4  <0> d           2.433   0.064  -0.021  0.00  0.00    -0.013 A 
ATOM      9  C9  <0> d           3.694  -2.057  -0.045  0.00  0.00     0.087 A 
ATOM     10  C3  <0> d           2.378   1.461  -0.013  0.00  0.00     0.013 A 
ATOM     11  C5  <0> d           1.231  -0.683  -0.013  0.00  0.00    -0.025 A 
ATOM     12  C2  <0> d           1.167   2.090   0.002  0.00  0.00     0.001 A 
ATOM     13  C1  <0> d          -0.016   1.358   0.009  0.00  0.00     0.001 A 
ATOM     14  C6  <0> d           0.002  -0.004   0.002  0.00  0.00     0.012 A 
ATOM     15  C7  <0> d           1.288  -2.091  -0.022  0.00  0.00     0.015 A 
ATOM     16  C8  <0> d           2.475  -2.745  -0.037  0.00  0.00     0.039 A 
ATOM     17  O1  <0> d           4.977  -2.469  -0.059  0.00  0.00    -0.304 OA
ENDBRANCH   1   5
BRANCH   3  18
ATOM     18  N2  <0> d           9.296  -2.707  -0.107  0.00  0.00    -0.308 N 
ATOM     19  C14 <0> d           9.920  -3.895  -0.120  0.00  0.00     0.122 C 
ATOM     20  H9  <0> d           9.814  -1.887  -0.108  0.00  0.00     0.186 HD
BRANCH  19  21
ATOM     21  C15 <0> d          11.315  -3.950  -0.135  0.00  0.00     0.034 A 
ATOM     22  C20 <0> d          12.015  -5.241  -0.149  0.00  0.00     0.205 A 
ATOM     23  C19 <0> d          13.421  -5.244  -0.168  0.00  0.00     0.086 A 
ATOM     24  O3  <0> d          11.388  -6.292  -0.149  0.00  0.00    -0.286 OA
ATOM     25  C18 <0> d          14.104  -4.065  -0.163  0.00  0.00     0.047 A 
ATOM     26 Cl1  <0> d          14.287  -6.748  -0.192  0.00  0.00    -0.080 Cl
ATOM     27  C17 <0> d          13.442  -2.840  -0.144  0.00  0.00     0.013 A 
ATOM     28  C16 <0> d          12.085  -2.765  -0.130  0.00  0.00     0.036 A 
ATOM     29 Br1  <0> d          14.455  -1.243  -0.138  0.00  0.00    -0.051 Br
ENDBRANCH  19  21
ENDBRANCH   3  18
TORSDOF 3
