REMARK  7 active torsions:
REMARK  status: ('A' for Active; 'I' for Inactive)
REMARK    1  A    between atoms: C2_2  and  C3_3 
REMARK    2  A    between atoms: C3_3  and  C4_4 
REMARK    3  A    between atoms: C3_3  and  N2_19 
REMARK    4  A    between atoms: C4_4  and  C5_5 
REMARK    5  A    between atoms: C4_4  and  N1_10 
REMARK    6  A    between atoms: N1_10  and  C10_12 
REMARK    7  A    between atoms: C10_12  and  C11_13 
ROOT
ATOM      1  C4  <0> d           0.592  -1.992   1.335  0.00  0.00     0.309 C 
ENDROOT
BRANCH   1   2
ATOM      2  C3  <0> d           0.516  -0.465   1.387  0.00  0.00     0.223 C 
BRANCH   2   3
ATOM      3  C2  <0> d           1.930   0.115   1.455  0.00  0.00     0.031 C 
ATOM      4  C1  <0> d           1.851   1.633   1.633  0.00  0.00     0.007 C 
ENDBRANCH   2   3
BRANCH   2   5
ATOM      5  N2  <0> d          -0.160   0.033   0.181  0.00  0.00    -0.073 N 
ATOM      6  H18 <0> d          -1.053  -0.426   0.082  0.00  0.00     0.274 HD
ATOM      7  H19 <0> d          -0.301   1.029   0.262  0.00  0.00     0.274 HD
ATOM      8  H20 <0> d           0.410  -0.161  -0.628  0.00  0.00     0.274 HD
ENDBRANCH   2   5
ENDBRANCH   1   2
BRANCH   1   9
ATOM      9  C5  <0> d           1.311  -2.416   0.080  0.00  0.00     0.088 A 
ATOM     10  O1  <0> d           2.642  -2.426  -0.097  0.00  0.00    -0.325 OA
ATOM     11  C8  <0> d           2.926  -2.866  -1.334  0.00  0.00     0.142 A 
ATOM     12  C7  <0> d           1.769  -3.134  -1.966  0.00  0.00     0.027 A 
ATOM     13  C6  <0> d           0.728  -2.843  -1.054  0.00  0.00     0.037 A 
ENDBRANCH   1   9
BRANCH   1  14
ATOM     14  N1  <0> d           1.324  -2.486   2.509  0.00  0.00     0.102 N 
ATOM     15  C9  <0> d           0.696  -2.023   3.754  0.00  0.00     0.311 C 
BRANCH  14  16
ATOM     16  C10 <0> d           1.429  -3.950   2.486  0.00  0.00     0.319 C 
BRANCH  16  17
ATOM     17  C11 <0> d           2.385  -4.402   3.560  0.00  0.00     0.012 A 
ATOM     18  S1  <0> d           4.151  -4.650   3.462  0.00  0.00    -0.103 SA
ATOM     19  C14 <0> d           4.427  -5.166   5.148  0.00  0.00     0.069 A 
ATOM     20  C13 <0> d           3.173  -5.123   5.663  0.00  0.00     0.018 A 
ATOM     21  C12 <0> d           2.127  -4.732   4.849  0.00  0.00     0.036 A 
ATOM     22 Br1  <0> d           2.861  -5.592   7.469  0.00  0.00    -0.051 Br
ENDBRANCH  16  17
ENDBRANCH  14  16
ENDBRANCH   1  14
TORSDOF 7
