REMARK  8 active torsions:
REMARK  status: ('A' for Active; 'I' for Inactive)
REMARK    1  A    between atoms: N1_10  and  C9_15 
REMARK    2  A    between atoms: C9_15  and  C10_16 
REMARK    3  A    between atoms: C10_16  and  C11_17 
REMARK    4  A    between atoms: C11_17  and  C12_18 
REMARK       I    between atoms: C12_18  and  N3_20 
REMARK    5  A    between atoms: N3_20  and  C13_21 
REMARK    6  A    between atoms: C13_21  and  C14_22 
REMARK    7  A    between atoms: C14_22  and  C15_23 
REMARK    8  A    between atoms: C15_23  and  N4_29 
ROOT
ATOM      1  C9  <0> d           0.718  -0.497  -1.257  0.00  0.00     0.137 C 
ENDROOT
BRANCH   1   2
ATOM      2  N1  <0> d           0.738  -1.962  -1.265  0.00  0.00    -0.266 N 
ATOM      3  C7  <0> d          -0.278  -2.635  -1.847  0.00  0.00     0.264 A 
ATOM      4  C4  <0> d          -0.234  -4.109  -1.842  0.00  0.00     0.060 A 
ATOM      5  O1  <0> d          -1.205  -2.041  -2.362  0.00  0.00    -0.267 OA
ATOM      6  C3  <0> d           0.865  -4.739  -1.231  0.00  0.00     0.052 A 
ATOM      7  C5  <0> d          -1.242  -4.874  -2.422  0.00  0.00     0.038 A 
ATOM      8  C2  <0> d           0.936  -6.123  -1.209  0.00  0.00     0.032 A 
ATOM      9  N2  <0> d           1.855  -3.950  -0.661  0.00  0.00    -0.307 N 
ATOM     10  C1  <0> d          -0.070  -6.871  -1.788  0.00  0.00     0.021 A 
ATOM     11  C6  <0> d          -1.153  -6.251  -2.392  0.00  0.00     0.012 A 
ATOM     12 Br1  <0> d          -2.518  -7.298  -3.176  0.00  0.00    -0.051 Br
ATOM     13  C8  <0> d           1.768  -2.610  -0.698  0.00  0.00     0.329 A 
ATOM     14  H1  <0> d           2.618  -4.371  -0.236  0.00  0.00     0.170 HD
ATOM     15  O2  <0> d           2.659  -1.955  -0.192  0.00  0.00    -0.246 OA
ENDBRANCH   1   2
BRANCH   1  16
ATOM     16  C10 <0> d           0.002  -0.004   0.002  0.00  0.00     0.029 C 
BRANCH  16  17
ATOM     17  C11 <0> d          -0.019   1.526   0.010  0.00  0.00     0.104 C 
BRANCH  17  18
ATOM     18  C12 <0> d          -0.724   2.012   1.250  0.00  0.00     0.217 C 
ATOM     19  O3  <0> d          -1.167   1.213   2.049  0.00  0.00    -0.274 OA
ATOM     20  N3  <0> d          -0.863   3.334   1.472  0.00  0.00    -0.361 N 
ATOM     21  H11 <0> d          -0.509   3.973   0.834  0.00  0.00     0.162 HD
BRANCH  20  22
ATOM     22  C13 <0> d          -1.549   3.806   2.677  0.00  0.00     0.124 C 
BRANCH  22  23
ATOM     23  C14 <0> d          -1.570   5.336   2.686  0.00  0.00     0.047 C 
BRANCH  23  24
ATOM     24  C15 <0> d          -2.286   5.830   3.945  0.00  0.00     0.236 C 
BRANCH  24  25
ATOM     25  N4  <0> d          -2.318   7.323   3.952  0.00  0.00    -0.071 N 
ATOM     26  C16 <0> d          -2.858   7.830   2.680  0.00  0.00     0.235 C 
ATOM     27  C17 <0> d          -3.289   9.270   3.056  0.00  0.00     0.029 C 
ATOM     28  C18 <0> d          -3.837   9.104   4.492  0.00  0.00     0.029 C 
ATOM     29  C19 <0> d          -3.190   7.811   5.022  0.00  0.00     0.235 C 
ATOM     30  H26 <0> d          -1.366   7.680   4.091  0.00  0.00     0.279 HD
ENDBRANCH  24  25
ENDBRANCH  23  24
ENDBRANCH  22  23
ENDBRANCH  20  22
ENDBRANCH  17  18
ENDBRANCH  16  17
ENDBRANCH   1  16
TORSDOF 8
