REMARK  3 active torsions:
REMARK  status: ('A' for Active; 'I' for Inactive)
REMARK    1  A    between atoms: C2_2  and  N1_5 
REMARK    2  A    between atoms: C7_9  and  C18_24 
REMARK    3  A    between atoms: C18_24  and  C19_25 
ROOT
ATOM      1  N1  <0> d           0.688  -0.476  -1.203  0.00  0.00    -0.279 N 
ATOM      2  C5  <0> d           0.091  -1.247  -2.120  0.00  0.00     0.234 A 
ATOM      3  O1  <0> d          -1.054  -1.640  -2.067  0.00  0.00    -0.272 OA
ATOM      4  C6  <0> d           1.067  -1.550  -3.234  0.00  0.00     0.128 A 
ATOM      5  C7  <0> d           1.417  -3.053  -3.211  0.00  0.00     0.240 C 
ATOM      6  N2  <0> d           2.552  -3.166  -2.256  0.00  0.00     0.114 N 
ATOM      7  C8  <0> d           3.365  -1.965  -2.519  0.00  0.00     0.279 A 
ATOM      8  C9  <0> d           2.362  -0.816  -2.786  0.00  0.00     0.147 A 
ATOM      9  C10 <0> d           1.960  -0.168  -1.480  0.00  0.00     0.235 A 
ATOM     10  O2  <0> d           2.680   0.520  -0.789  0.00  0.00    -0.272 OA
ATOM     11  C11 <0> d           4.276  -1.652  -1.366  0.00  0.00     0.017 A 
ATOM     12  C12 <0> d           4.059  -1.365  -0.037  0.00  0.00     0.012 A 
ATOM     13  C13 <0> d           5.131  -1.116   0.802  0.00  0.00     0.001 A 
ATOM     14  C14 <0> d           6.420  -1.153   0.302  0.00  0.00     0.002 A 
ATOM     15  C15 <0> d           6.641  -1.438  -1.030  0.00  0.00     0.030 A 
ATOM     16  C16 <0> d           5.568  -1.691  -1.881  0.00  0.00     0.044 A 
ATOM     17  N3  <0> d           5.537  -1.995  -3.243  0.00  0.00    -0.324 N 
ATOM     18  C17 <0> d           4.280  -2.170  -3.696  0.00  0.00     0.267 A 
ATOM     19  O3  <0> d           3.950  -2.442  -4.831  0.00  0.00    -0.270 OA
ATOM     20  H13 <0> d           2.222  -3.178  -1.302  0.00  0.00     0.318 HD
ATOM     21  H18 <0> d           6.328  -2.071  -3.800  0.00  0.00     0.169 HD
ENDROOT
BRANCH   5  22
ATOM     22  C18 <0> d           0.221  -3.870  -2.719  0.00  0.00     0.073 C 
BRANCH  22  23
ATOM     23  C19 <0> d           0.541  -5.339  -2.820  0.00  0.00    -0.048 A 
ATOM     24  C26 <0> d           0.383  -6.223  -4.037  0.00  0.00     0.155 A 
ATOM     25  N4  <0> d           0.829  -7.558  -3.626  0.00  0.00    -0.385 N 
ATOM     26  C25 <0> d           1.192  -7.509  -2.367  0.00  0.00     0.038 A 
ATOM     27  H27 <0> d           0.849  -8.347  -4.190  0.00  0.00     0.160 HD
ATOM     28  C20 <0> d           1.022  -6.136  -1.839  0.00  0.00    -0.006 A 
ATOM     29  C24 <0> d           1.692  -8.506  -1.486  0.00  0.00     0.030 A 
ATOM     30  C21 <0> d           1.379  -5.883  -0.438  0.00  0.00     0.014 A 
ATOM     31  C22 <0> d           1.847  -6.905   0.315  0.00  0.00     0.001 A 
ATOM     32  C23 <0> d           1.999  -8.197  -0.208  0.00  0.00     0.002 A 
ENDBRANCH  22  23
ENDBRANCH   5  22
BRANCH   1  33
ATOM     33  C2  <0> d           0.002  -0.004   0.002  0.00  0.00     0.032 C 
ATOM     34  C1  <0> d          -0.019   1.526   0.010  0.00  0.00     0.038 C 
ATOM     35  C3  <0> d           0.742  -0.511   1.242  0.00  0.00     0.038 C 
ATOM     36  C4  <0> d          -1.433  -0.534   0.013  0.00  0.00     0.038 C 
ENDBRANCH   1  33
TORSDOF 3
