REMARK  3 active torsions:
REMARK  status: ('A' for Active; 'I' for Inactive)
REMARK    1  A    between atoms: O1_2  and  C2_3 
REMARK    2  A    between atoms: C5_6  and  C8_9 
REMARK    3  A    between atoms: C12_13  and  C19_22 
ROOT
ATOM      1  C8  <0> d           1.428  -4.078   3.837  0.00  0.00     0.031 C 
ATOM      2  C9  <0> d           2.783  -3.655   3.271  0.00  0.00     0.067 C 
ATOM      3  C10 <0> d           2.630  -3.252   1.813  0.00  0.00     0.022 C 
ATOM      4  C11 <0> d           1.500  -2.669   1.385  0.00  0.00     0.037 C 
ATOM      5  C12 <0> d           1.228  -2.186  -0.020  0.00  0.00     0.154 C 
ATOM      6  N1  <0> d           2.196  -2.628  -1.003  0.00  0.00    -0.375 N 
ATOM      7  C13 <0> d           3.526  -2.217  -0.938  0.00  0.00     0.055 A 
ATOM      8  C14 <0> d           4.086  -1.419  -1.923  0.00  0.00     0.031 A 
ATOM      9  C15 <0> d           5.399  -0.999  -1.793  0.00  0.00     0.002 A 
ATOM     10  C16 <0> d           6.146  -1.368  -0.690  0.00  0.00     0.002 A 
ATOM     11  C17 <0> d           5.595  -2.179   0.288  0.00  0.00     0.032 A 
ATOM     12  C18 <0> d           4.289  -2.617   0.148  0.00  0.00     0.059 A 
ATOM     13  N2  <0> d           3.711  -3.518   1.036  0.00  0.00    -0.357 N 
ATOM     14  C25 <0> d           0.422  -2.460   2.278  0.00  0.00     0.160 C 
ATOM     15  O2  <0> d          -0.585  -1.918   1.865  0.00  0.00    -0.293 OA
ATOM     16  C26 <0> d           0.477  -2.883   3.715  0.00  0.00     0.093 C 
ATOM     17  H12 <0> d           1.913  -3.219  -1.717  0.00  0.00     0.160 HD
ATOM     18  H17 <0> d           4.107  -4.400   1.104  0.00  0.00     0.166 HD
ENDROOT
BRANCH   1  19
ATOM     19  C5  <0> d           1.579  -4.466   5.286  0.00  0.00    -0.053 A 
ATOM     20  C4  <0> d           1.251  -5.746   5.695  0.00  0.00     0.010 A 
ATOM     21  C3  <0> d           1.389  -6.104   7.022  0.00  0.00     0.037 A 
ATOM     22  C2  <0> d           1.856  -5.179   7.944  0.00  0.00     0.068 A 
ATOM     23  C7  <0> d           2.185  -3.896   7.531  0.00  0.00     0.037 A 
ATOM     24  C6  <0> d           2.051  -3.545   6.202  0.00  0.00     0.010 A 
BRANCH  22  25
ATOM     25  O1  <0> d           1.992  -5.529   9.250  0.00  0.00    -0.356 OA
ATOM     26  C1  <0> d           2.479  -4.526  10.144  0.00  0.00     0.210 C 
ENDBRANCH  22  25
ENDBRANCH   1  19
BRANCH   5  27
ATOM     27  C19 <0> d           1.208  -0.679  -0.013  0.00  0.00    -0.031 A 
ATOM     28  C24 <0> d           2.363   0.025   0.273  0.00  0.00     0.011 A 
ATOM     29  C23 <0> d           2.345   1.407   0.280  0.00  0.00     0.024 A 
ATOM     30  C22 <0> d           1.172   2.086   0.002  0.00  0.00     0.034 A 
ATOM     31  C21 <0> d           0.017   1.380  -0.283  0.00  0.00     0.024 A 
ATOM     32 Cl1  <0> d           1.149   3.821   0.011  0.00  0.00    -0.084 Cl
ATOM     33  C20 <0> d           0.036  -0.002  -0.291  0.00  0.00     0.011 A 
ENDBRANCH   5  27
TORSDOF 3
