REMARK  4 active torsions:
REMARK  status: ('A' for Active; 'I' for Inactive)
REMARK       I    between atoms: N1_2  and  C2_3 
REMARK    1  A    between atoms: C2_3  and  C3_5 
REMARK    2  A    between atoms: N2_9  and  C7_10 
REMARK    3  A    between atoms: C7_10  and  C8_11 
REMARK    4  A    between atoms: C11_14  and  C12_16 
ROOT
ATOM      1  C3  <0> d          -1.135  -2.201   0.001  0.00  0.00     0.279 C 
ATOM      2  C4  <0> d          -0.498  -2.732  -1.308  0.00  0.00     0.045 C 
ATOM      3  C5  <0> d          -1.105  -4.148  -1.438  0.00  0.00     0.030 C 
ATOM      4  C6  <0> d          -2.393  -4.112  -0.595  0.00  0.00     0.236 C 
ATOM      5  N2  <0> d          -2.517  -2.743  -0.044  0.00  0.00    -0.056 N 
ATOM      6  H20 <0> d          -3.093  -2.178  -0.650  0.00  0.00     0.281 HD
ENDROOT
BRANCH   5   7
ATOM      7  C7  <0> d          -3.089  -2.787   1.308  0.00  0.00     0.267 C 
BRANCH   7   8
ATOM      8  C8  <0> d          -4.552  -3.229   1.229  0.00  0.00     0.148 C 
ATOM      9  O2  <0> d          -4.643  -4.612   0.825  0.00  0.00    -0.368 OA
ATOM     10  C11 <0> d          -5.930  -5.090   1.257  0.00  0.00     0.222 C 
ATOM     11  C10 <0> d          -6.353  -4.239   2.470  0.00  0.00     0.045 C 
ATOM     12  C9  <0> d          -5.203  -3.216   2.635  0.00  0.00     0.036 C 
BRANCH  10  13
ATOM     13  C12 <0> d          -5.835  -6.540   1.657  0.00  0.00     0.203 C 
ATOM     14  O3  <0> d          -6.837  -7.144   2.001  0.00  0.00    -0.646 OA
ATOM     15  O4  <0> d          -4.757  -7.109   1.635  0.00  0.00    -0.646 OA
ENDBRANCH  10  13
ENDBRANCH   7   8
ENDBRANCH   5   7
BRANCH   1  16
ATOM     16  C2  <0> d          -1.156  -0.694   0.009  0.00  0.00     0.248 C 
ATOM     17  N1  <0> d           0.002  -0.004   0.002  0.00  0.00    -0.364 N 
ATOM     18  C1  <0> d          -0.018   1.461   0.010  0.00  0.00     0.149 C 
ATOM     19  H7  <0> d           0.849  -0.478  -0.009  0.00  0.00     0.161 HD
ATOM     20  O1  <0> d          -2.214  -0.102   0.023  0.00  0.00    -0.271 OA
ENDBRANCH   1  16
TORSDOF 4
