REMARK  5 active torsions:
REMARK  status: ('A' for Active; 'I' for Inactive)
REMARK    1  A    between atoms: C2_2  and  C3_3 
REMARK    2  A    between atoms: C2_2  and  S1_16 
REMARK    3  A    between atoms: C3_3  and  C4_5 
REMARK    4  A    between atoms: S1_16  and  C10_17 
REMARK    5  A    between atoms: N7_21  and  C11_22 
ROOT
ATOM      1  C4  <0> d           6.025  -2.796  -0.404  0.00  0.00     0.123 A 
ATOM      2  C5  <0> d           6.618  -4.015  -0.777  0.00  0.00     0.124 A 
ATOM      3  N1  <0> d           7.672  -3.998  -1.646  0.00  0.00    -0.289 N 
ATOM      4  C6  <0> d           8.153  -2.845  -2.136  0.00  0.00     0.332 A 
ATOM      5  O2  <0> d           9.096  -2.883  -2.903  0.00  0.00    -0.246 OA
ATOM      6  N2  <0> d           7.631  -1.651  -1.812  0.00  0.00    -0.270 N 
ATOM      7  C7  <0> d           6.585  -1.560  -0.965  0.00  0.00     0.269 A 
ATOM      8  O3  <0> d           6.115  -0.476  -0.672  0.00  0.00    -0.267 OA
ATOM      9  C8  <0> d           8.207  -0.431  -2.384  0.00  0.00     0.164 C 
ATOM     10  C9  <0> d           8.293  -5.263  -2.045  0.00  0.00     0.163 C 
ATOM     11  N3  <0> d           6.146  -5.192  -0.285  0.00  0.00    -0.384 N 
ATOM     12  H11 <0> d           5.232  -5.253   0.033  0.00  0.00     0.157 HD
ATOM     13  H12 <0> d           6.724  -5.971  -0.253  0.00  0.00     0.157 HD
ENDROOT
BRANCH   1  14
ATOM     14  C3  <0> d           4.931  -2.761   0.487  0.00  0.00     0.182 C 
ATOM     15  O1  <0> d           4.556  -3.781   1.028  0.00  0.00    -0.291 OA
BRANCH  14  16
ATOM     16  C2  <0> d           4.227  -1.458   0.765  0.00  0.00     0.126 C 
ATOM     17  C1  <0> d           4.966  -0.707   1.875  0.00  0.00     0.030 C 
BRANCH  16  18
ATOM     18  S1  <0> d           2.527  -1.790   1.290  0.00  0.00    -0.076 SA
BRANCH  18  19
ATOM     19  C10 <0> d           1.912  -0.142   1.396  0.00  0.00     0.210 A 
ATOM     20  N7  <0> d           0.659   0.227   1.753  0.00  0.00    -0.220 N 
ATOM     21  N6  <0> d           0.656   1.631   1.688  0.00  0.00    -0.043 NA
ATOM     22  N5  <0> d           1.837   1.991   1.318  0.00  0.00    -0.022 NA
ATOM     23  N4  <0> d           2.583   0.960   1.143  0.00  0.00    -0.102 NA
BRANCH  20  24
ATOM     24  C11 <0> d          -0.454  -0.648   2.127  0.00  0.00     0.114 A 
ATOM     25  C13 <0> d          -1.052  -0.474   3.524  0.00  0.00     0.029 A 
ATOM     26  C12 <0> d          -1.833  -0.006   2.293  0.00  0.00     0.029 A 
ENDBRANCH  20  24
ENDBRANCH  18  19
ENDBRANCH  16  18
ENDBRANCH  14  16
ENDBRANCH   1  14
TORSDOF 5
