REMARK  6 active torsions:
REMARK  status: ('A' for Active; 'I' for Inactive)
REMARK    1  A    between atoms: C5_5  and  N1_8 
REMARK    2  A    between atoms: N1_8  and  C8_9 
REMARK    3  A    between atoms: C8_9  and  C10_11 
REMARK    4  A    between atoms: C8_9  and  C16_17 
REMARK       I    between atoms: C16_17  and  N2_19 
REMARK    5  A    between atoms: N2_19  and  C18_21 
REMARK    6  A    between atoms: C18_21  and  C19_22 
ROOT
ATOM      1  C8  <0> d           0.389  -4.895   1.020  0.00  0.00     0.136 C 
ATOM      2  C9  <0> d           1.425  -4.845   2.146  0.00  0.00     0.054 C 
ENDROOT
BRANCH   1   3
ATOM      3  N1  <0> d           0.856  -4.088  -0.109  0.00  0.00    -0.369 N 
ATOM      4  H9  <0> d           0.356  -3.303  -0.384  0.00  0.00     0.161 HD
BRANCH   3   5
ATOM      5  C5  <0> d           2.021  -4.447  -0.791  0.00  0.00     0.029 A 
ATOM      6  C4  <0> d           2.506  -3.642  -1.814  0.00  0.00     0.029 A 
ATOM      7  C3  <0> d           3.658  -4.001  -2.485  0.00  0.00     0.009 A 
ATOM      8  C2  <0> d           4.329  -5.159  -2.140  0.00  0.00    -0.062 A 
ATOM      9  C1  <0> d           5.586  -5.547  -2.876  0.00  0.00     0.048 C 
ATOM     10  C7  <0> d           3.846  -5.966  -1.127  0.00  0.00     0.009 A 
ATOM     11  C6  <0> d           2.698  -5.611  -0.447  0.00  0.00     0.029 A 
ENDBRANCH   3   5
ENDBRANCH   1   3
BRANCH   1  12
ATOM     12  C10 <0> d          -0.923  -4.349   1.520  0.00  0.00    -0.021 A 
ATOM     13  C15 <0> d          -1.262  -3.031   1.274  0.00  0.00     0.010 A 
ATOM     14  C14 <0> d          -2.467  -2.531   1.730  0.00  0.00     0.001 A 
ATOM     15  C13 <0> d          -3.330  -3.346   2.438  0.00  0.00     0.000 A 
ATOM     16  C12 <0> d          -2.989  -4.662   2.689  0.00  0.00     0.001 A 
ATOM     17  C11 <0> d          -1.786  -5.163   2.230  0.00  0.00     0.010 A 
ENDBRANCH   1  12
BRANCH   1  18
ATOM     18  C16 <0> d           0.202  -6.322   0.574  0.00  0.00     0.252 C 
ATOM     19  O1  <0> d           0.534  -7.234   1.302  0.00  0.00    -0.270 OA
ATOM     20  N2  <0> d          -0.335  -6.586  -0.633  0.00  0.00    -0.347 N 
ATOM     21  C17 <0> d          -0.631  -5.489  -1.559  0.00  0.00     0.153 C 
BRANCH  20  22
ATOM     22  C18 <0> d          -0.624  -7.969  -1.021  0.00  0.00     0.201 C 
BRANCH  22  23
ATOM     23  C19 <0> d          -2.026  -8.327  -0.600  0.00  0.00     0.099 A 
ATOM     24  N4  <0> d          -2.739  -9.306  -1.085  0.00  0.00    -0.347 N 
ATOM     25  C21 <0> d          -3.933  -9.329  -0.473  0.00  0.00     0.022 A 
ATOM     26  H27 <0> d          -2.451  -9.921  -1.777  0.00  0.00     0.167 HD
ATOM     27  C20 <0> d          -3.963  -8.320   0.418  0.00  0.00     0.114 A 
ATOM     28  C22 <0> d          -5.046 -10.308  -0.741  0.00  0.00     0.069 C 
ATOM     29  N3  <0> d          -2.754  -7.684   0.339  0.00  0.00    -0.352 N 
ATOM     30  H1  <0> d          -2.472  -6.915   0.859  0.00  0.00     0.166 HD
ENDBRANCH  22  23
ENDBRANCH  20  22
ENDBRANCH   1  18
TORSDOF 6
