REMARK  8 active torsions:
REMARK  status: ('A' for Active; 'I' for Inactive)
REMARK    1  A    between atoms: C2_2  and  N1_3 
REMARK    2  A    between atoms: C10_12  and  C11_13 
REMARK    3  A    between atoms: C11_13  and  N3_31 
REMARK    4  A    between atoms: C12_14  and  C13_15 
REMARK    5  A    between atoms: N2_16  and  C20_24 
REMARK    6  A    between atoms: C20_24  and  C21_25 
REMARK    7  A    between atoms: C21_25  and  C22_26 
REMARK    8  A    between atoms: C22_26  and  S3_27 
ROOT
ATOM      1  C11 <0> d           4.257  -0.644  -0.345  0.00  0.00     0.135 C 
ATOM      2  C12 <0> d           5.016  -0.768   0.781  0.00  0.00     0.074 C 
ENDROOT
BRANCH   1   3
ATOM      3  C10 <0> d           2.860  -0.615  -0.249  0.00  0.00     0.074 C 
ATOM      4  C9  <0> d           2.089  -0.672  -1.391  0.00  0.00     0.079 A 
ATOM      5  N1  <0> d           0.731  -0.514  -1.521  0.00  0.00    -0.340 N 
ATOM      6  S1  <0> d           2.603  -0.972  -3.074  0.00  0.00    -0.070 SA
ATOM      7  C3  <0> d           0.141  -0.603  -2.770  0.00  0.00     0.052 A 
ATOM      8  C8  <0> d           1.005  -0.862  -3.843  0.00  0.00     0.034 A 
ATOM      9  C4  <0> d          -1.222  -0.463  -3.082  0.00  0.00     0.031 A 
ATOM     10  C7  <0> d           0.561  -0.978  -5.139  0.00  0.00     0.021 A 
ATOM     11  C6  <0> d          -0.787  -0.836  -5.417  0.00  0.00     0.002 A 
ATOM     12  C5  <0> d          -1.665  -0.578  -4.378  0.00  0.00     0.002 A 
BRANCH   5  13
ATOM     13  C2  <0> d          -0.092  -0.245  -0.339  0.00  0.00     0.125 C 
ATOM     14  C1  <0> d          -0.194   1.266  -0.122  0.00  0.00     0.027 C 
ENDBRANCH   5  13
ENDBRANCH   1   3
BRANCH   1  15
ATOM     15  N3  <0> d           4.874  -0.544  -1.596  0.00  0.00    -0.049 N 
ATOM     16  H22 <0> d           4.266  -0.051  -2.232  0.00  0.00     0.281 HD
ATOM     17  H23 <0> d           5.743  -0.041  -1.503  0.00  0.00     0.281 HD
ATOM     18  H24 <0> d           5.057  -1.469  -1.955  0.00  0.00     0.281 HD
ENDBRANCH   1  15
BRANCH   2  19
ATOM     19  C13 <0> d           6.402  -1.016   0.675  0.00  0.00     0.079 A 
ATOM     20  S2  <0> d           7.371  -1.359  -0.787  0.00  0.00    -0.070 SA
ATOM     21  C19 <0> d           8.945  -1.524   0.020  0.00  0.00     0.034 A 
ATOM     22  C14 <0> d           8.614  -1.309   1.379  0.00  0.00     0.052 A 
ATOM     23  C18 <0> d          10.225  -1.788  -0.396  0.00  0.00     0.021 A 
ATOM     24  N2  <0> d           7.314  -1.059   1.633  0.00  0.00    -0.340 N 
ATOM     25  C15 <0> d           9.684  -1.383   2.302  0.00  0.00     0.031 A 
ATOM     26  C16 <0> d          10.960  -1.647   1.875  0.00  0.00     0.002 A 
ATOM     27  C17 <0> d          11.248  -1.852   0.534  0.00  0.00     0.002 A 
BRANCH  24  28
ATOM     28  C20 <0> d           6.897  -0.827   3.018  0.00  0.00     0.131 C 
BRANCH  28  29
ATOM     29  C21 <0> d           6.512  -2.159   3.665  0.00  0.00     0.038 C 
BRANCH  29  30
ATOM     30  C22 <0> d           6.076  -1.917   5.111  0.00  0.00     0.167 C 
BRANCH  30  31
ATOM     31  S3  <0> d           5.620  -3.496   5.878  0.00  0.00     0.101 S 
ATOM     32  O1  <0> d           5.208  -3.245   7.251  0.00  0.00    -0.595 OA
ATOM     33  O2  <0> d           4.523  -4.081   5.122  0.00  0.00    -0.595 OA
ATOM     34  O3  <0> d           6.777  -4.377   5.851  0.00  0.00    -0.595 OA
ENDBRANCH  30  31
ENDBRANCH  29  30
ENDBRANCH  28  29
ENDBRANCH  24  28
ENDBRANCH   2  19
TORSDOF 8
