REMARK  5 active torsions:
REMARK  status: ('A' for Active; 'I' for Inactive)
REMARK    1  A    between atoms: C7_7  and  C10_11 
REMARK    2  A    between atoms: C10_11  and  N5_29 
REMARK    3  A    between atoms: C13_14  and  N2_17 
REMARK    4  A    between atoms: C16_18  and  N4_22 
REMARK       I    between atoms: N4_22  and  C19_23 
REMARK    5  A    between atoms: C19_23  and  C20_25 
ROOT
ATOM      1  C11 <0> d           3.220  -1.211   2.303  0.00  0.00     0.237 C 
ATOM      2  C12 <0> d           3.798  -1.104   3.716  0.00  0.00     0.055 C 
ATOM      3  C13 <0> d           4.998  -2.047   3.843  0.00  0.00     0.115 C 
ATOM      4  C14 <0> d           6.037  -1.684   2.779  0.00  0.00     0.055 C 
ATOM      5  C15 <0> d           5.394  -1.773   1.393  0.00  0.00     0.237 C 
ATOM      6  N5  <0> d           4.262  -0.825   1.327  0.00  0.00    -0.067 N 
ATOM      7  H26 <0> d           4.602   0.116   1.558  0.00  0.00     0.280 HD
ENDROOT
BRANCH   3   8
ATOM      8  N2  <0> d           5.592  -1.908   5.175  0.00  0.00    -0.249 N 
ATOM      9  N3  <0> d           6.128  -0.734   5.720  0.00  0.00    -0.183 NA
ATOM     10  C18 <0> d           6.560  -1.000   6.926  0.00  0.00     0.142 A 
ATOM     11  C17 <0> d           6.324  -2.352   7.190  0.00  0.00     0.071 A 
ATOM     12  C16 <0> d           5.725  -2.892   6.094  0.00  0.00     0.128 A 
BRANCH  12  13
ATOM     13  N4  <0> d           5.322  -4.219   5.944  0.00  0.00    -0.311 N 
ATOM     14  C19 <0> d           5.517  -5.099   6.946  0.00  0.00     0.227 C 
ATOM     15  O1  <0> d           6.042  -4.737   7.978  0.00  0.00    -0.273 OA
ATOM     16  H20 <0> d           4.902  -4.508   5.119  0.00  0.00     0.170 HD
BRANCH  14  17
ATOM     17  C20 <0> d           5.081  -6.532   6.785  0.00  0.00     0.078 A 
ATOM     18  C22 <0> d           5.328  -7.482   7.959  0.00  0.00     0.015 A 
ATOM     19  C21 <0> d           3.906  -7.014   7.638  0.00  0.00     0.015 A 
ENDBRANCH  14  17
ENDBRANCH  12  13
ENDBRANCH   3   8
BRANCH   6  20
ATOM     20  C10 <0> d           3.695  -0.810  -0.037  0.00  0.00     0.274 C 
BRANCH  20  21
ATOM     21  C7  <0> d           2.390  -0.057  -0.021  0.00  0.00    -0.019 A 
ATOM     22  C5  <0> d           2.367   1.351  -0.013  0.00  0.00     0.001 A 
ATOM     23  C4  <0> d           1.117   2.017   0.002  0.00  0.00     0.067 A 
ATOM     24  C6  <0> d           3.554   2.102  -0.021  0.00  0.00     0.014 A 
ATOM     25  C3  <0> d           1.091   3.423   0.009  0.00  0.00     0.032 A 
ATOM     26  N1  <0> d          -0.016   1.307   0.009  0.00  0.00    -0.260 NA
ATOM     27  C2  <0> d           2.260   4.119   0.001  0.00  0.00     0.002 A 
ATOM     28  C1  <0> d           3.489   3.461  -0.013  0.00  0.00     0.001 A 
ATOM     29  C9  <0> d           0.002  -0.004   0.002  0.00  0.00     0.118 A 
ATOM     30  C8  <0> d           1.196  -0.721  -0.013  0.00  0.00     0.029 A 
ENDBRANCH  20  21
ENDBRANCH   6  20
TORSDOF 5
