REMARK  5 active torsions:
REMARK  status: ('A' for Active; 'I' for Inactive)
REMARK       I    between atoms: C2_2  and  N1_4 
REMARK    1  A    between atoms: N1_4  and  N2_5 
REMARK       I    between atoms: N2_5  and  C3_6 
REMARK    2  A    between atoms: C3_6  and  C4_8 
REMARK    3  A    between atoms: C4_8  and  O3_9 
REMARK    4  A    between atoms: O3_9  and  C5_10 
REMARK    5  A    between atoms: C8_13  and  C11_16 
ROOT
ATOM      1  C5  <0> d           0.048  -6.062  -3.891  0.00  0.00     0.069 A 
ATOM      2  C6  <0> d           0.064  -6.914  -2.796  0.00  0.00     0.037 A 
ATOM      3  C7  <0> d           0.080  -8.282  -2.987  0.00  0.00     0.012 A 
ATOM      4  C8  <0> d           0.081  -8.802  -4.268  0.00  0.00    -0.035 A 
ATOM      5  C9  <0> d           0.065  -7.955  -5.361  0.00  0.00     0.012 A 
ATOM      6  C10 <0> d           0.043  -6.587  -5.175  0.00  0.00     0.037 A 
ENDROOT
BRANCH   1   7
ATOM      7  O3  <0> d           0.031  -4.716  -3.705  0.00  0.00    -0.342 OA
BRANCH   7   8
ATOM      8  C4  <0> d           0.037  -4.247  -2.356  0.00  0.00     0.280 C 
BRANCH   8   9
ATOM      9  C3  <0> d           0.017  -2.740  -2.347  0.00  0.00     0.260 C 
ATOM     10  N2  <0> d           0.019  -2.072  -1.177  0.00  0.00    -0.266 N 
ATOM     11  H5  <0> d           0.034  -2.562  -0.339  0.00  0.00     0.190 HD
ATOM     12  O2  <0> d          -0.001  -2.128  -3.394  0.00  0.00    -0.269 OA
BRANCH  10  13
ATOM     13  N1  <0> d           0.000  -0.672  -1.169  0.00  0.00    -0.268 N 
ATOM     14  C2  <0> d           0.002  -0.004   0.002  0.00  0.00     0.232 C 
ATOM     15  C1  <0> d          -0.018   1.503   0.010  0.00  0.00     0.119 C 
ATOM     16  O1  <0> d           0.020  -0.616   1.049  0.00  0.00    -0.272 OA
ATOM     17  H4  <0> d          -0.015  -0.182  -2.006  0.00  0.00     0.190 HD
ENDBRANCH  10  13
ENDBRANCH   8   9
ENDBRANCH   7   8
ENDBRANCH   1   7
BRANCH   4  18
ATOM     18  C11 <0> d           0.099 -10.295  -4.474  0.00  0.00     0.141 C 
ATOM     19  S2  <0> d          -1.381 -10.800  -5.398  0.00  0.00    -0.149 SA
ATOM     20  C14 <0> d          -1.137 -12.578  -5.662  0.00  0.00     0.076 C 
ATOM     21  C13 <0> d           0.113 -12.815  -6.502  0.00  0.00     0.020 C 
ATOM     22  C12 <0> d           1.373 -12.544  -5.688  0.00  0.00     0.076 C 
ATOM     23  S1  <0> d           1.573 -10.760  -5.428  0.00  0.00    -0.149 SA
ENDBRANCH   4  18
TORSDOF 5
