REMARK  7 active torsions:
REMARK  status: ('A' for Active; 'I' for Inactive)
REMARK    1  A    between atoms: C2_2  and  C4_4 
REMARK    2  A    between atoms: C4_4  and  C5_5 
REMARK    3  A    between atoms: C5_5  and  N1_6 
REMARK    4  A    between atoms: N1_6  and  C6_7 
REMARK    5  A    between atoms: N2_9  and  N3_10 
REMARK       I    between atoms: N3_10  and  C7_11 
REMARK    6  A    between atoms: C7_11  and  C8_13 
REMARK    7  A    between atoms: C11_16  and  N4_19 
ROOT
ATOM      1  N3  <0> d          -0.011   0.966   0.054  0.00  0.00    -0.264 N 
ATOM      2  C7  <0> d          -1.187   1.624   0.017  0.00  0.00     0.270 C 
ATOM      3  O1  <0> d          -1.204   2.839  -0.019  0.00  0.00    -0.266 OA
ATOM      4  H14 <0> d           0.003  -0.133   0.091  0.00  0.00     0.190 HD
ENDROOT
BRANCH   2   5
ATOM      5  C8  <0> d          -2.456   0.868   0.018  0.00  0.00     0.033 A 
ATOM      6  C13 <0> d          -3.676   1.548  -0.021  0.00  0.00     0.019 A 
ATOM      7  C12 <0> d          -4.857   0.840  -0.019  0.00  0.00     0.031 A 
ATOM      8  C11 <0> d          -4.837  -0.550   0.021  0.00  0.00     0.045 A 
ATOM      9  C10 <0> d          -3.624  -1.230   0.060  0.00  0.00     0.031 A 
ATOM     10  C9  <0> d          -2.439  -0.528   0.053  0.00  0.00     0.019 A 
BRANCH   8  11
ATOM     11  N4  <0> d          -6.038  -1.265   0.023  0.00  0.00    -0.252 N 
ATOM     12  C17 <0> d          -6.421  -2.039  -1.000  0.00  0.00     0.231 A 
ATOM     13  C16 <0> d          -7.760  -2.665  -0.675  0.00  0.00     0.113 A 
ATOM     14  O3  <0> d          -5.795  -2.212  -2.023  0.00  0.00    -0.273 OA
ATOM     15  C15 <0> d          -8.087  -2.112   0.727  0.00  0.00     0.113 A 
ATOM     16  C14 <0> d          -6.896  -1.237   1.050  0.00  0.00     0.231 A 
ATOM     17  O2  <0> d          -6.744  -0.608   2.075  0.00  0.00    -0.273 OA
ENDBRANCH   8  11
ENDBRANCH   2   5
BRANCH   1  18
ATOM     18  N2  <0> d           1.192   1.683   0.046  0.00  0.00    -0.274 N 
ATOM     19  C6  <0> d           2.368   1.026   0.079  0.00  0.00     0.186 C 
ATOM     20  S1  <0> d           3.839   1.901   0.069  0.00  0.00    -0.040 SA
ATOM     21  H13 <0> d           1.178   2.783   0.014  0.00  0.00     0.189 HD
BRANCH  19  22
ATOM     22  N1  <0> d           2.386  -0.322   0.118  0.00  0.00    -0.366 N 
ATOM     23  H12 <0> d           1.441  -0.884   0.124  0.00  0.00     0.161 HD
BRANCH  22  24
ATOM     24  C5  <0> d           3.665  -1.036   0.153  0.00  0.00     0.122 C 
BRANCH  24  25
ATOM     25  C4  <0> d           3.405  -2.543   0.194  0.00  0.00     0.023 C 
BRANCH  25  26
ATOM     26  C2  <0> d           4.740  -3.290   0.230  0.00  0.00    -0.021 C 
ATOM     27  C1  <0> d           4.482  -4.789   0.397  0.00  0.00     0.009 C 
ATOM     28  C3  <0> d           5.497  -3.045  -1.077  0.00  0.00     0.009 C 
ENDBRANCH  25  26
ENDBRANCH  24  25
ENDBRANCH  22  24
ENDBRANCH  19  22
ENDBRANCH   1  18
TORSDOF 7
