REMARK  5 active torsions:
REMARK  status: ('A' for Active; 'I' for Inactive)
REMARK    1  A    between atoms: C3_3  and  C7_9 
REMARK       I    between atoms: C7_9  and  N3_11 
REMARK    2  A    between atoms: N3_11  and  C8_12 
REMARK    3  A    between atoms: C8_12  and  C9_13 
REMARK    4  A    between atoms: C13_17  and  S1_19 
REMARK    5  A    between atoms: S1_19  and  N4_22 
ROOT
ATOM      1  C8  <0> d          -3.084  -1.937   4.616  0.00  0.00     0.161 C 
ENDROOT
BRANCH   1   2
ATOM      2  N3  <0> d          -2.591  -3.027   5.461  0.00  0.00    -0.353 N 
ATOM      3  C7  <0> d          -3.448  -3.953   5.936  0.00  0.00     0.256 C 
ATOM      4  O1  <0> d          -4.631  -3.883   5.663  0.00  0.00    -0.268 OA
ATOM      5  H10 <0> d          -1.521  -3.091   5.708  0.00  0.00     0.163 HD
BRANCH   3   6
ATOM      6  C3  <0> d          -2.952  -5.050   6.787  0.00  0.00     0.081 A 
ATOM      7  C2  <0> d          -2.839  -5.035   8.195  0.00  0.00     0.068 A 
ATOM      8  C1  <0> d          -3.207  -3.887   9.100  0.00  0.00     0.073 C 
ATOM      9  N2  <0> d          -2.364  -6.188   8.574  0.00  0.00    -0.177 NA
ATOM     10  N1  <0> d          -2.143  -6.982   7.443  0.00  0.00    -0.277 N 
ATOM     11  C4  <0> d          -2.504  -6.283   6.355  0.00  0.00     0.044 A 
ATOM     12  C5  <0> d          -1.609  -8.346   7.446  0.00  0.00     0.179 C 
ATOM     13  C6  <0> d          -2.433  -6.756   4.926  0.00  0.00     0.071 C 
ENDBRANCH   3   6
ENDBRANCH   1   2
BRANCH   1  14
ATOM     14  C9  <0> d          -1.934  -1.047   4.222  0.00  0.00    -0.039 A 
ATOM     15  C14 <0> d          -1.222  -1.310   3.067  0.00  0.00     0.034 A 
ATOM     16  C13 <0> d          -0.166  -0.494   2.705  0.00  0.00     0.080 A 
ATOM     17  C12 <0> d           0.179   0.582   3.500  0.00  0.00     0.025 A 
ATOM     18  C11 <0> d          -0.536   0.848   4.653  0.00  0.00     0.002 A 
ATOM     19  C10 <0> d          -1.591   0.032   5.015  0.00  0.00     0.009 A 
BRANCH  16  20
ATOM     20  S1  <0> d           0.742  -0.829   1.233  0.00  0.00     0.258 S 
ATOM     21  O2  <0> d           0.570  -2.212   0.955  0.00  0.00    -0.201 OA
ATOM     22  O3  <0> d           2.024  -0.240   1.403  0.00  0.00    -0.201 OA
BRANCH  20  23
ATOM     23  N4  <0> d           0.002  -0.004   0.002  0.00  0.00    -0.320 N 
ATOM     24  C15 <0> d          -0.018   1.461   0.010  0.00  0.00     0.159 C 
ATOM     25  H17 <0> d          -0.610  -0.558  -0.725  0.00  0.00     0.171 HD
ENDBRANCH  20  23
ENDBRANCH  16  20
ENDBRANCH   1  14
TORSDOF 5
