REMARK  6 active torsions:
REMARK  status: ('A' for Active; 'I' for Inactive)
REMARK    1  A    between atoms: C4_6  and  C17_26 
REMARK    2  A    between atoms: C7_11  and  S2_12 
REMARK    3  A    between atoms: S2_12  and  C8_13 
REMARK    4  A    between atoms: C8_13  and  C9_14 
REMARK       I    between atoms: C9_14  and  N3_16 
REMARK    5  A    between atoms: N3_16  and  N4_17 
REMARK       I    between atoms: N4_17  and  C10_18 
REMARK    6  A    between atoms: C10_18  and  C11_20 
ROOT
ATOM      1  C1  <0> d          -6.077  -7.006   0.035  0.00  0.00     0.161 C 
ATOM      2  N1  <0> d          -4.707  -7.526   0.012  0.00  0.00    -0.297 N 
ATOM      3  C2  <0> d          -4.505  -8.856  -0.003  0.00  0.00     0.263 A 
ATOM      4  O1  <0> d          -5.452  -9.624   0.002  0.00  0.00    -0.267 OA
ATOM      5  C3  <0> d          -3.168  -9.358  -0.018  0.00  0.00     0.080 A 
ATOM      6  C4  <0> d          -2.703 -10.742  -0.030  0.00  0.00     0.006 A 
ATOM      7  C5  <0> d          -1.369 -10.981  -0.045  0.00  0.00     0.065 A 
ATOM      8  S1  <0> d          -0.656  -9.347  -0.042  0.00  0.00    -0.080 SA
ATOM      9  C6  <0> d          -2.150  -8.389  -0.022  0.00  0.00     0.117 A 
ATOM     10  N2  <0> d          -2.416  -7.088  -0.013  0.00  0.00    -0.216 NA
ATOM     11  C7  <0> d          -3.659  -6.652   0.001  0.00  0.00     0.172 A 
ENDROOT
BRANCH  11  12
ATOM     12  S2  <0> d          -3.972  -4.918   0.014  0.00  0.00    -0.082 SA
BRANCH  12  13
ATOM     13  C8  <0> d          -2.274  -4.291   0.001  0.00  0.00     0.186 C 
BRANCH  13  14
ATOM     14  C9  <0> d          -2.295  -2.784   0.009  0.00  0.00     0.245 C 
ATOM     15  O2  <0> d          -3.353  -2.192   0.022  0.00  0.00    -0.271 OA
ATOM     16  N3  <0> d          -1.137  -2.095   0.002  0.00  0.00    -0.267 N 
ATOM     17  H7  <0> d          -0.290  -2.568  -0.009  0.00  0.00     0.190 HD
BRANCH  16  18
ATOM     18  N4  <0> d          -1.156  -0.694   0.009  0.00  0.00    -0.263 N 
ATOM     19  C10 <0> d           0.002  -0.004   0.002  0.00  0.00     0.270 C 
ATOM     20  O3  <0> d           1.063  -0.597  -0.011  0.00  0.00    -0.266 OA
ATOM     21  H8  <0> d          -2.002  -0.220   0.020  0.00  0.00     0.190 HD
BRANCH  19  22
ATOM     22  C11 <0> d          -0.018   1.474   0.010  0.00  0.00     0.033 A 
ATOM     23  C16 <0> d           1.179   2.192   0.003  0.00  0.00     0.017 A 
ATOM     24  C15 <0> d           1.154   3.571   0.010  0.00  0.00     0.001 A 
ATOM     25  C14 <0> d          -0.056   4.243   0.025  0.00  0.00     0.000 A 
ATOM     26  C13 <0> d          -1.246   3.538   0.033  0.00  0.00     0.001 A 
ATOM     27  C12 <0> d          -1.234   2.159   0.020  0.00  0.00     0.017 A 
ENDBRANCH  19  22
ENDBRANCH  16  18
ENDBRANCH  13  14
ENDBRANCH  12  13
ENDBRANCH  11  12
BRANCH   6  28
ATOM     28  C17 <0> d          -3.668 -11.861  -0.028  0.00  0.00     0.016 A 
ATOM     29  S3  <0> d          -5.068 -12.137   1.046  0.00  0.00    -0.101 SA
ATOM     30  C20 <0> d          -5.629 -13.677   0.339  0.00  0.00     0.050 A 
ATOM     31  C19 <0> d          -4.728 -13.880  -0.654  0.00  0.00     0.008 A 
ATOM     32  C18 <0> d          -3.725 -12.953  -0.852  0.00  0.00     0.020 A 
ENDBRANCH   6  28
TORSDOF 6
