REMARK  2 active torsions:
REMARK  status: ('A' for Active; 'I' for Inactive)
REMARK    1  A    between atoms: N1_5  and  N2_9 
REMARK       I    between atoms: N2_9  and  C7_10 
REMARK    2  A    between atoms: C7_10  and  C8_12 
ROOT
ATOM      1  N2  <0> d           1.186  -2.063  -0.020  0.00  0.00    -0.256 N 
ATOM      2  C7  <0> d           0.877  -2.733  -1.148  0.00  0.00     0.274 C 
ATOM      3  O2  <0> d           0.591  -2.122  -2.159  0.00  0.00    -0.266 OA
ATOM      4  H6  <0> d           1.415  -2.551   0.787  0.00  0.00     0.191 HD
ENDROOT
BRANCH   1   5
ATOM      5  N1  <0> d           1.177  -0.662  -0.013  0.00  0.00    -0.222 N 
ATOM      6  C4  <0> d           2.353   0.017  -0.020  0.00  0.00     0.034 A 
ATOM      7  C3  <0> d           2.369   1.370  -0.013  0.00  0.00     0.033 A 
ATOM      8  C14 <0> d           3.653  -0.745  -0.037  0.00  0.00     0.070 C 
ATOM      9  C2  <0> d           1.163   2.085   0.002  0.00  0.00    -0.055 A 
ATOM     10  C1  <0> d           1.171   3.592   0.010  0.00  0.00     0.048 C 
ATOM     11  C6  <0> d          -0.017   1.401   0.010  0.00  0.00     0.083 A 
ATOM     12  C5  <0> d           0.002  -0.004   0.002  0.00  0.00     0.267 A 
ATOM     13  O1  <0> d          -1.047  -0.628   0.009  0.00  0.00    -0.266 OA
ENDBRANCH   1   5
BRANCH   2  14
ATOM     14  C8  <0> d           0.887  -4.207  -1.155  0.00  0.00     0.083 A 
ATOM     15  C10 <0> d          -0.176  -5.035  -0.856  0.00  0.00     0.044 A 
ATOM     16  N4  <0> d           0.252  -6.301  -0.984  0.00  0.00    -0.277 N 
ATOM     17  C11 <0> d          -1.563  -4.598  -0.461  0.00  0.00     0.071 C 
ATOM     18  N3  <0> d           1.600  -6.278  -1.359  0.00  0.00    -0.177 NA
ATOM     19  C12 <0> d          -0.555  -7.504  -0.764  0.00  0.00     0.179 C 
ATOM     20  C9  <0> d           1.988  -5.037  -1.464  0.00  0.00     0.068 A 
ATOM     21  C13 <0> d           3.369  -4.571  -1.846  0.00  0.00     0.073 C 
ENDBRANCH   2  14
TORSDOF 2
