REMARK  4 active torsions:
REMARK  status: ('A' for Active; 'I' for Inactive)
REMARK    1  A    between atoms: C2_2  and  C4_4 
REMARK    2  A    between atoms: N1_8  and  C8_11 
REMARK    3  A    between atoms: C11_14  and  C14_17 
REMARK    4  A    between atoms: C14_17  and  N2_18 
ROOT
ATOM      1  C4  <0> d          -1.575  -0.556   0.095  0.00  0.00     0.049 A 
ATOM      2  C5  <0> d          -1.304  -2.048  -0.188  0.00  0.00     0.122 A 
ATOM      3  C6  <0> d          -1.991  -2.288  -1.515  0.00  0.00     0.232 A 
ATOM      4  O1  <0> d          -2.023  -3.345  -2.108  0.00  0.00    -0.273 OA
ATOM      5  N1  <0> d          -2.557  -1.148  -1.930  0.00  0.00    -0.252 N 
ATOM      6  C7  <0> d          -2.385  -0.110  -1.102  0.00  0.00     0.240 A 
ATOM      7  O2  <0> d          -2.812   1.010  -1.283  0.00  0.00    -0.272 OA
ATOM      8  C15 <0> d          -2.380  -0.387   1.384  0.00  0.00     0.026 C 
ENDROOT
BRANCH   5   9
ATOM      9  C8  <0> d          -3.270  -1.049  -3.133  0.00  0.00     0.045 A 
ATOM     10  C13 <0> d          -4.476  -1.719  -3.284  0.00  0.00     0.031 A 
ATOM     11  C12 <0> d          -5.179  -1.615  -4.468  0.00  0.00     0.011 A 
ATOM     12  C11 <0> d          -4.677  -0.854  -5.508  0.00  0.00    -0.033 A 
ATOM     13  C10 <0> d          -3.473  -0.189  -5.363  0.00  0.00     0.011 A 
ATOM     14  C9  <0> d          -2.768  -0.285  -4.178  0.00  0.00     0.031 A 
BRANCH  12  15
ATOM     15  C14 <0> d          -5.443  -0.747  -6.801  0.00  0.00     0.268 C 
BRANCH  15  16
ATOM     16  N2  <0> d          -5.022  -1.821  -7.710  0.00  0.00    -0.075 N 
ATOM     17  H16 <0> d          -4.034  -1.735  -7.896  0.00  0.00     0.274 HD
ATOM     18  H17 <0> d          -5.207  -2.716  -7.282  0.00  0.00     0.274 HD
ATOM     19  H21 <0> d          -5.535  -1.750  -8.575  0.00  0.00     0.274 HD
ENDBRANCH  15  16
ENDBRANCH  12  15
ENDBRANCH   5   9
BRANCH   1  20
ATOM     20  C2  <0> d          -0.260   0.223   0.176  0.00  0.00    -0.005 C 
ATOM     21  C1  <0> d          -0.561   1.713   0.347  0.00  0.00     0.011 C 
ATOM     22  C3  <0> d           0.554  -0.274   1.373  0.00  0.00     0.011 C 
ENDBRANCH   1  20
TORSDOF 4
