REMARK  7 active torsions:
REMARK  status: ('A' for Active; 'I' for Inactive)
REMARK    1  A    between atoms: C3_4  and  C5_7 
REMARK    2  A    between atoms: C5_7  and  O1_8 
REMARK    3  A    between atoms: O1_8  and  C6_9 
REMARK    4  A    between atoms: C11_14  and  C12_15 
REMARK    5  A    between atoms: C13_16  and  C14_17 
REMARK       I    between atoms: C14_17  and  N2_19 
REMARK    6  A    between atoms: N2_19  and  N3_20 
REMARK       I    between atoms: N3_20  and  C15_21 
REMARK    7  A    between atoms: C15_21  and  C16_23 
ROOT
ATOM      1  C14 <0> d          -3.190  10.312  -0.169  0.00  0.00     0.259 C 
ATOM      2  O2  <0> d          -4.159   9.885  -0.770  0.00  0.00    -0.267 OA
ATOM      3  N2  <0> d          -2.172   9.486   0.141  0.00  0.00    -0.264 N 
ATOM      4  H14 <0> d          -1.400   9.826   0.620  0.00  0.00     0.190 HD
ENDROOT
BRANCH   1   5
ATOM      5  C13 <0> d          -3.132  11.722   0.216  0.00  0.00     0.076 C 
ATOM      6  C12 <0> d          -4.152  12.549  -0.095  0.00  0.00     0.020 C 
BRANCH   6   7
ATOM      7  C11 <0> d          -4.093  13.965   0.292  0.00  0.00    -0.003 A 
ATOM      8  C6  <0> d          -5.149  14.831  -0.034  0.00  0.00     0.079 A 
ATOM      9  C7  <0> d          -5.085  16.164   0.342  0.00  0.00     0.037 A 
ATOM     10  C8  <0> d          -3.981  16.639   1.024  0.00  0.00     0.003 A 
ATOM     11  C9  <0> d          -2.934  15.790   1.343  0.00  0.00     0.001 A 
ATOM     12  C10 <0> d          -2.982  14.461   0.984  0.00  0.00     0.014 A 
BRANCH   8  13
ATOM     13  O1  <0> d          -6.229  14.365  -0.709  0.00  0.00    -0.344 OA
BRANCH  13  14
ATOM     14  C5  <0> d          -7.264  15.305  -1.006  0.00  0.00     0.235 C 
BRANCH  14  15
ATOM     15  C3  <0> d          -8.374  14.611  -1.753  0.00  0.00     0.066 A 
ATOM     16  N1  <0> d          -9.444  15.273  -2.139  0.00  0.00    -0.248 NA
ATOM     17  C2  <0> d         -10.418  14.681  -2.791  0.00  0.00     0.071 A 
ATOM     18  C1  <0> d         -11.706  15.269  -3.307  0.00  0.00     0.078 C 
ATOM     19  S1  <0> d          -9.842  13.047  -2.905  0.00  0.00    -0.085 SA
ATOM     20  C4  <0> d          -8.291  13.289  -2.050  0.00  0.00     0.081 A 
ENDBRANCH  14  15
ENDBRANCH  13  14
ENDBRANCH   8  13
ENDBRANCH   6   7
ENDBRANCH   1   5
BRANCH   3  21
ATOM     21  N3  <0> d          -2.228   8.135  -0.228  0.00  0.00    -0.265 N 
ATOM     22  C15 <0> d          -1.209   7.309   0.082  0.00  0.00     0.267 C 
ATOM     23  O3  <0> d          -0.244   7.734   0.681  0.00  0.00    -0.269 OA
ATOM     24  H15 <0> d          -3.000   7.795  -0.707  0.00  0.00     0.190 HD
BRANCH  22  25
ATOM     25  C16 <0> d          -1.270   5.856  -0.315  0.00  0.00     0.246 C 
ATOM     26  O5  <0> d          -0.045   5.207   0.043  0.00  0.00    -0.331 OA
ATOM     27  C23 <0> d          -0.046   3.846   0.026  0.00  0.00     0.103 A 
ATOM     28  C18 <0> d          -1.241   3.136   0.031  0.00  0.00     0.102 A 
ATOM     29  C22 <0> d           1.161   3.164   0.009  0.00  0.00     0.040 A 
ATOM     30  O4  <0> d          -2.437   3.785   0.043  0.00  0.00    -0.345 OA
ATOM     31  C19 <0> d          -1.219   1.749   0.017  0.00  0.00     0.039 A 
ATOM     32  C17 <0> d          -2.417   5.163   0.432  0.00  0.00     0.218 C 
ATOM     33  C20 <0> d          -0.013   1.076   0.008  0.00  0.00     0.003 A 
ATOM     34  C21 <0> d           1.176   1.782   0.000  0.00  0.00     0.003 A 
ENDBRANCH  22  25
ENDBRANCH   3  21
TORSDOF 7
