REMARK  6 active torsions:
REMARK  status: ('A' for Active; 'I' for Inactive)
REMARK    1  A    between atoms: N2_5  and  C6_9 
REMARK    2  A    between atoms: C6_9  and  C7_10 
REMARK    3  A    between atoms: C10_13  and  C13_16 
REMARK    4  A    between atoms: C16_22  and  C17_24 
REMARK    5  A    between atoms: C17_24  and  C18_25 
REMARK    6  A    between atoms: C18_25  and  N5_26 
ROOT
ATOM      1  C7  <0> d           1.145  -4.807   1.035  0.00  0.00    -0.033 A 
ATOM      2  C8  <0> d           2.459  -4.906   0.613  0.00  0.00     0.010 A 
ATOM      3  C9  <0> d           3.413  -5.462   1.440  0.00  0.00     0.016 A 
ATOM      4  C10 <0> d           3.050  -5.926   2.706  0.00  0.00     0.010 A 
ATOM      5  C11 <0> d           1.722  -5.823   3.125  0.00  0.00     0.016 A 
ATOM      6  C12 <0> d           0.779  -5.260   2.290  0.00  0.00     0.010 A 
ENDROOT
BRANCH   4   7
ATOM      7  C13 <0> d           4.066  -6.523   3.597  0.00  0.00     0.141 A 
ATOM      8  N4  <0> d           5.313  -6.613   3.186  0.00  0.00    -0.235 NA
ATOM      9  C16 <0> d           6.262  -7.138   3.959  0.00  0.00     0.043 A 
ATOM     10  C15 <0> d           5.951  -7.609   5.200  0.00  0.00     0.101 A 
ATOM     11  C14 <0> d           4.617  -7.523   5.646  0.00  0.00     0.248 A 
ATOM     12  N3  <0> d           3.694  -6.976   4.827  0.00  0.00    -0.307 N 
ATOM     13  O2  <0> d           4.303  -7.934   6.751  0.00  0.00    -0.268 OA
ATOM     14  H1  <0> d           2.769  -6.906   5.113  0.00  0.00     0.170 HD
BRANCH   9  15
ATOM     15  C17 <0> d           7.681  -7.219   3.458  0.00  0.00     0.081 C 
BRANCH  15  16
ATOM     16  C18 <0> d           7.855  -8.488   2.621  0.00  0.00     0.156 C 
BRANCH  16  17
ATOM     17  N5  <0> d           9.235  -8.566   2.134  0.00  0.00    -0.281 N 
ATOM     18  N6  <0> d           9.906  -7.582   1.398  0.00  0.00    -0.185 NA
ATOM     19  C21 <0> d          11.117  -8.011   1.151  0.00  0.00     0.140 A 
ATOM     20  C20 <0> d          11.252  -9.284   1.712  0.00  0.00     0.040 A 
ATOM     21  C19 <0> d          10.081  -9.602   2.311  0.00  0.00     0.113 A 
ENDBRANCH  16  17
ENDBRANCH  15  16
ENDBRANCH   9  15
ENDBRANCH   4   7
BRANCH   1  22
ATOM     22  C6  <0> d           0.109  -4.198   0.126  0.00  0.00     0.274 C 
BRANCH  22  23
ATOM     23  N2  <0> d           0.042  -2.750   0.361  0.00  0.00    -0.057 N 
ATOM     24  C3  <0> d          -1.050  -2.171  -0.438  0.00  0.00     0.255 C 
ATOM     25  C2  <0> d          -1.270  -0.723   0.004  0.00  0.00     0.153 C 
ATOM     26  N1  <0> d           0.002  -0.004   0.002  0.00  0.00    -0.353 N 
ATOM     27  C1  <0> d          -0.018   1.461   0.010  0.00  0.00     0.152 C 
ATOM     28  C5  <0> d           1.184  -0.630  -0.013  0.00  0.00     0.245 C 
ATOM     29  C4  <0> d           1.308  -2.127  -0.044  0.00  0.00     0.337 C 
ATOM     30  O1  <0> d           2.197   0.037   0.005  0.00  0.00    -0.272 OA
ATOM     31  H25 <0> d          -0.124  -2.572   1.340  0.00  0.00     0.280 HD
ENDBRANCH  22  23
ENDBRANCH   1  22
TORSDOF 6
