REMARK  5 active torsions:
REMARK  status: ('A' for Active; 'I' for Inactive)
REMARK    1  A    between atoms: C2_2  and  C4_4 
REMARK    2  A    between atoms: C4_4  and  C5_5 
REMARK    3  A    between atoms: C5_5  and  N1_6 
REMARK       I    between atoms: N1_6  and  C6_7 
REMARK    4  A    between atoms: C6_7  and  C7_9 
REMARK       I    between atoms: N2_11  and  C15_19 
REMARK    5  A    between atoms: C15_19  and  C16_21 
ROOT
ATOM      1  C7  <0> d          -5.127  -4.390  -0.160  0.00  0.00     0.106 C 
ATOM      2  C8  <0> d          -5.617  -3.681  -1.443  0.00  0.00     0.141 C 
ATOM      3  N2  <0> d          -5.449  -4.691  -2.515  0.00  0.00    -0.346 N 
ATOM      4  C9  <0> d          -5.854  -5.970  -1.884  0.00  0.00     0.136 C 
ATOM      5  C10 <0> d          -5.288  -5.891  -0.452  0.00  0.00    -0.007 C 
ATOM      6  C11 <0> d          -3.933  -6.590  -0.382  0.00  0.00     0.039 C 
ATOM      7  C12 <0> d          -4.127  -8.091  -0.620  0.00  0.00     0.233 C 
ATOM      8  N3  <0> d          -5.035  -8.636   0.396  0.00  0.00    -0.075 N 
ATOM      9  C13 <0> d          -6.362  -8.024   0.262  0.00  0.00     0.233 C 
ATOM     10  C14 <0> d          -6.263  -6.521   0.537  0.00  0.00     0.039 C 
ATOM     11  C15 <0> d          -5.025  -4.491  -3.779  0.00  0.00     0.253 C 
ATOM     12  O2  <0> d          -4.607  -3.400  -4.114  0.00  0.00    -0.267 OA
ATOM     13  H22 <0> d          -5.112  -9.635   0.275  0.00  0.00     0.277 HD
ATOM     14  H31 <0> d          -4.666  -8.439   1.315  0.00  0.00     0.277 HD
ENDROOT
BRANCH   1  15
ATOM     15  C6  <0> d          -3.681  -4.058   0.103  0.00  0.00     0.224 C 
ATOM     16  N1  <0> d          -3.185  -4.150   1.353  0.00  0.00    -0.361 N 
ATOM     17  H13 <0> d          -3.759  -4.430   2.083  0.00  0.00     0.162 HD
ATOM     18  O1  <0> d          -2.963  -3.708  -0.810  0.00  0.00    -0.273 OA
BRANCH  16  19
ATOM     19  C5  <0> d          -1.779  -3.827   1.609  0.00  0.00     0.123 C 
BRANCH  19  20
ATOM     20  C4  <0> d          -1.476  -4.012   3.097  0.00  0.00     0.023 C 
BRANCH  20  21
ATOM     21  C2  <0> d          -0.008  -3.676   3.365  0.00  0.00    -0.021 C 
ATOM     22  C1  <0> d           0.264  -3.740   4.869  0.00  0.00     0.009 C 
ATOM     23  C3  <0> d           0.886  -4.684   2.641  0.00  0.00     0.009 C 
ENDBRANCH  20  21
ENDBRANCH  19  20
ENDBRANCH  16  19
ENDBRANCH   1  15
BRANCH  11  24
ATOM     24  C16 <0> d          -5.068  -5.599  -4.757  0.00  0.00     0.033 A 
ATOM     25  C21 <0> d          -4.267  -5.557  -5.899  0.00  0.00     0.036 A 
ATOM     26  C20 <0> d          -4.306  -6.598  -6.805  0.00  0.00     0.011 A 
ATOM     27  C19 <0> d          -5.148  -7.676  -6.588  0.00  0.00     0.019 A 
ATOM     28 Br1  <0> d          -3.215  -6.549  -8.348  0.00  0.00    -0.051 Br
ATOM     29  C18 <0> d          -5.949  -7.720  -5.461  0.00  0.00     0.002 A 
ATOM     30  C17 <0> d          -5.914  -6.689  -4.545  0.00  0.00     0.017 A 
ENDBRANCH  11  24
TORSDOF 5
