REMARK  2 active torsions:
REMARK  status: ('A' for Active; 'I' for Inactive)
REMARK    1  A    between atoms: C4_4  and  C7_7 
REMARK    2  A    between atoms: C7_7  and  C10_14 
ROOT
ATOM      1  C7  <0> d          -0.733   1.888   1.268  0.00  0.00     0.241 A 
ATOM      2  C8  <0> d          -0.830   3.401   1.269  0.00  0.00     0.268 A 
ATOM      3  O1  <0> d           0.088   4.193   1.269  0.00  0.00    -0.269 OA
ATOM      4  N1  <0> d          -2.152   3.679   1.268  0.00  0.00    -0.277 N 
ATOM      5  C9  <0> d          -2.891   2.563   1.271  0.00  0.00     0.324 A 
ATOM      6  O2  <0> d          -4.106   2.559   1.273  0.00  0.00    -0.247 OA
ATOM      7  N2  <0> d          -2.139   1.448   1.271  0.00  0.00    -0.313 N 
ATOM      8  H6  <0> d          -2.520   4.576   1.269  0.00  0.00     0.173 HD
ATOM      9  H7  <0> d          -2.460   0.533   1.272  0.00  0.00     0.166 HD
ENDROOT
BRANCH   1  10
ATOM     10  C4  <0> d          -0.023   1.402   2.506  0.00  0.00    -0.012 A 
ATOM     11  C3  <0> d           1.299   1.743   2.723  0.00  0.00     0.010 A 
ATOM     12  C2  <0> d           1.950   1.297   3.858  0.00  0.00     0.001 A 
ATOM     13  C1  <0> d           1.280   0.510   4.775  0.00  0.00     0.000 A 
ATOM     14  C6  <0> d          -0.042   0.169   4.558  0.00  0.00     0.001 A 
ATOM     15  C5  <0> d          -0.695   0.620   3.426  0.00  0.00     0.010 A 
ENDBRANCH   1  10
BRANCH   1  16
ATOM     16  C10 <0> d          -0.017   1.395   0.010  0.00  0.00     0.426 C 
ATOM     17  F1  <0> d           0.002  -0.004   0.002  0.00  0.00    -0.167 F 
ATOM     18  F2  <0> d           1.296   1.879  -0.000  0.00  0.00    -0.167 F 
ATOM     19  F3  <0> d          -0.694   1.858  -1.124  0.00  0.00    -0.167 F 
ENDBRANCH   1  16
TORSDOF 2
