REMARK  5 active torsions:
REMARK  status: ('A' for Active; 'I' for Inactive)
REMARK    1  A    between atoms: C9_10  and  C10_11 
REMARK       I    between atoms: C10_11  and  N1_13 
REMARK    2  A    between atoms: N1_13  and  C11_14 
REMARK    3  A    between atoms: C16_19  and  C17_20 
REMARK       I    between atoms: C17_20  and  N2_22 
REMARK    4  A    between atoms: N2_22  and  C18_23 
REMARK    5  A    between atoms: C18_23  and  C20_25 
ROOT
ATOM      1  C11 <0> d          -2.301   4.269  -0.056  0.00  0.00     0.050 A 
ATOM      2  C12 <0> d          -3.534   3.628  -0.046  0.00  0.00     0.030 A 
ATOM      3  C13 <0> d          -4.697   4.366  -0.127  0.00  0.00     0.002 A 
ATOM      4  C14 <0> d          -4.646   5.748  -0.219  0.00  0.00     0.001 A 
ATOM      5  C15 <0> d          -3.433   6.401  -0.230  0.00  0.00     0.019 A 
ATOM      6  C16 <0> d          -2.247   5.668  -0.143  0.00  0.00     0.058 A 
ENDROOT
BRANCH   1   7
ATOM      7  N1  <0> d          -1.127   3.527   0.025  0.00  0.00    -0.320 N 
ATOM      8  C10 <0> d          -1.137   2.311   0.606  0.00  0.00     0.280 C 
ATOM      9  O2  <0> d          -2.147   1.904   1.148  0.00  0.00    -0.265 OA
ATOM     10  H9  <0> d          -0.301   3.885  -0.336  0.00  0.00     0.169 HD
BRANCH   8  11
ATOM     11  C9  <0> d           0.072   1.477   0.585  0.00  0.00     0.150 A 
ATOM     12  C2  <0> d           0.178   0.239   1.135  0.00  0.00    -0.009 A 
ATOM     13  C1  <0> d          -0.895  -0.519   1.873  0.00  0.00     0.052 C 
ATOM     14  C3  <0> d           1.545  -0.207   0.868  0.00  0.00     0.007 A 
ATOM     15  C8  <0> d           2.156   0.841   0.155  0.00  0.00     0.087 A 
ATOM     16  C4  <0> d           2.266  -1.366   1.165  0.00  0.00     0.015 A 
ATOM     17  C7  <0> d           3.480   0.705  -0.245  0.00  0.00     0.038 A 
ATOM     18  O1  <0> d           1.244   1.821   0.010  0.00  0.00    -0.304 OA
ATOM     19  C6  <0> d           4.174  -0.446   0.057  0.00  0.00     0.003 A 
ATOM     20  C5  <0> d           3.566  -1.477   0.761  0.00  0.00     0.001 A 
ENDBRANCH   8  11
ENDBRANCH   1   7
BRANCH   6  21
ATOM     21  C17 <0> d          -0.945   6.361  -0.148  0.00  0.00     0.254 C 
ATOM     22  O3  <0> d           0.087   5.717  -0.168  0.00  0.00    -0.268 OA
ATOM     23  N2  <0> d          -0.898   7.708  -0.131  0.00  0.00    -0.349 N 
ATOM     24  H14 <0> d          -1.721   8.222  -0.115  0.00  0.00     0.163 HD
BRANCH  23  25
ATOM     25  C18 <0> d           0.395   8.396  -0.136  0.00  0.00     0.114 C 
ATOM     26  C19 <0> d           0.889   8.544  -1.577  0.00  0.00     0.037 C 
BRANCH  25  27
ATOM     27  C20 <0> d           0.241   9.761   0.484  0.00  0.00    -0.036 A 
ATOM     28  C25 <0> d           1.222  10.254   1.324  0.00  0.00     0.009 A 
ATOM     29  C24 <0> d           1.080  11.506   1.893  0.00  0.00     0.001 A 
ATOM     30  C23 <0> d          -0.043  12.265   1.621  0.00  0.00     0.000 A 
ATOM     31  C22 <0> d          -1.024  11.772   0.782  0.00  0.00     0.001 A 
ATOM     32  C21 <0> d          -0.880  10.522   0.209  0.00  0.00     0.009 A 
ENDBRANCH  25  27
ENDBRANCH  23  25
ENDBRANCH   6  21
TORSDOF 5
