REMARK  6 active torsions:
REMARK  status: ('A' for Active; 'I' for Inactive)
REMARK    1  A    between atoms: C7_8  and  C8_10 
REMARK    2  A    between atoms: N3_13  and  C13_16 
REMARK    3  A    between atoms: C13_16  and  C14_17 
REMARK    4  A    between atoms: C14_17  and  C15_18 
REMARK    5  A    between atoms: C14_17  and  O1_24 
REMARK    6  A    between atoms: C21_25  and  O2_27 
ROOT
ATOM      1  C8  <0> d          -2.519   2.857   4.792  0.00  0.00     0.060 C 
ATOM      2  C9  <0> d          -1.717   4.018   5.387  0.00  0.00     0.040 C 
ATOM      3  C10 <0> d          -2.353   4.445   6.712  0.00  0.00     0.235 C 
ATOM      4  N3  <0> d          -2.364   3.307   7.640  0.00  0.00    -0.068 N 
ATOM      5  C11 <0> d          -3.168   2.198   7.112  0.00  0.00     0.235 C 
ATOM      6  C12 <0> d          -2.556   1.704   5.799  0.00  0.00     0.040 C 
ATOM      7  H32 <0> d          -1.329   2.950   7.746  0.00  0.00     0.280 HD
ENDROOT
BRANCH   1   8
ATOM      8  C7  <0> d          -1.863   2.393   3.518  0.00  0.00     0.130 A 
ATOM      9  N1  <0> d          -0.622   1.953   3.558  0.00  0.00    -0.244 NA
ATOM     10  C6  <0> d          -0.019   1.536   2.457  0.00  0.00     0.130 A 
ATOM     11  C5  <0> d          -0.708   1.567   1.251  0.00  0.00     0.013 A 
ATOM     12  C4  <0> d          -2.004   2.037   1.247  0.00  0.00     0.047 A 
ATOM     13  C21 <0> d          -0.013   1.086   0.008  0.00  0.00     0.155 C 
ATOM     14  C3  <0> d          -2.830   2.123  -0.007  0.00  0.00     0.069 C 
ATOM     15  N2  <0> d          -2.545   2.437   2.392  0.00  0.00    -0.237 NA
ATOM     16  C2  <0> d          -2.228   1.246  -1.105  0.00  0.00    -0.040 C 
ATOM     17  C1  <0> d          -2.385  -0.228  -0.729  0.00  0.00     0.015 C 
ATOM     18  C22 <0> d          -0.744   1.588  -1.236  0.00  0.00     0.045 C 
ATOM     19  C23 <0> d          -2.943   1.518  -2.430  0.00  0.00     0.015 C 
BRANCH  13  20
ATOM     20  O2  <0> d           1.329   1.577  -0.002  0.00  0.00    -0.391 OA
ATOM     21  H28 <0> d           2.000   1.328  -0.838  0.00  0.00     0.210 HD
ENDBRANCH  13  20
ENDBRANCH   1   8
BRANCH   4  22
ATOM     22  C13 <0> d          -2.840   3.716   8.969  0.00  0.00     0.271 C 
BRANCH  22  23
ATOM     23  C14 <0> d          -2.152   5.020   9.378  0.00  0.00     0.177 C 
BRANCH  23  24
ATOM     24  C15 <0> d          -2.640   5.440  10.741  0.00  0.00    -0.028 A 
ATOM     25  C20 <0> d          -3.683   6.340  10.854  0.00  0.00     0.010 A 
ATOM     26  C19 <0> d          -4.131   6.725  12.104  0.00  0.00     0.001 A 
ATOM     27  C18 <0> d          -3.537   6.209  13.240  0.00  0.00     0.000 A 
ATOM     28  C17 <0> d          -2.495   5.308  13.127  0.00  0.00     0.001 A 
ATOM     29  C16 <0> d          -2.050   4.919  11.877  0.00  0.00     0.010 A 
ENDBRANCH  23  24
BRANCH  23  30
ATOM     30  O1  <0> d          -0.738   4.819   9.420  0.00  0.00    -0.389 OA
ATOM     31  H25 <0> d          -0.072   5.650   9.697  0.00  0.00     0.210 HD
ENDBRANCH  23  30
ENDBRANCH  22  23
ENDBRANCH   4  22
TORSDOF 6
