REMARK  7 active torsions:
REMARK  status: ('A' for Active; 'I' for Inactive)
REMARK    1  A    between atoms: C2_2  and  N1_4 
REMARK    2  A    between atoms: N1_4  and  C5_6 
REMARK    3  A    between atoms: C5_6  and  C6_7 
REMARK    4  A    between atoms: C6_7  and  N2_8 
REMARK    5  A    between atoms: N2_8  and  S1_9 
REMARK    6  A    between atoms: S1_9  and  C7_12 
REMARK    7  A    between atoms: C11_16  and  N3_19 
ROOT
ATOM      1  S1  <0> d          -4.048  -4.825   0.747  0.00  0.00     0.260 S 
ATOM      2  O1  <0> d          -3.783  -6.221   0.785  0.00  0.00    -0.200 OA
ATOM      3  O2  <0> d          -4.349  -4.074   1.915  0.00  0.00    -0.200 OA
ENDROOT
BRANCH   1   4
ATOM      4  N2  <0> d          -2.723  -4.112   0.054  0.00  0.00    -0.314 N 
ATOM      5  H15 <0> d          -1.963  -4.653  -0.209  0.00  0.00     0.172 HD
BRANCH   4   6
ATOM      6  C6  <0> d          -2.700  -2.663  -0.161  0.00  0.00     0.160 C 
BRANCH   6   7
ATOM      7  C5  <0> d          -1.265  -2.211  -0.439  0.00  0.00     0.255 C 
BRANCH   7   8
ATOM      8  N1  <0> d          -1.242  -0.758  -0.655  0.00  0.00    -0.070 N 
ATOM      9  C4  <0> d          -1.995  -0.432  -1.873  0.00  0.00     0.270 C 
ATOM     10  H20 <0> d          -1.663  -0.294   0.136  0.00  0.00     0.279 HD
BRANCH   8  11
ATOM     11  C2  <0> d           0.148  -0.307  -0.803  0.00  0.00     0.179 C 
ATOM     12  C1  <0> d           0.172   1.206  -1.027  0.00  0.00     0.039 C 
ATOM     13  C3  <0> d           0.933  -0.647   0.466  0.00  0.00     0.039 C 
ENDBRANCH   8  11
ENDBRANCH   7   8
ENDBRANCH   6   7
ENDBRANCH   4   6
ENDBRANCH   1   4
BRANCH   1  14
ATOM     14  C7  <0> d          -5.400  -4.599  -0.360  0.00  0.00     0.100 A 
ATOM     15  C12 <0> d          -5.369  -5.178  -1.615  0.00  0.00     0.060 A 
ATOM     16  C11 <0> d          -6.438  -5.004  -2.486  0.00  0.00     0.046 A 
ATOM     17 Br1  <0> d          -3.876  -6.212  -2.143  0.00  0.00    -0.047 Br
ATOM     18  C10 <0> d          -7.529  -4.239  -2.096  0.00  0.00     0.054 A 
ATOM     19  C9  <0> d          -7.552  -3.658  -0.842  0.00  0.00     0.037 A 
ATOM     20  C8  <0> d          -6.488  -3.838   0.025  0.00  0.00     0.050 A 
ATOM     21 Cl1  <0> d          -8.916  -2.702  -0.353  0.00  0.00    -0.084 Cl
BRANCH  16  22
ATOM     22  N3  <0> d          -6.412  -5.592  -3.753  0.00  0.00    -0.398 N 
ATOM     23  H18 <0> d          -7.157  -5.467  -4.361  0.00  0.00     0.156 HD
ATOM     24  H19 <0> d          -5.649  -6.126  -4.024  0.00  0.00     0.156 HD
ENDBRANCH  16  22
ENDBRANCH   1  14
TORSDOF 7
