REMARK  3 active torsions:
REMARK  status: ('A' for Active; 'I' for Inactive)
REMARK    1  A    between atoms: C6_6  and  N1_7 
REMARK    2  A    between atoms: N1_7  and  C7_8 
REMARK    3  A    between atoms: N3_15  and  C12_18 
ROOT
ATOM      1  C7  <0> d          -2.405  -0.065   0.248  0.00  0.00     0.111 C 
ATOM      2  C8  <0> d          -3.576  -0.770   0.041  0.00  0.00     0.115 A 
ATOM      3  C9  <0> d          -4.858  -0.081  -0.188  0.00  0.00     0.264 A 
ATOM      4  O1  <0> d          -4.921   1.134  -0.201  0.00  0.00    -0.267 OA
ATOM      5  N2  <0> d          -5.960  -0.834  -0.384  0.00  0.00    -0.299 N 
ATOM      6  C10 <0> d          -5.905  -2.173  -0.373  0.00  0.00     0.184 A 
ATOM      7  S1  <0> d          -7.355  -3.047  -0.630  0.00  0.00    -0.040 SA
ATOM      8  N3  <0> d          -4.775  -2.865  -0.172  0.00  0.00    -0.285 N 
ATOM      9  C11 <0> d          -3.595  -2.244   0.032  0.00  0.00     0.267 A 
ATOM     10  O2  <0> d          -2.575  -2.884   0.208  0.00  0.00    -0.267 OA
ATOM     11  H6  <0> d          -6.813  -0.396  -0.536  0.00  0.00     0.171 HD
ENDROOT
BRANCH   1  12
ATOM     12  N1  <0> d          -1.227  -0.720   0.324  0.00  0.00    -0.365 N 
ATOM     13  H4  <0> d          -1.209  -1.690   0.308  0.00  0.00     0.165 HD
BRANCH  12  14
ATOM     14  C6  <0> d          -0.033  -0.001   0.424  0.00  0.00     0.032 A 
ATOM     15  C1  <0> d          -0.056   1.388   0.447  0.00  0.00     0.030 A 
ATOM     16  C2  <0> d           1.127   2.092   0.547  0.00  0.00     0.010 A 
ATOM     17  C3  <0> d           2.336   1.422   0.625  0.00  0.00    -0.052 A 
ATOM     18  C17 <0> d           3.748   1.958   0.738  0.00  0.00     0.039 C 
ATOM     19  C4  <0> d           2.362   0.039   0.602  0.00  0.00    -0.050 A 
ATOM     20  C16 <0> d           4.661   0.778   0.343  0.00  0.00     0.009 C 
ATOM     21  C15 <0> d           3.792  -0.447   0.699  0.00  0.00     0.039 C 
ATOM     22  C5  <0> d           1.180  -0.672   0.502  0.00  0.00     0.037 A 
ENDBRANCH  12  14
ENDBRANCH   1  12
BRANCH   8  23
ATOM     23  C12 <0> d          -4.821  -4.330  -0.179  0.00  0.00     0.096 A 
ATOM     24  C14 <0> d          -5.205  -5.018  -1.491  0.00  0.00     0.028 A 
ATOM     25  C13 <0> d          -3.758  -5.066  -0.997  0.00  0.00     0.028 A 
ENDBRANCH   8  23
TORSDOF 3
