REMARK  5 active torsions:
REMARK  status: ('A' for Active; 'I' for Inactive)
REMARK    1  A    between atoms: C6_6  and  C8_8 
REMARK    2  A    between atoms: C10_11  and  C12_14 
REMARK    3  A    between atoms: C12_14  and  N6_30 
REMARK    4  A    between atoms: C13_15  and  N6_30 
REMARK    5  A    between atoms: N4_23  and  C20_24 
ROOT
ATOM      1  N6  <0> d          -0.120   9.988   1.445  0.00  0.00    -0.063 N 
ATOM      2  H24 <0> d           0.727   9.649   1.915  0.00  0.00     0.278 HD
ATOM      3  H25 <0> d          -0.950   9.626   1.931  0.00  0.00     0.278 HD
ENDROOT
BRANCH   1   4
ATOM      4  C12 <0> d          -0.127   9.511   0.049  0.00  0.00     0.274 C 
BRANCH   4   5
ATOM      5  C10 <0> d          -0.106   8.004   0.042  0.00  0.00     0.003 A 
ATOM      6  C9  <0> d           1.095   7.312   0.028  0.00  0.00     0.129 A 
ATOM      7  N1  <0> d           1.078   5.990   0.027  0.00  0.00    -0.240 NA
ATOM      8  C8  <0> d          -0.070   5.327   0.029  0.00  0.00     0.159 A 
ATOM      9  N2  <0> d          -1.236   5.959   0.043  0.00  0.00    -0.240 NA
ATOM     10  C11 <0> d          -1.289   7.279   0.050  0.00  0.00     0.129 A 
BRANCH   8  11
ATOM     11  C6  <0> d          -0.050   3.844   0.022  0.00  0.00     0.012 A 
ATOM     12  C5  <0> d          -1.246   3.128   0.030  0.00  0.00     0.015 A 
ATOM     13  C4  <0> d          -1.221   1.748   0.017  0.00  0.00     0.002 A 
ATOM     14  C3  <0> d          -0.013   1.076   0.008  0.00  0.00     0.007 A 
ATOM     15  C2  <0> d           1.178   1.781   0.000  0.00  0.00    -0.061 A 
ATOM     16  C1  <0> d           2.490   1.041  -0.015  0.00  0.00     0.048 C 
ATOM     17  C7  <0> d           1.165   3.161   0.007  0.00  0.00     0.022 A 
ENDBRANCH   8  11
ENDBRANCH   4   5
ENDBRANCH   1   4
BRANCH   1  18
ATOM     18  C13 <0> d          -0.140  11.463   1.482  0.00  0.00     0.222 C 
ATOM     19  C18 <0> d           1.269  11.993   1.388  0.00  0.00     0.016 A 
ATOM     20  C17 <0> d           1.756  12.998   2.159  0.00  0.00     0.048 A 
ATOM     21  C19 <0> d           2.287  11.571   0.534  0.00  0.00     0.150 A 
ATOM     22  C16 <0> d           0.956  13.722   3.211  0.00  0.00     0.060 C 
ATOM     23  N4  <0> d           3.045  13.202   1.802  0.00  0.00    -0.220 N 
ATOM     24  C15 <0> d          -0.531  13.438   2.969  0.00  0.00     0.008 C 
ATOM     25  C14 <0> d          -0.745  11.930   2.812  0.00  0.00     0.038 C 
ATOM     26  N3  <0> d           3.353  12.293   0.778  0.00  0.00    -0.178 NA
BRANCH  23  27
ATOM     27  C20 <0> d           3.913  14.148   2.354  0.00  0.00     0.150 A 
ATOM     28  N5  <0> d           3.421  15.237   2.922  0.00  0.00    -0.241 NA
ATOM     29  C24 <0> d           4.204  16.155   3.455  0.00  0.00     0.119 A 
ATOM     30  C23 <0> d           5.577  16.010   3.438  0.00  0.00     0.019 A 
ATOM     31  C22 <0> d           6.134  14.882   2.852  0.00  0.00     0.005 A 
ATOM     32  C21 <0> d           5.285  13.934   2.307  0.00  0.00     0.052 A 
ENDBRANCH  23  27
ENDBRANCH   1  18
TORSDOF 5
