REMARK  3 active torsions:
REMARK  status: ('A' for Active; 'I' for Inactive)
REMARK    1  A    between atoms: C4_4  and  S1_9 
REMARK    2  A    between atoms: S1_9  and  N1_12 
REMARK    3  A    between atoms: C12_17  and  N3_26 
ROOT
ATOM      1  N1  <0> d          -0.329   0.968  -4.644  0.00  0.00    -0.304 N 
ATOM      2  C8  <0> d           0.732   1.968  -4.838  0.00  0.00     0.163 C 
ATOM      3  C9  <0> d           1.771   1.798  -3.725  0.00  0.00     0.256 C 
ATOM      4  C10 <0> d           0.149   0.742  -2.264  0.00  0.00     0.256 C 
ATOM      5  C11 <0> d          -0.957   0.869  -3.317  0.00  0.00     0.163 C 
ATOM      6  N3  <0> d           1.083   1.878  -2.418  0.00  0.00    -0.055 N 
ATOM      7  H25 <0> d           0.551   2.755  -2.374  0.00  0.00     0.281 HD
ENDROOT
BRANCH   1   8
ATOM      8  S1  <0> d          -0.804  -0.020  -5.885  0.00  0.00     0.260 S 
ATOM      9  O1  <0> d          -2.131  -0.433  -5.591  0.00  0.00    -0.200 OA
ATOM     10  O2  <0> d          -0.465   0.651  -7.091  0.00  0.00    -0.200 OA
BRANCH   8  11
ATOM     11  C4  <0> d           0.201  -1.465  -5.814  0.00  0.00     0.080 A 
ATOM     12  C3  <0> d          -0.205  -2.553  -5.065  0.00  0.00     0.033 A 
ATOM     13  C2  <0> d           0.582  -3.688  -5.009  0.00  0.00    -0.043 A 
ATOM     14  C1  <0> d           0.139  -4.874  -4.192  0.00  0.00     0.049 C 
ATOM     15  C7  <0> d           1.778  -3.734  -5.703  0.00  0.00     0.017 A 
ATOM     16  C6  <0> d           2.185  -2.645  -6.453  0.00  0.00     0.021 A 
ATOM     17 Br1  <0> d           2.857  -5.285  -5.627  0.00  0.00    -0.051 Br
ATOM     18  C5  <0> d           1.394  -1.513  -6.512  0.00  0.00     0.027 A 
ENDBRANCH   8  11
ENDBRANCH   1   8
BRANCH   6  19
ATOM     19  C12 <0> d           2.077   1.865  -1.324  0.00  0.00     0.279 C 
ATOM     20  C17 <0> d           1.352   1.831   0.005  0.00  0.00     0.248 C 
ATOM     21  N2  <0> d           0.337   2.665   0.238  0.00  0.00    -0.359 N 
ATOM     22  O3  <0> d           1.696   1.043   0.861  0.00  0.00    -0.271 OA
ATOM     23  C16 <0> d          -0.093   3.621  -0.794  0.00  0.00     0.122 C 
ATOM     24  H24 <0> d          -0.120   2.640   1.093  0.00  0.00     0.162 HD
ATOM     25  C15 <0> d           0.964   4.720  -0.915  0.00  0.00     0.020 C 
ATOM     26  C14 <0> d           2.061   4.311  -1.881  0.00  0.00     0.004 C 
ATOM     27  C13 <0> d           2.907   3.150  -1.391  0.00  0.00     0.043 C 
ENDBRANCH   6  19
TORSDOF 3
