REMARK  5 active torsions:
REMARK  status: ('A' for Active; 'I' for Inactive)
REMARK    1  A    between atoms: C4_4  and  C8_10 
REMARK       I    between atoms: C8_10  and  N2_12 
REMARK    2  A    between atoms: N2_12  and  C9_13 
REMARK    3  A    between atoms: C9_13  and  C10_14 
REMARK    4  A    between atoms: C16_20  and  C18_23 
REMARK    5  A    between atoms: C21_26  and  S1_29 
ROOT
ATOM      1  C10 <0> d          -3.501  -5.970   2.060  0.00  0.00     0.151 C 
ATOM      2  C11 <0> d          -4.612  -6.489   3.002  0.00  0.00     0.075 C 
ATOM      3  C12 <0> d          -3.975  -7.739   3.579  0.00  0.00    -0.021 A 
ATOM      4  C13 <0> d          -4.501  -8.814   4.262  0.00  0.00     0.010 A 
ATOM      5  C14 <0> d          -3.678  -9.846   4.678  0.00  0.00     0.002 A 
ATOM      6  C15 <0> d          -2.325  -9.799   4.409  0.00  0.00     0.015 A 
ATOM      7  C16 <0> d          -1.785  -8.716   3.724  0.00  0.00     0.008 A 
ATOM      8  C17 <0> d          -2.617  -7.666   3.304  0.00  0.00     0.086 A 
ATOM      9  O3  <0> d          -2.305  -6.517   2.640  0.00  0.00    -0.343 OA
ENDROOT
BRANCH   1  10
ATOM     10  C9  <0> d          -3.456  -4.440   2.066  0.00  0.00     0.155 C 
BRANCH  10  11
ATOM     11  N2  <0> d          -2.436  -3.978   1.122  0.00  0.00    -0.358 N 
ATOM     12  C8  <0> d          -2.217  -2.658   0.959  0.00  0.00     0.234 C 
ATOM     13  O2  <0> d          -2.865  -1.853   1.594  0.00  0.00    -0.272 OA
ATOM     14  H9  <0> d          -1.917  -4.622   0.614  0.00  0.00     0.162 HD
BRANCH  12  15
ATOM     15  C4  <0> d          -1.168  -2.182  -0.012  0.00  0.00     0.193 C 
ATOM     16  C3  <0> d          -1.133  -0.684   0.004  0.00  0.00     0.006 C 
ATOM     17  C2  <0> d           0.002  -0.004   0.002  0.00  0.00    -0.038 C 
ATOM     18  C1  <0> d          -0.018   1.503   0.010  0.00  0.00     0.050 C 
ATOM     19  C6  <0> d           1.289  -0.728  -0.014  0.00  0.00     0.031 C 
ATOM     20  N1  <0> d           1.298  -2.084   0.341  0.00  0.00    -0.326 N 
ATOM     21  C7  <0> d           2.419  -0.102  -0.354  0.00  0.00     0.043 C 
ATOM     22  C5  <0> d           0.152  -2.781   0.368  0.00  0.00     0.239 C 
ATOM     23  H24 <0> d           2.136  -2.521   0.563  0.00  0.00     0.169 HD
ATOM     24  O1  <0> d           0.185  -3.943   0.714  0.00  0.00    -0.272 OA
ENDBRANCH  12  15
ENDBRANCH  10  11
ENDBRANCH   1  10
BRANCH   7  25
ATOM     25  C18 <0> d          -0.331  -8.670   3.437  0.00  0.00    -0.023 A 
ATOM     26  C23 <0> d           0.591  -8.896   4.457  0.00  0.00     0.014 A 
ATOM     27  C22 <0> d           1.943  -8.858   4.183  0.00  0.00     0.024 A 
ATOM     28  C21 <0> d           2.384  -8.584   2.901  0.00  0.00     0.058 A 
ATOM     29  C20 <0> d           1.474  -8.353   1.886  0.00  0.00     0.024 A 
ATOM     30  C19 <0> d           0.119  -8.395   2.147  0.00  0.00     0.014 A 
BRANCH  28  31
ATOM     31  S1  <0> d           4.112  -8.530   2.560  0.00  0.00     0.171 S 
ATOM     32  O4  <0> d           4.702  -9.368   3.545  0.00  0.00    -0.223 OA
ATOM     33  O5  <0> d           4.219  -8.848   1.179  0.00  0.00    -0.223 OA
ATOM     34  C24 <0> d           4.589  -6.803   2.842  0.00  0.00     0.167 C 
ENDBRANCH  28  31
ENDBRANCH   7  25
TORSDOF 5
