REMARK  5 active torsions:
REMARK  status: ('A' for Active; 'I' for Inactive)
REMARK    1  A    between atoms: S1_2  and  C2_3 
REMARK    2  A    between atoms: C4_8  and  C17_24 
REMARK    3  A    between atoms: C8_12  and  C11_16 
REMARK    4  A    between atoms: C16_21  and  O1_22 
REMARK    5  A    between atoms: C20_27  and  O3_30 
ROOT
ATOM      1  C2  <0> d           1.236   1.790  -0.000  0.00  0.00     0.226 A 
ATOM      2  N1  <0> d           2.035   0.721  -0.014  0.00  0.00    -0.033 NA
ATOM      3  C3  <0> d           1.306  -0.388  -0.013  0.00  0.00     0.748 A 
ATOM      4  N2  <0> d           0.002  -0.004   0.002  0.00  0.00    -0.085 N 
ATOM      5  N3  <0> d          -0.017   1.393   0.010  0.00  0.00    -0.129 NA
ATOM      6  C4  <0> d          -1.046  -1.032   0.007  0.00  0.00     0.174 A 
ATOM      7  C5  <0> d          -0.568  -2.471  -0.005  0.00  0.00     0.105 A 
ATOM      8  C6  <0> d          -1.453  -3.477  -0.001  0.00  0.00     0.143 C 
ATOM      9  C7  <0> d          -1.002  -4.914  -0.011  0.00  0.00     0.055 C 
ATOM     10  C8  <0> d           0.343  -5.019  -0.735  0.00  0.00     0.030 C 
ATOM     11  C9  <0> d           1.356  -4.108  -0.036  0.00  0.00     0.065 C 
ATOM     12  C10 <0> d           0.825  -2.695  -0.021  0.00  0.00     0.042 A 
ATOM     13  N4  <0> d           1.662  -1.691  -0.024  0.00  0.00    -0.070 NA
ATOM     14  O2  <0> d          -2.772  -3.197   0.012  0.00  0.00    -0.225 OA
ENDROOT
BRANCH   6  15
ATOM     15  C17 <0> d          -1.897  -0.829   1.234  0.00  0.00    -0.032 A 
ATOM     16  C22 <0> d          -3.249  -0.571   1.102  0.00  0.00     0.012 A 
ATOM     17  C21 <0> d          -4.031  -0.385   2.226  0.00  0.00     0.037 A 
ATOM     18  C20 <0> d          -3.458  -0.457   3.488  0.00  0.00     0.065 A 
ATOM     19  C19 <0> d          -2.102  -0.717   3.617  0.00  0.00     0.037 A 
ATOM     20  C18 <0> d          -1.325  -0.907   2.491  0.00  0.00     0.012 A 
BRANCH  18  21
ATOM     21  O3  <0> d          -4.225  -0.274   4.594  0.00  0.00    -0.361 OA
ATOM     22  H20 <0> d          -4.616  -1.088   4.941  0.00  0.00     0.217 HD
ENDBRANCH  18  21
ENDBRANCH   6  15
BRANCH   1  23
ATOM     23  S1  <0> d           1.776   3.467   0.004  0.00  0.00    -0.092 SA
ATOM     24  C1  <0> d           3.586   3.346  -0.014  0.00  0.00     0.099 C 
ENDBRANCH   1  23
BRANCH  10  25
ATOM     25  C11 <0> d           0.831  -6.444  -0.691  0.00  0.00    -0.020 A 
ATOM     26  C16 <0> d           1.055  -7.138  -1.871  0.00  0.00     0.072 A 
ATOM     27  C15 <0> d           1.508  -8.448  -1.827  0.00  0.00     0.037 A 
ATOM     28  C14 <0> d           1.725  -9.062  -0.608  0.00  0.00     0.003 A 
ATOM     29  C13 <0> d           1.495  -8.370   0.567  0.00  0.00     0.001 A 
ATOM     30  C12 <0> d           1.048  -7.062   0.525  0.00  0.00     0.010 A 
BRANCH  26  31
ATOM     31  O1  <0> d           0.836  -6.533  -3.068  0.00  0.00    -0.360 OA
ATOM     32  H14 <0> d           1.609  -6.073  -3.423  0.00  0.00     0.217 HD
ENDBRANCH  26  31
ENDBRANCH  10  25
TORSDOF 5
