REMARK  3 active torsions:
REMARK  status: ('A' for Active; 'I' for Inactive)
REMARK    1  A    between atoms: C5_5  and  C8_8 
REMARK    2  A    between atoms: C14_17  and  C16_20 
REMARK    3  A    between atoms: C16_20  and  O4_22 
ROOT
ATOM      1  C8  <0> d           2.113  -1.540   0.316  0.00  0.00     0.269 C 
ATOM      2  C9  <0> d           1.403  -0.389  -0.374  0.00  0.00     0.132 C 
ATOM      3  C10 <0> d           2.161   0.817   0.294  0.00  0.00     0.142 C 
ATOM      4  C11 <0> d           1.282   1.923   0.024  0.00  0.00     0.234 C 
ATOM      5  O1  <0> d           1.591   3.078  -0.170  0.00  0.00    -0.272 OA
ATOM      6  N1  <0> d           0.017   1.389   0.034  0.00  0.00    -0.292 N 
ATOM      7  C12 <0> d           0.019   0.022   0.018  0.00  0.00     0.233 C 
ATOM      8  O2  <0> d          -0.913  -0.710   0.271  0.00  0.00    -0.272 OA
ATOM      9  C13 <0> d          -1.205   2.197   0.053  0.00  0.00     0.162 C 
ATOM     10  C14 <0> d           3.568   0.393   0.215  0.00  0.00     0.254 C 
ATOM     11  N2  <0> d           3.505  -1.065   0.574  0.00  0.00     0.113 N 
ATOM     12  C15 <0> d           4.429   1.162   1.220  0.00  0.00     0.061 C 
ATOM     13  H14 <0> d           3.750  -1.207   1.637  0.00  0.00     0.318 HD
ENDROOT
BRANCH   1  14
ATOM     14  C5  <0> d           1.426  -1.870   1.617  0.00  0.00    -0.024 A 
ATOM     15  C4  <0> d           0.487  -2.883   1.665  0.00  0.00     0.010 A 
ATOM     16  C3  <0> d          -0.142  -3.185   2.858  0.00  0.00     0.007 A 
ATOM     17  C2  <0> d           0.168  -2.474   4.003  0.00  0.00    -0.062 A 
ATOM     18  C1  <0> d          -0.519  -2.803   5.303  0.00  0.00     0.048 C 
ATOM     19  C7  <0> d           1.108  -1.462   3.954  0.00  0.00     0.007 A 
ATOM     20  C6  <0> d           1.740  -1.163   2.762  0.00  0.00     0.010 A 
ENDBRANCH   1  14
BRANCH  10  21
ATOM     21  C16 <0> d           4.092   0.577  -1.186  0.00  0.00     0.298 C 
ATOM     22  O3  <0> d           3.649   1.456  -1.886  0.00  0.00    -0.262 OA
BRANCH  21  23
ATOM     23  O4  <0> d           5.051  -0.236  -1.656  0.00  0.00    -0.324 OA
ATOM     24  C17 <0> d           5.508  -0.001  -3.014  0.00  0.00     0.213 C 
ENDBRANCH  21  23
ENDBRANCH  10  21
TORSDOF 3
