REMARK  2 active torsions:
REMARK  status: ('A' for Active; 'I' for Inactive)
REMARK    1  A    between atoms: C10_11  and  C11_12 
REMARK    2  A    between atoms: C10_11  and  O1_18 
ROOT
ATOM      1  C1  <0> d           2.210   5.644   0.009  0.00  0.00     0.001 A 
ATOM      2  C2  <0> d           3.579   5.446  -0.005  0.00  0.00     0.001 A 
ATOM      3  C3  <0> d           4.098   4.162  -0.016  0.00  0.00     0.013 A 
ATOM      4  C4  <0> d           3.247   3.078  -0.013  0.00  0.00     0.017 A 
ATOM      5  C5  <0> d           1.869   3.269   0.001  0.00  0.00     0.019 A 
ATOM      6  C6  <0> d           1.351   4.564   0.013  0.00  0.00     0.016 A 
ATOM      7  C7  <0> d           1.198   1.939   0.001  0.00  0.00     0.113 A 
ATOM      8  C8  <0> d           0.002  -0.004   0.002  0.00  0.00     0.141 A 
ATOM      9  C9  <0> d           1.501  -0.358  -0.014  0.00  0.00     0.148 A 
ATOM     10  N1  <0> d           2.158   0.959  -0.013  0.00  0.00    -0.324 N 
ATOM     11  C10 <0> d           3.484   1.589  -0.022  0.00  0.00     0.211 A 
ATOM     12  N3  <0> d          -0.024   1.466   0.010  0.00  0.00    -0.374 N 
ATOM     13  H14 <0> d          -0.876   2.039   0.021  0.00  0.00     0.161 HD
ENDROOT
BRANCH  11  14
ATOM     14  C11 <0> d           4.236   1.194  -1.267  0.00  0.00     0.094 A 
ATOM     15  N2  <0> d           3.634   0.471  -2.190  0.00  0.00    -0.260 NA
ATOM     16  C15 <0> d           4.253   0.102  -3.295  0.00  0.00     0.117 A 
ATOM     17  C14 <0> d           5.566   0.465  -3.524  0.00  0.00     0.019 A 
ATOM     18  C13 <0> d           6.233   1.226  -2.576  0.00  0.00     0.004 A 
ATOM     19  C12 <0> d           5.548   1.599  -1.430  0.00  0.00     0.033 A 
ENDBRANCH  11  14
BRANCH  11  20
ATOM     20  O1  <0> d           4.219   1.202   1.140  0.00  0.00    -0.361 OA
ATOM     21  H13 <0> d           5.105   1.586   1.192  0.00  0.00     0.213 HD
ENDBRANCH  11  20
TORSDOF 2
