REMARK  3 active torsions:
REMARK  status: ('A' for Active; 'I' for Inactive)
REMARK    1  A    between atoms: C4_4  and  C7_7 
REMARK    2  A    between atoms: C11_11  and  C21_23 
REMARK    3  A    between atoms: C24_26  and  O1_29 
ROOT
ATOM      1  C7  <0> d           0.002  -0.004   0.002  0.00  0.00     0.031 C 
ATOM      2  C8  <0> d          -0.699  -0.535   1.254  0.00  0.00     0.067 C 
ATOM      3  C9  <0> d          -0.733  -2.043   1.219  0.00  0.00     0.021 C 
ATOM      4  C10 <0> d          -0.782  -2.712   0.046  0.00  0.00     0.023 C 
ATOM      5  C11 <0> d          -0.822  -4.219   0.010  0.00  0.00     0.093 C 
ATOM      6  C12 <0> d          -1.261  -4.787   1.328  0.00  0.00    -0.006 A 
ATOM      7  C13 <0> d          -1.753  -6.101   1.399  0.00  0.00     0.002 A 
ATOM      8  C14 <0> d          -1.847  -6.908   0.249  0.00  0.00     0.016 A 
ATOM      9  C15 <0> d          -2.337  -8.175   0.389  0.00  0.00     0.020 A 
ATOM     10  C16 <0> d          -2.727  -8.635   1.645  0.00  0.00     0.117 A 
ATOM     11  N1  <0> d          -2.635  -7.881   2.714  0.00  0.00    -0.260 NA
ATOM     12  C17 <0> d          -2.163  -6.633   2.647  0.00  0.00     0.067 A 
ATOM     13  C18 <0> d          -2.066  -5.833   3.800  0.00  0.00     0.035 A 
ATOM     14  C19 <0> d          -1.591  -4.564   3.708  0.00  0.00     0.032 A 
ATOM     15  C20 <0> d          -1.189  -4.030   2.476  0.00  0.00     0.040 A 
ATOM     16  N2  <0> d          -0.720  -2.718   2.406  0.00  0.00    -0.358 N 
ATOM     17  C27 <0> d          -0.793  -2.025  -1.179  0.00  0.00     0.159 C 
ATOM     18  O2  <0> d          -0.841  -2.656  -2.216  0.00  0.00    -0.293 OA
ATOM     19  C28 <0> d          -0.747  -0.522  -1.230  0.00  0.00     0.093 C 
ATOM     20  H15 <0> d          -0.382  -2.283   3.204  0.00  0.00     0.166 HD
ENDROOT
BRANCH   5  21
ATOM     21  C21 <0> d           0.553  -4.741  -0.319  0.00  0.00    -0.045 A 
ATOM     22  C26 <0> d           0.747  -5.511  -1.450  0.00  0.00     0.011 A 
ATOM     23  C25 <0> d           2.007  -5.990  -1.754  0.00  0.00     0.037 A 
ATOM     24  C24 <0> d           3.077  -5.699  -0.921  0.00  0.00     0.065 A 
ATOM     25  C23 <0> d           2.880  -4.926   0.214  0.00  0.00     0.037 A 
ATOM     26  C22 <0> d           1.620  -4.444   0.510  0.00  0.00     0.011 A 
BRANCH  24  27
ATOM     27  O1  <0> d           4.318  -6.169  -1.218  0.00  0.00    -0.361 OA
ATOM     28  H20 <0> d           4.841  -5.574  -1.772  0.00  0.00     0.217 HD
ENDBRANCH  24  27
ENDBRANCH   5  21
BRANCH   1  29
ATOM     29  C4  <0> d          -0.018   1.503   0.010  0.00  0.00    -0.053 A 
ATOM     30  C3  <0> d           1.169   2.210   0.003  0.00  0.00     0.007 A 
ATOM     31  C2  <0> d           1.151   3.592   0.010  0.00  0.00     0.001 A 
ATOM     32  C1  <0> d          -0.056   4.267   0.025  0.00  0.00     0.000 A 
ATOM     33  C6  <0> d          -1.244   3.560   0.032  0.00  0.00     0.001 A 
ATOM     34  C5  <0> d          -1.225   2.178   0.020  0.00  0.00     0.007 A 
ENDBRANCH   1  29
TORSDOF 3
