REMARK  6 active torsions:
REMARK  status: ('A' for Active; 'I' for Inactive)
REMARK    1  A    between atoms: C5_5  and  N1_7 
REMARK       I    between atoms: N1_7  and  C7_8 
REMARK    2  A    between atoms: C7_8  and  C8_10 
REMARK    3  A    between atoms: C8_10  and  O2_11 
REMARK    4  A    between atoms: O2_11  and  C9_12 
REMARK    5  A    between atoms: C9_12  and  C10_14 
REMARK    6  A    between atoms: C15_19  and  N2_20 
ROOT
ATOM      1  O2  <0> d           2.414   5.195   0.126  0.00  0.00    -0.308 OA
ENDROOT
BRANCH   1   2
ATOM      2  C8  <0> d           3.705   5.859   0.110  0.00  0.00     0.282 C 
BRANCH   2   3
ATOM      3  C7  <0> d           3.505   7.348   0.227  0.00  0.00     0.246 C 
ATOM      4  N1  <0> d           4.572   8.172   0.234  0.00  0.00    -0.324 N 
ATOM      5  H5  <0> d           5.461   7.816   0.082  0.00  0.00     0.169 HD
ATOM      6  O1  <0> d           2.385   7.805   0.316  0.00  0.00    -0.271 OA
BRANCH   4   7
ATOM      7  C5  <0> d           4.396   9.542   0.460  0.00  0.00     0.052 A 
ATOM      8  C4  <0> d           5.327  10.453  -0.023  0.00  0.00     0.037 A 
ATOM      9  C3  <0> d           5.150  11.805   0.202  0.00  0.00     0.021 A 
ATOM     10 Br2  <0> d           6.834   9.844  -0.989  0.00  0.00    -0.049 Br
ATOM     11  C2  <0> d           4.047  12.251   0.907  0.00  0.00     0.002 A 
ATOM     12  C1  <0> d           3.119  11.347   1.389  0.00  0.00     0.002 A 
ATOM     13  C6  <0> d           3.288   9.995   1.164  0.00  0.00     0.031 A 
ENDBRANCH   4   7
ENDBRANCH   2   3
ENDBRANCH   1   2
BRANCH   1  14
ATOM     14  C9  <0> d           2.416   3.851   0.028  0.00  0.00     0.296 C 
ATOM     15  O3  <0> d           3.468   3.250  -0.067  0.00  0.00    -0.259 OA
BRANCH  14  16
ATOM     16  C10 <0> d           1.143   3.110   0.038  0.00  0.00     0.067 A 
ATOM     17  C15 <0> d           1.143   1.706   0.048  0.00  0.00     0.042 A 
ATOM     18  C14 <0> d          -0.065   1.018   0.058  0.00  0.00     0.031 A 
ATOM     19  C13 <0> d          -1.256   1.714   0.051  0.00  0.00     0.021 A 
ATOM     20  C12 <0> d          -1.260   3.101   0.046  0.00  0.00     0.012 A 
ATOM     21  C11 <0> d          -0.073   3.800   0.037  0.00  0.00     0.039 A 
ATOM     22 Br1  <0> d          -2.903   4.037   0.044  0.00  0.00    -0.051 Br
BRANCH  17  23
ATOM     23  N2  <0> d           2.343   1.008   0.049  0.00  0.00    -0.398 N 
ATOM     24  H11 <0> d           2.378   0.103  -0.299  0.00  0.00     0.156 HD
ATOM     25  H12 <0> d           3.147   1.425   0.397  0.00  0.00     0.156 HD
ENDBRANCH  17  23
ENDBRANCH  14  16
ENDBRANCH   1  14
TORSDOF 6
