REMARK  9 active torsions:
REMARK  status: ('A' for Active; 'I' for Inactive)
REMARK    1  A    between atoms: C2_2  and  N1_3 
REMARK    2  A    between atoms: N1_3  and  C3_4 
REMARK    3  A    between atoms: N1_3  and  S1_9 
REMARK    4  A    between atoms: C3_4  and  C4_5 
REMARK    5  A    between atoms: C4_5  and  O2_7 
REMARK    6  A    between atoms: S1_9  and  C6_12 
REMARK    7  A    between atoms: C10_16  and  C12_18 
REMARK    8  A    between atoms: C13_19  and  C14_20 
REMARK    9  A    between atoms: C14_20  and  N2_21 
ROOT
ATOM      1  C6  <0> d          -2.898   0.520   2.058  0.00  0.00     0.081 A 
ATOM      2  C7  <0> d          -2.213   1.396   2.882  0.00  0.00     0.025 A 
ATOM      3  C8  <0> d          -2.838   2.531   3.366  0.00  0.00     0.003 A 
ATOM      4  C9  <0> d          -4.150   2.797   3.029  0.00  0.00     0.021 A 
ATOM      5  C10 <0> d          -4.845   1.918   2.198  0.00  0.00     0.019 A 
ATOM      6  C11 <0> d          -4.207   0.777   1.709  0.00  0.00     0.045 A 
ENDROOT
BRANCH   1   7
ATOM      7  S1  <0> d          -2.092  -0.923   1.446  0.00  0.00     0.261 S 
ATOM      8  O3  <0> d          -3.116  -1.857   1.133  0.00  0.00    -0.200 OA
ATOM      9  O4  <0> d          -1.043  -1.219   2.357  0.00  0.00    -0.200 OA
BRANCH   7  10
ATOM     10  N1  <0> d          -1.372  -0.511   0.012  0.00  0.00    -0.298 N 
BRANCH  10  11
ATOM     11  C2  <0> d           0.002  -0.004   0.002  0.00  0.00     0.131 C 
ATOM     12  C1  <0> d          -0.019   1.526   0.010  0.00  0.00     0.027 C 
ENDBRANCH  10  11
BRANCH  10  13
ATOM     13  C3  <0> d          -2.110  -0.654  -1.245  0.00  0.00     0.246 C 
BRANCH  13  14
ATOM     14  C4  <0> d          -1.778  -1.983  -1.874  0.00  0.00     0.277 C 
ATOM     15  O1  <0> d          -1.004  -2.733  -1.328  0.00  0.00    -0.263 OA
BRANCH  14  16
ATOM     16  O2  <0> d          -2.341  -2.333  -3.041  0.00  0.00    -0.325 OA
ATOM     17  C5  <0> d          -1.981  -3.606  -3.579  0.00  0.00     0.213 C 
ENDBRANCH  14  16
ENDBRANCH  13  14
ENDBRANCH  10  13
ENDBRANCH   7  10
ENDBRANCH   1   7
BRANCH   5  18
ATOM     18  C12 <0> d          -6.206   2.188   1.845  0.00  0.00    -0.065 C 
ATOM     19  C13 <0> d          -7.322   2.410   1.555  0.00  0.00    -0.074 C 
BRANCH  19  20
ATOM     20  C14 <0> d          -8.722   2.687   1.192  0.00  0.00     0.323 C 
BRANCH  20  21
ATOM     21  N2  <0> d          -9.221   1.619   0.315  0.00  0.00    -0.069 N 
ATOM     22  H17 <0> d          -8.658   1.580  -0.521  0.00  0.00     0.275 HD
ATOM     23  H18 <0> d          -9.168   0.735   0.798  0.00  0.00     0.275 HD
ATOM     24  H19 <0> d         -10.180   1.810   0.066  0.00  0.00     0.275 HD
ENDBRANCH  20  21
ENDBRANCH  19  20
ENDBRANCH   5  18
TORSDOF 9
