REMARK  2 active torsions:
REMARK  status: ('A' for Active; 'I' for Inactive)
REMARK    1  A    between atoms: C3_3  and  C6_7 
REMARK    2  A    between atoms: C6_7  and  N1_8 
ROOT
ATOM      1  N1  <0> d           4.319   1.472   2.373  0.00  0.00    -0.273 N 
ATOM      2  C7  <0> d           4.404   2.163   3.526  0.00  0.00     0.343 A 
ATOM      3  O2  <0> d           3.926   3.261   3.734  0.00  0.00    -0.245 OA
ATOM      4  N2  <0> d           5.109   1.428   4.410  0.00  0.00    -0.249 N 
ATOM      5  H2  <0> d           5.327   1.676   5.322  0.00  0.00     0.192 HD
ATOM      6  N3  <0> d           5.468   0.236   3.761  0.00  0.00    -0.272 N 
ATOM      7  C8  <0> d           4.960   0.297   2.513  0.00  0.00     0.197 A 
ATOM      8  S1  <0> d           5.110  -0.912   1.310  0.00  0.00    -0.039 SA
ATOM      9  H13 <0> d           5.981  -0.495   4.140  0.00  0.00     0.189 HD
ENDROOT
BRANCH   1  10
ATOM     10  C6  <0> d           3.632   1.925   1.161  0.00  0.00     0.143 C 
BRANCH  10  11
ATOM     11  C3  <0> d           2.171   1.471   1.203  0.00  0.00     0.028 C 
ATOM     12  C2  <0> d           1.421   2.049  -0.001  0.00  0.00     0.010 C 
ATOM     13  C1  <0> d          -0.019   1.527   0.010  0.00  0.00     0.027 C 
ATOM     14  C5  <0> d           0.002  -0.004   0.002  0.00  0.00     0.167 C 
ATOM     15  O1  <0> d           0.741  -0.475   1.131  0.00  0.00    -0.391 OA
ATOM     16  C4  <0> d           2.108  -0.057   1.149  0.00  0.00     0.173 C 
ENDBRANCH  10  11
ENDBRANCH   1  10
TORSDOF 2
