REMARK  2 active torsions:
REMARK  status: ('A' for Active; 'I' for Inactive)
REMARK    1  A    between atoms: C2_2  and  C3_3 
REMARK    2  A    between atoms: C3_3  and  N1_4 
ROOT
ATOM      1  N1  <0> d          -1.576   4.093  -1.166  0.00  0.00    -0.311 N 
ATOM      2  C4  <0> d          -1.364   4.458   0.152  0.00  0.00     0.047 A 
ATOM      3  C5  <0> d          -1.316   5.731   0.722  0.00  0.00     0.030 A 
ATOM      4  C6  <0> d          -1.083   5.807   2.086  0.00  0.00     0.002 A 
ATOM      5  C7  <0> d          -0.904   4.679   2.860  0.00  0.00     0.001 A 
ATOM      6  C8  <0> d          -0.951   3.405   2.305  0.00  0.00     0.013 A 
ATOM      7  C9  <0> d          -1.182   3.321   0.949  0.00  0.00     0.020 A 
ATOM      8  C10 <0> d          -1.294   2.146   0.032  0.00  0.00     0.277 A 
ATOM      9  C11 <0> d          -1.552   2.753  -1.330  0.00  0.00     0.272 A 
ATOM     10  O1  <0> d          -1.708   2.151  -2.371  0.00  0.00    -0.269 OA
ATOM     11  C12 <0> d          -0.016   1.350   0.009  0.00  0.00     0.068 A 
ATOM     12  C13 <0> d           0.002  -0.004   0.002  0.00  0.00    -0.018 A 
ATOM     13  C14 <0> d           1.389  -0.412  -0.011  0.00  0.00    -0.001 A 
ATOM     14  C15 <0> d           2.011  -1.665  -0.020  0.00  0.00     0.014 A 
ATOM     15  C16 <0> d           3.384  -1.676  -0.033  0.00  0.00     0.001 A 
ATOM     16  C17 <0> d           4.130  -0.508  -0.036  0.00  0.00     0.002 A 
ATOM     17  C18 <0> d           3.541   0.744  -0.026  0.00  0.00     0.030 A 
ATOM     18  C19 <0> d           2.148   0.786  -0.013  0.00  0.00     0.043 A 
ATOM     19  N2  <0> d           1.265   1.829  -0.000  0.00  0.00    -0.356 N 
ATOM     20  H1  <0> d           1.510   2.767   0.002  0.00  0.00     0.166 HD
ATOM     21  C20 <0> d          -1.246  -0.849   0.005  0.00  0.00     0.069 C 
ATOM     22  C21 <0> d          -2.430   0.043  -0.391  0.00  0.00     0.239 C 
ATOM     23  N3  <0> d          -2.419   1.278   0.422  0.00  0.00    -0.047 N 
ATOM     24  H19 <0> d          -3.301   1.784   0.280  0.00  0.00     0.279 HD
ATOM     25  H20 <0> d          -2.325   1.028   1.413  0.00  0.00     0.279 HD
ENDROOT
BRANCH   1  26
ATOM     26  C3  <0> d          -1.798   5.047  -2.255  0.00  0.00     0.158 C 
BRANCH  26  27
ATOM     27  C2  <0> d          -0.475   5.428  -2.868  0.00  0.00    -0.017 C 
ATOM     28  C1  <0> d          -0.282   5.280  -4.155  0.00  0.00     0.008 C 
ENDBRANCH  26  27
ENDBRANCH   1  26
TORSDOF 2
