REMARK  6 active torsions:
REMARK  status: ('A' for Active; 'I' for Inactive)
REMARK    1  A    between atoms: C5_5  and  C6_7 
REMARK    2  A    between atoms: C6_7  and  N1_8 
REMARK       I    between atoms: N1_8  and  C7_9 
REMARK    3  A    between atoms: C7_9  and  C8_11 
REMARK    4  A    between atoms: C11_14  and  C12_16 
REMARK    5  A    between atoms: C13_17  and  C14_18 
REMARK    6  A    between atoms: C14_18  and  N2_19 
ROOT
ATOM      1  C8  <0> d           3.108  -5.027  -3.046  0.00  0.00     0.073 A 
ATOM      2  C9  <0> d           3.920  -6.050  -3.517  0.00  0.00     0.026 A 
ATOM      3  C10 <0> d           4.052  -6.215  -4.866  0.00  0.00     0.029 A 
ATOM      4  C11 <0> d           3.370  -5.352  -5.713  0.00  0.00     0.059 A 
ATOM      5  S1  <0> d           2.516  -4.290  -4.560  0.00  0.00    -0.076 SA
ENDROOT
BRANCH   1   6
ATOM      6  C7  <0> d           2.810  -4.653  -1.662  0.00  0.00     0.258 C 
ATOM      7  N1  <0> d           1.983  -3.620  -1.407  0.00  0.00    -0.350 N 
ATOM      8  H8  <0> d           1.586  -3.124  -2.140  0.00  0.00     0.163 HD
ATOM      9  O2  <0> d           3.308  -5.275  -0.742  0.00  0.00    -0.267 OA
BRANCH   7  10
ATOM     10  C6  <0> d           1.684  -3.245  -0.023  0.00  0.00     0.187 C 
BRANCH  10  11
ATOM     11  C5  <0> d           0.742  -2.069  -0.013  0.00  0.00     0.071 A 
ATOM     12  C4  <0> d          -0.601  -2.136  -0.007  0.00  0.00     0.037 A 
ATOM     13  C3  <0> d          -1.078  -0.805   0.003  0.00  0.00     0.035 A 
ATOM     14  C2  <0> d           0.002  -0.004   0.002  0.00  0.00     0.049 A 
ATOM     15  C1  <0> d          -0.018   1.503   0.010  0.00  0.00     0.076 C 
ATOM     16  O1  <0> d           1.102  -0.775  -0.013  0.00  0.00    -0.318 OA
ENDBRANCH  10  11
ENDBRANCH   7  10
ENDBRANCH   1   6
BRANCH   4  17
ATOM     17  C12 <0> d           3.351  -5.326  -7.145  0.00  0.00    -0.058 C 
ATOM     18  C13 <0> d           3.336  -5.304  -8.319  0.00  0.00    -0.071 C 
BRANCH  18  19
ATOM     19  C14 <0> d           3.316  -5.277  -9.790  0.00  0.00     0.360 C 
BRANCH  19  20
ATOM     20  N2  <0> d           2.450  -4.182 -10.248  0.00  0.00     0.089 N 
ATOM     21  H13 <0> d           2.420  -4.142 -11.256  0.00  0.00     0.313 HD
ATOM     22  H14 <0> d           1.522  -4.270  -9.862  0.00  0.00     0.313 HD
ENDBRANCH  19  20
ENDBRANCH  18  19
ENDBRANCH   4  17
TORSDOF 6
