REMARK  4 active torsions:
REMARK  status: ('A' for Active; 'I' for Inactive)
REMARK    1  A    between atoms: C4_4  and  C7_7 
REMARK    2  A    between atoms: C7_7  and  C8_8 
REMARK    3  A    between atoms: C7_7  and  C14_14 
REMARK    4  A    between atoms: C14_14  and  C18_18 
ROOT
ATOM      1  C7  <0> d          -0.149   2.900   1.746  0.00  0.00     0.098 C 
ENDROOT
BRANCH   1   2
ATOM      2  C4  <0> d          -0.879   3.432   2.952  0.00  0.00    -0.047 A 
ATOM      3  C3  <0> d          -0.265   3.423   4.191  0.00  0.00     0.008 A 
ATOM      4  C2  <0> d          -0.935   3.911   5.297  0.00  0.00     0.001 A 
ATOM      5  C1  <0> d          -2.217   4.409   5.165  0.00  0.00     0.000 A 
ATOM      6  C6  <0> d          -2.830   4.419   3.926  0.00  0.00     0.001 A 
ATOM      7  C5  <0> d          -2.160   3.935   2.819  0.00  0.00     0.008 A 
ENDBRANCH   1   2
BRANCH   1   8
ATOM      8  C8  <0> d           0.164   4.036   0.806  0.00  0.00    -0.047 A 
ATOM      9  C13 <0> d           1.471   4.281   0.430  0.00  0.00     0.008 A 
ATOM     10  C12 <0> d           1.759   5.323  -0.431  0.00  0.00     0.001 A 
ATOM     11  C11 <0> d           0.739   6.120  -0.917  0.00  0.00     0.000 A 
ATOM     12  C10 <0> d          -0.569   5.874  -0.542  0.00  0.00     0.001 A 
ATOM     13  C9  <0> d          -0.857   4.829   0.317  0.00  0.00     0.008 A 
ENDBRANCH   1   8
BRANCH   1  14
ATOM     14  C14 <0> d          -1.029   1.873   1.029  0.00  0.00     0.224 C 
ATOM     15  C15 <0> d          -0.290   1.322  -0.208  0.00  0.00     0.053 C 
ATOM     16  C16 <0> d          -0.857   2.180  -1.370  0.00  0.00     0.030 C 
ATOM     17  C17 <0> d          -2.329   2.372  -0.928  0.00  0.00     0.234 C 
ATOM     18  N1  <0> d          -2.262   2.518   0.538  0.00  0.00    -0.055 N 
ATOM     19  H18 <0> d          -2.250   3.515   0.784  0.00  0.00     0.278 HD
ATOM     20  H19 <0> d          -3.080   2.070   0.967  0.00  0.00     0.278 HD
BRANCH  14  21
ATOM     21  C18 <0> d          -1.372   0.745   1.967  0.00  0.00     0.211 C 
ATOM     22  O1  <0> d          -0.643   0.487   2.895  0.00  0.00    -0.646 OA
ATOM     23  O2  <0> d          -2.489   0.025   1.770  0.00  0.00    -0.646 OA
ENDBRANCH  14  21
ENDBRANCH   1  14
TORSDOF 4
