REMARK  4 active torsions:
REMARK  status: ('A' for Active; 'I' for Inactive)
REMARK    1  A    between atoms: C2_2  and  N5_31 
REMARK    2  A    between atoms: C9_9  and  C16_20 
REMARK    3  A    between atoms: C11_11  and  N2_15 
REMARK    4  A    between atoms: C21_25  and  C22_26 
ROOT
ATOM      1  C4  <0> d          -2.080   0.970   3.557  0.00  0.00     0.263 C 
ATOM      2  C5  <0> d          -2.799   0.850   2.236  0.00  0.00     0.005 C 
ATOM      3  C6  <0> d          -2.198   1.215   1.119  0.00  0.00    -0.052 C 
ATOM      4  C7  <0> d          -0.819   1.810   1.087  0.00  0.00     0.053 C 
ATOM      5  C8  <0> d          -0.115   1.789   2.426  0.00  0.00     0.245 C 
ATOM      6  C9  <0> d          -0.013   1.086   0.008  0.00  0.00     0.072 C 
ATOM      7  C10 <0> d          -0.662   1.338  -1.353  0.00  0.00     0.186 C 
ATOM      8  C11 <0> d          -2.134   1.040  -1.327  0.00  0.00     0.063 C 
ATOM      9  C12 <0> d          -2.868   0.990  -0.186  0.00  0.00     0.171 C 
ATOM     10  C13 <0> d          -4.274   0.723  -0.242  0.00  0.00     0.074 C 
ATOM     11  N1  <0> d          -5.389   0.512  -0.286  0.00  0.00    -0.196 NA
ATOM     12  C14 <0> d          -0.014   0.482  -2.360  0.00  0.00     0.091 C 
ATOM     13  N3  <0> d           0.486  -0.179  -3.137  0.00  0.00    -0.195 NA
ATOM     14  C15 <0> d          -0.464   2.748  -1.726  0.00  0.00     0.091 C 
ATOM     15  N4  <0> d          -0.311   3.836  -2.013  0.00  0.00    -0.195 NA
ATOM     16  N5  <0> d          -0.645   0.726   3.294  0.00  0.00    -0.064 N 
ATOM     17  H21 <0> d          -0.539  -0.178   2.820  0.00  0.00     0.280 HD
ENDROOT
BRANCH   8  18
ATOM     18  N2  <0> d          -2.767   0.808  -2.515  0.00  0.00    -0.304 NA
ATOM     19  H15 <0> d          -3.717   0.613  -2.529  0.00  0.00     0.186 HD
ENDBRANCH   8  18
BRANCH   6  20
ATOM     20  C16 <0> d           1.400   1.610  -0.003  0.00  0.00    -0.035 A 
ATOM     21  C21 <0> d           2.463   0.732   0.097  0.00  0.00     0.054 A 
ATOM     22  C20 <0> d           3.760   1.212   0.083  0.00  0.00     0.017 A 
ATOM     23  C19 <0> d           3.993   2.571  -0.022  0.00  0.00     0.001 A 
ATOM     24  C18 <0> d           2.929   3.449  -0.116  0.00  0.00     0.001 A 
ATOM     25  C17 <0> d           1.633   2.969  -0.106  0.00  0.00     0.008 A 
BRANCH  21  26
ATOM     26  C22 <0> d           2.210  -0.749   0.216  0.00  0.00     0.418 C 
ATOM     27  F1  <0> d           3.431  -1.426   0.303  0.00  0.00    -0.166 F 
ATOM     28  F2  <0> d           1.454  -1.001   1.367  0.00  0.00    -0.166 F 
ATOM     29  F3  <0> d           1.508  -1.194  -0.909  0.00  0.00    -0.166 F 
ENDBRANCH  21  26
ENDBRANCH   6  20
BRANCH  16  30
ATOM     30  C2  <0> d           0.106   0.691   4.569  0.00  0.00     0.180 C 
ATOM     31  C1  <0> d          -0.039   2.023   5.307  0.00  0.00     0.039 C 
ATOM     32  C3  <0> d          -0.445  -0.438   5.442  0.00  0.00     0.039 C 
ENDBRANCH  16  30
TORSDOF 4
