REMARK  3 active torsions:
REMARK  status: ('A' for Active; 'I' for Inactive)
REMARK    1  A    between atoms: C8_10  and  C9_11 
REMARK    2  A    between atoms: C9_11  and  C10_12 
REMARK    3  A    between atoms: C9_11  and  N4_18 
ROOT
ATOM      1  C1  <0> d           2.459  -2.562   5.810  0.00  0.00     0.048 C 
ATOM      2  C2  <0> d           1.759  -2.003   4.598  0.00  0.00    -0.057 A 
ATOM      3  C3  <0> d           2.493  -1.688   3.442  0.00  0.00     0.024 A 
ATOM      4  C4  <0> d           1.869  -1.188   2.355  0.00  0.00     0.099 A 
ATOM      5  N1  <0> d           0.520  -0.981   2.362  0.00  0.00    -0.308 N 
ATOM      6  C5  <0> d          -0.222  -1.278   3.475  0.00  0.00     0.112 A 
ATOM      7  C6  <0> d           0.414  -1.801   4.618  0.00  0.00     0.056 A 
ATOM      8  N2  <0> d          -1.488  -0.984   3.214  0.00  0.00    -0.344 N 
ATOM      9  C7  <0> d          -1.579  -0.502   1.972  0.00  0.00     0.032 A 
ATOM     10  C8  <0> d          -0.346  -0.496   1.420  0.00  0.00     0.077 A 
ATOM     11  C15 <0> d          -2.847  -0.045   1.297  0.00  0.00     0.070 C 
ATOM     12  H17 <0> d          -2.261  -1.151   3.979  0.00  0.00     0.167 HD
ENDROOT
BRANCH  10  13
ATOM     13  C9  <0> d           0.009  -0.036   0.030  0.00  0.00     0.302 C 
BRANCH  13  14
ATOM     14  C10 <0> d           0.292  -1.234  -0.839  0.00  0.00    -0.017 A 
ATOM     15  C14 <0> d          -0.702  -1.785  -1.634  0.00  0.00     0.029 A 
ATOM     16  C13 <0> d          -0.406  -2.883  -2.418  0.00  0.00     0.116 A 
ATOM     17  N3  <0> d           0.804  -3.407  -2.417  0.00  0.00    -0.273 NA
ATOM     18  C12 <0> d           1.774  -2.910  -1.674  0.00  0.00     0.116 A 
ATOM     19  C11 <0> d           1.553  -1.809  -0.868  0.00  0.00     0.029 A 
ENDBRANCH  13  14
BRANCH  13  20
ATOM     20  N4  <0> d           1.202   0.820   0.087  0.00  0.00     0.093 N 
ATOM     21  H12 <0> d           1.462   1.155  -0.928  0.00  0.00     0.314 HD
ATOM     22  H13 <0> d           0.996   1.694   0.722  0.00  0.00     0.314 HD
ENDBRANCH  13  20
ENDBRANCH  10  13
TORSDOF 3
