REMARK  4 active torsions:
REMARK  status: ('A' for Active; 'I' for Inactive)
REMARK    1  A    between atoms: C2_2  and  N1_3 
REMARK    2  A    between atoms: C3_4  and  C7_10 
REMARK       I    between atoms: C7_10  and  N3_12 
REMARK    3  A    between atoms: C9_14  and  C16_22 
REMARK       I    between atoms: C16_22  and  N5_24 
REMARK    4  A    between atoms: N5_24  and  C17_25 
ROOT
ATOM      1  C7  <0> d          -1.430  -0.662   2.780  0.00  0.00     0.273 C 
ATOM      2  O1  <0> d          -2.072  -1.012   3.752  0.00  0.00    -0.266 OA
ATOM      3  N3  <0> d          -0.181  -0.179   2.935  0.00  0.00    -0.345 N 
ATOM      4  C8  <0> d           0.776   0.222   1.877  0.00  0.00     0.141 C 
ATOM      5  C9  <0> d           1.460   1.492   2.430  0.00  0.00     0.106 C 
ATOM      6  C10 <0> d           1.307   1.387   3.957  0.00  0.00    -0.007 C 
ATOM      7  C11 <0> d           0.542   0.078   4.203  0.00  0.00     0.136 C 
ATOM      8  C12 <0> d           2.678   1.333   4.623  0.00  0.00     0.039 C 
ATOM      9  C13 <0> d           2.501   1.287   6.143  0.00  0.00     0.233 C 
ATOM     10  N4  <0> d           1.766   2.478   6.588  0.00  0.00    -0.075 N 
ATOM     11  C14 <0> d           0.414   2.474   6.015  0.00  0.00     0.233 C 
ATOM     12  C15 <0> d           0.503   2.569   4.489  0.00  0.00     0.039 C 
ATOM     13  H19 <0> d           1.703   2.476   7.595  0.00  0.00     0.277 HD
ATOM     14  H37 <0> d           2.255   3.306   6.285  0.00  0.00     0.277 HD
ENDROOT
BRANCH   5  15
ATOM     15  C16 <0> d           0.768   2.728   1.914  0.00  0.00     0.224 C 
ATOM     16  O2  <0> d          -0.431   2.720   1.734  0.00  0.00    -0.273 OA
ATOM     17  N5  <0> d           1.482   3.841   1.654  0.00  0.00    -0.354 N 
ATOM     18  H24 <0> d           2.449   3.826   1.733  0.00  0.00     0.162 HD
BRANCH  17  19
ATOM     19  C17 <0> d           0.798   5.072   1.251  0.00  0.00     0.114 C 
ATOM     20  C21 <0> d           1.727   5.908   0.361  0.00  0.00     0.013 C 
ATOM     21  C20 <0> d           2.977   6.274   1.178  0.00  0.00     0.034 C 
ATOM     22  C22 <0> d           0.999   7.206  -0.014  0.00  0.00     0.034 C 
ATOM     23  C19 <0> d           2.544   7.050   2.423  0.00  0.00     0.235 C 
ATOM     24  N6  <0> d           1.087   7.199   2.442  0.00  0.00    -0.069 N 
ATOM     25  C18 <0> d           0.436   5.887   2.495  0.00  0.00     0.260 C 
ATOM     26  C23 <0> d           0.630   7.954   1.273  0.00  0.00     0.235 C 
ATOM     27  H36 <0> d           0.836   7.713   3.272  0.00  0.00     0.280 HD
ENDBRANCH  17  19
ENDBRANCH   5  15
BRANCH   1  28
ATOM     28  C3  <0> d          -2.016  -0.766   1.435  0.00  0.00     0.140 A 
ATOM     29  N1  <0> d          -1.918  -1.825   0.576  0.00  0.00    -0.263 N 
ATOM     30  N2  <0> d          -2.552  -1.560  -0.509  0.00  0.00    -0.176 NA
ATOM     31  C5  <0> d          -3.098  -0.372  -0.455  0.00  0.00     0.070 A 
ATOM     32  C4  <0> d          -2.779   0.190   0.784  0.00  0.00     0.070 A 
ATOM     33  C6  <0> d          -3.919   0.277  -1.539  0.00  0.00     0.074 C 
ATOM     34 Br1  <0> d          -3.282   1.893   1.435  0.00  0.00    -0.046 Br
BRANCH  29  35
ATOM     35  C2  <0> d          -1.196  -3.070   0.850  0.00  0.00     0.147 C 
ATOM     36  C1  <0> d           0.275  -2.901   0.463  0.00  0.00     0.028 C 
ENDBRANCH  29  35
ENDBRANCH   1  28
TORSDOF 4
