REMARK  4 active torsions:
REMARK  status: ('A' for Active; 'I' for Inactive)
REMARK    1  A    between atoms: S1_2  and  C2_5 
REMARK    2  A    between atoms: C5_8  and  N1_12 
REMARK       I    between atoms: N1_12  and  C8_13 
REMARK    3  A    between atoms: C8_13  and  C9_15 
REMARK    4  A    between atoms: C12_18  and  C14_23 
ROOT
ATOM      1  N1  <0> d           2.859  -1.743  -4.930  0.00  0.00    -0.323 N 
ATOM      2  C8  <0> d           4.187  -1.525  -5.014  0.00  0.00     0.261 C 
ATOM      3  O3  <0> d           4.799  -1.118  -4.044  0.00  0.00    -0.267 OA
ATOM      4  H7  <0> d           2.387  -2.150  -5.673  0.00  0.00     0.169 HD
ENDROOT
BRANCH   2   5
ATOM      5  C9  <0> d           4.894  -1.778  -6.274  0.00  0.00     0.100 A 
ATOM      6  C13 <0> d           4.176  -1.859  -7.493  0.00  0.00     0.261 A 
ATOM      7  N2  <0> d           4.831  -2.085  -8.648  0.00  0.00    -0.320 N 
ATOM      8  O4  <0> d           2.966  -1.718  -7.497  0.00  0.00    -0.267 OA
ATOM      9  C12 <0> d           6.189  -2.252  -8.664  0.00  0.00     0.069 A 
ATOM     10  H1  <0> d           4.333  -2.135  -9.479  0.00  0.00     0.169 HD
ATOM     11  C11 <0> d           6.926  -2.185  -7.488  0.00  0.00     0.034 A 
ATOM     12  C10 <0> d           6.283  -1.947  -6.284  0.00  0.00     0.025 A 
BRANCH   9  13
ATOM     13  C14 <0> d           6.874  -2.504  -9.933  0.00  0.00     0.101 A 
ATOM     14  O5  <0> d           8.200  -2.686 -10.097  0.00  0.00    -0.321 OA
ATOM     15  C17 <0> d           8.464  -2.894 -11.394  0.00  0.00     0.142 A 
ATOM     16  C16 <0> d           7.306  -2.839 -12.088  0.00  0.00     0.027 A 
ATOM     17  C15 <0> d           6.281  -2.590 -11.163  0.00  0.00     0.041 A 
ENDBRANCH   9  13
ENDBRANCH   2   5
BRANCH   1  18
ATOM     18  C5  <0> d           2.163  -1.381  -3.772  0.00  0.00     0.041 A 
ATOM     19  C4  <0> d           0.841  -0.965  -3.857  0.00  0.00     0.073 A 
ATOM     20  C3  <0> d           0.154  -0.608  -2.711  0.00  0.00     0.143 A 
ATOM     21  C2  <0> d           0.784  -0.666  -1.479  0.00  0.00     0.135 A 
ATOM     22  F2  <0> d          -1.132  -0.204  -2.793  0.00  0.00    -0.204 F 
ATOM     23  C7  <0> d           2.104  -1.075  -1.392  0.00  0.00     0.143 A 
ATOM     24  C6  <0> d           2.793  -1.438  -2.536  0.00  0.00     0.073 A 
ATOM     25  F1  <0> d           2.718  -1.125  -0.190  0.00  0.00    -0.204 F 
BRANCH  21  26
ATOM     26  S1  <0> d          -0.094  -0.211  -0.020  0.00  0.00     0.177 S 
ATOM     27  C1  <0> d           0.202   1.569   0.166  0.00  0.00     0.167 C 
ATOM     28  O1  <0> d           0.548  -0.926   1.027  0.00  0.00    -0.223 OA
ATOM     29  O2  <0> d          -1.460  -0.451  -0.329  0.00  0.00    -0.223 OA
ENDBRANCH  21  26
ENDBRANCH   1  18
TORSDOF 4
