REMARK  5 active torsions:
REMARK  status: ('A' for Active; 'I' for Inactive)
REMARK    1  A    between atoms: N1_6  and  C6_7 
REMARK    2  A    between atoms: C7_8  and  C10_13 
REMARK       I    between atoms: C10_13  and  N4_15 
REMARK    3  A    between atoms: N4_15  and  C11_16 
REMARK    4  A    between atoms: C11_16  and  C12_17 
REMARK    5  A    between atoms: C12_17  and  N5_18 
ROOT
ATOM      1  C6  <0> d           0.031  -0.380   2.426  0.00  0.00     0.148 A 
ATOM      2  C7  <0> d           1.153  -0.104   3.198  0.00  0.00     0.097 A 
ATOM      3  C8  <0> d           0.691   0.302   4.471  0.00  0.00     0.160 A 
ATOM      4  N2  <0> d          -0.612   0.271   4.459  0.00  0.00    -0.182 NA
ATOM      5  N3  <0> d          -1.050  -0.146   3.197  0.00  0.00    -0.257 N 
ATOM      6  C9  <0> d          -2.446  -0.303   2.784  0.00  0.00     0.182 C 
ENDROOT
BRANCH   2   7
ATOM      7  C10 <0> d           2.556  -0.213   2.771  0.00  0.00     0.257 C 
ATOM      8  O1  <0> d           2.821  -0.577   1.641  0.00  0.00    -0.267 OA
ATOM      9  N4  <0> d           3.548   0.090   3.632  0.00  0.00    -0.355 N 
ATOM     10  H10 <0> d           3.336   0.380   4.533  0.00  0.00     0.162 HD
BRANCH   9  11
ATOM     11  C11 <0> d           4.945  -0.019   3.207  0.00  0.00     0.143 C 
BRANCH  11  12
ATOM     12  C12 <0> d           5.863   0.379   4.365  0.00  0.00     0.149 C 
BRANCH  12  13
ATOM     13  N5  <0> d           7.261   0.270   3.940  0.00  0.00    -0.350 N 
ATOM     14  C15 <0> d           8.003   1.244   3.369  0.00  0.00     0.182 A 
ATOM     15  N6  <0> d           9.198   0.775   3.134  0.00  0.00    -0.361 N 
ATOM     16  C14 <0> d           9.258  -0.504   3.534  0.00  0.00     0.106 A 
ATOM     17  H21 <0> d           9.927   1.272   2.730  0.00  0.00     0.166 HD
ATOM     18  C13 <0> d           8.056  -0.839   4.041  0.00  0.00     0.108 A 
ENDBRANCH  12  13
ENDBRANCH  11  12
ENDBRANCH   9  11
ENDBRANCH   2   7
BRANCH   1  19
ATOM     19  N1  <0> d           0.024  -0.812   1.105  0.00  0.00    -0.304 N 
ATOM     20  C2  <0> d           0.002  -0.004   0.002  0.00  0.00     0.014 A 
ATOM     21  C1  <0> d          -0.018   1.503   0.010  0.00  0.00     0.068 C 
ATOM     22  C3  <0> d           0.008  -0.788  -1.094  0.00  0.00     0.027 A 
ATOM     23  C4  <0> d           0.028  -2.129  -0.656  0.00  0.00     0.027 A 
ATOM     24  C5  <0> d           0.034  -2.115   0.692  0.00  0.00     0.014 A 
ATOM     25  C16 <0> d           0.054  -3.326   1.588  0.00  0.00     0.068 C 
ENDBRANCH   1  19
TORSDOF 5
