REMARK  5 active torsions:
REMARK  status: ('A' for Active; 'I' for Inactive)
REMARK    1  A    between atoms: C2_2  and  C3_3 
REMARK    2  A    between atoms: C2_2  and  N1_10 
REMARK    3  A    between atoms: C6_6  and  O1_9 
REMARK    4  A    between atoms: N1_10  and  S1_12 
REMARK    5  A    between atoms: S1_12  and  C10_15 
ROOT
ATOM      1  N1  <0> d           0.811  -0.434   1.209  0.00  0.00    -0.302 N 
ATOM      2  C9  <0> d           0.385  -0.099   2.570  0.00  0.00     0.163 C 
ENDROOT
BRANCH   1   3
ATOM      3  C2  <0> d          -0.076  -0.158   0.075  0.00  0.00     0.124 C 
ATOM      4  C1  <0> d          -0.494   1.313   0.101  0.00  0.00     0.038 C 
BRANCH   3   5
ATOM      5  C3  <0> d          -1.301  -1.031   0.172  0.00  0.00    -0.035 A 
ATOM      6  C8  <0> d          -2.068  -1.018   1.323  0.00  0.00     0.012 A 
ATOM      7  C7  <0> d          -3.195  -1.812   1.412  0.00  0.00     0.037 A 
ATOM      8  C6  <0> d          -3.550  -2.632   0.350  0.00  0.00     0.065 A 
ATOM      9  C5  <0> d          -2.775  -2.647  -0.800  0.00  0.00     0.037 A 
ATOM     10  C4  <0> d          -1.652  -1.847  -0.887  0.00  0.00     0.012 A 
BRANCH   8  11
ATOM     11  O1  <0> d          -4.655  -3.418   0.438  0.00  0.00    -0.361 OA
ATOM     12  H9  <0> d          -4.484  -4.297   0.802  0.00  0.00     0.217 HD
ENDBRANCH   8  11
ENDBRANCH   3   5
ENDBRANCH   1   3
BRANCH   1  13
ATOM     13  S1  <0> d           2.294  -1.123   0.951  0.00  0.00     0.261 S 
ATOM     14  O2  <0> d           2.661  -1.764   2.165  0.00  0.00    -0.200 OA
ATOM     15  O3  <0> d           2.208  -1.822  -0.283  0.00  0.00    -0.200 OA
BRANCH  13  16
ATOM     16  C10 <0> d           3.444   0.190   0.708  0.00  0.00     0.082 A 
ATOM     17  C15 <0> d           4.112   0.733   1.789  0.00  0.00     0.067 A 
ATOM     18  C14 <0> d           5.019   1.761   1.596  0.00  0.00     0.117 A 
ATOM     19  C13 <0> d           5.248   2.251   0.322  0.00  0.00     0.042 A 
ATOM     20  F1  <0> d           5.678   2.288   2.652  0.00  0.00    -0.206 F 
ATOM     21  C12 <0> d           4.574   1.711  -0.757  0.00  0.00     0.005 A 
ATOM     22  C11 <0> d           3.673   0.681  -0.565  0.00  0.00     0.025 A 
ENDBRANCH  13  16
ENDBRANCH   1  13
TORSDOF 5
