REMARK  4 active torsions:
REMARK  status: ('A' for Active; 'I' for Inactive)
REMARK    1  A    between atoms: C3_4  and  C5_7 
REMARK    2  A    between atoms: C5_7  and  N2_8 
REMARK    3  A    between atoms: N2_8  and  C6_9 
REMARK    4  A    between atoms: C12_16  and  O2_18 
ROOT
ATOM      1  C6  <0> d          -3.584  -4.249   1.375  0.00  0.00     0.246 C 
ATOM      2  C7  <0> d          -3.131  -5.673   0.978  0.00  0.00     0.213 C 
ATOM      3  O1  <0> d          -2.856  -6.287   2.249  0.00  0.00    -0.348 OA
ATOM      4  C8  <0> d          -3.627  -5.701   3.207  0.00  0.00     0.080 A 
ATOM      5  C9  <0> d          -4.106  -4.466   2.783  0.00  0.00     0.008 A 
ATOM      6  C10 <0> d          -4.899  -3.695   3.603  0.00  0.00     0.015 A 
ATOM      7  C11 <0> d          -5.237  -4.149   4.865  0.00  0.00     0.037 A 
ATOM      8  C12 <0> d          -4.773  -5.382   5.300  0.00  0.00     0.068 A 
ATOM      9  C13 <0> d          -3.971  -6.157   4.475  0.00  0.00     0.073 A 
ENDROOT
BRANCH   1  10
ATOM     10  N2  <0> d          -2.448  -3.317   1.375  0.00  0.00    -0.059 N 
ATOM     11  H8  <0> d          -1.691  -3.709   1.915  0.00  0.00     0.278 HD
ATOM     12  H15 <0> d          -2.733  -2.439   1.783  0.00  0.00     0.278 HD
BRANCH  10  13
ATOM     13  C5  <0> d          -1.999  -3.093  -0.006  0.00  0.00     0.292 C 
BRANCH  13  14
ATOM     14  C3  <0> d          -0.834  -2.137  -0.006  0.00  0.00     0.067 A 
ATOM     15  N1  <0> d          -1.013  -0.832   0.002  0.00  0.00    -0.249 NA
ATOM     16  C2  <0> d           0.002  -0.004   0.002  0.00  0.00     0.071 A 
ATOM     17  C1  <0> d          -0.018   1.503   0.010  0.00  0.00     0.078 C 
ATOM     18  S1  <0> d           1.335  -1.032  -0.017  0.00  0.00    -0.085 SA
ATOM     19  C4  <0> d           0.449  -2.582  -0.014  0.00  0.00     0.080 A 
ENDBRANCH  13  14
ENDBRANCH  10  13
ENDBRANCH   1  10
BRANCH   8  20
ATOM     20  O2  <0> d          -5.106  -5.832   6.538  0.00  0.00    -0.361 OA
ATOM     21  H14 <0> d          -5.921  -6.351   6.562  0.00  0.00     0.217 HD
ENDBRANCH   8  20
TORSDOF 4
