REMARK  4 active torsions:
REMARK  status: ('A' for Active; 'I' for Inactive)
REMARK    1  A    between atoms: C6_7  and  N3_17 
REMARK    2  A    between atoms: C7_9  and  C8_11 
REMARK    3  A    between atoms: C8_11  and  N4_27 
REMARK    4  A    between atoms: N3_17  and  C13_18 
ROOT
ATOM      1  C1  <0> d           0.057  -0.003  -0.028  0.00  0.00     0.050 C 
ATOM      2  C2  <0> d           0.031   1.504  -0.017  0.00  0.00    -0.032 A 
ATOM      3  C3  <0> d           1.140   2.203  -0.300  0.00  0.00    -0.012 A 
ATOM      4  S1  <0> d           0.609   3.900  -0.159  0.00  0.00    -0.074 SA
ATOM      5  C4  <0> d          -1.087   3.623   0.276  0.00  0.00     0.114 A 
ATOM      6  C5  <0> d          -1.196   2.215   0.294  0.00  0.00     0.052 A 
ATOM      7  C6  <0> d          -2.482   1.708   0.628  0.00  0.00     0.139 A 
ATOM      8  N1  <0> d          -3.465   2.557   0.882  0.00  0.00    -0.213 NA
ATOM      9  C7  <0> d          -3.291   3.866   0.842  0.00  0.00     0.155 A 
ATOM     10  N2  <0> d          -2.121   4.396   0.543  0.00  0.00    -0.224 NA
ATOM     11  C17 <0> d           2.508   1.680  -0.653  0.00  0.00     0.057 C 
ENDROOT
BRANCH   7  12
ATOM     12  N3  <0> d          -2.704   0.344   0.681  0.00  0.00    -0.368 N 
ATOM     13  H15 <0> d          -1.963  -0.273   0.575  0.00  0.00     0.161 HD
BRANCH  12  14
ATOM     14  C13 <0> d          -4.059  -0.170   0.898  0.00  0.00     0.098 C 
ATOM     15  C16 <0> d          -4.806  -0.239  -0.456  0.00  0.00     0.165 C 
ATOM     16  S2  <0> d          -5.923  -1.681  -0.228  0.00  0.00     0.146 S 
ATOM     17  C15 <0> d          -5.394  -2.215   1.454  0.00  0.00     0.142 C 
ATOM     18  O2  <0> d          -5.572  -2.691  -1.165  0.00  0.00    -0.228 OA
ATOM     19  O3  <0> d          -7.266  -1.222  -0.166  0.00  0.00    -0.228 OA
ATOM     20  C14 <0> d          -3.980  -1.571   1.525  0.00  0.00     0.041 C 
ENDBRANCH  12  14
ENDBRANCH   7  12
BRANCH   9  21
ATOM     21  C8  <0> d          -4.457   4.773   1.142  0.00  0.00     0.315 C 
BRANCH  21  22
ATOM     22  N4  <0> d          -5.185   5.048  -0.116  0.00  0.00    -0.060 N 
ATOM     23  C9  <0> d          -4.348   5.870  -1.015  0.00  0.00     0.261 C 
ATOM     24  C10 <0> d          -5.115   6.106  -2.319  0.00  0.00     0.195 C 
ATOM     25  O1  <0> d          -6.362   6.742  -2.025  0.00  0.00    -0.388 OA
ATOM     26  C11 <0> d          -7.196   5.992  -1.138  0.00  0.00     0.195 C 
ATOM     27  C12 <0> d          -6.450   5.754   0.178  0.00  0.00     0.261 C 
ATOM     28  H25 <0> d          -5.399   4.158  -0.579  0.00  0.00     0.280 HD
ENDBRANCH  21  22
ENDBRANCH   9  21
TORSDOF 4
