REMARK  8 active torsions:
REMARK  status: ('A' for Active; 'I' for Inactive)
REMARK    1  A    between atoms: N1_2  and  C3_4 
REMARK    2  A    between atoms: C3_4  and  C4_5 
REMARK    3  A    between atoms: C4_5  and  C5_6 
REMARK    4  A    between atoms: C5_6  and  C6_7 
REMARK    5  A    between atoms: C6_7  and  N2_8 
REMARK    6  A    between atoms: N2_8  and  S1_9 
REMARK    7  A    between atoms: S1_9  and  C7_12 
REMARK    8  A    between atoms: C11_17  and  N4_18 
ROOT
ATOM      1  S1  <0> d          -6.782  -0.063  -3.580  0.00  0.00     0.262 S 
ATOM      2  O1  <0> d          -8.075  -0.601  -3.339  0.00  0.00    -0.200 OA
ATOM      3  O2  <0> d          -6.502   1.325  -3.469  0.00  0.00    -0.200 OA
ENDROOT
BRANCH   1   4
ATOM      4  N2  <0> d          -5.746  -0.840  -2.548  0.00  0.00    -0.315 N 
ATOM      5  H15 <0> d          -6.087  -1.502  -1.926  0.00  0.00     0.172 HD
BRANCH   4   6
ATOM      6  C6  <0> d          -4.315  -0.527  -2.574  0.00  0.00     0.132 C 
BRANCH   6   7
ATOM      7  C5  <0> d          -3.652  -1.069  -1.306  0.00  0.00     0.022 C 
BRANCH   7   8
ATOM      8  C4  <0> d          -2.157  -0.742  -1.333  0.00  0.00     0.029 C 
BRANCH   8   9
ATOM      9  C3  <0> d          -1.494  -1.285  -0.065  0.00  0.00     0.234 C 
BRANCH   9  10
ATOM     10  N1  <0> d          -0.059  -0.971  -0.091  0.00  0.00    -0.079 N 
ATOM     11  C1  <0> d           0.125   0.485  -0.033  0.00  0.00     0.269 C 
ATOM     12  C2  <0> d           0.599  -1.594   1.065  0.00  0.00     0.269 C 
ATOM     13  H20 <0> d           0.348  -1.327  -0.943  0.00  0.00     0.278 HD
ENDBRANCH   9  10
ENDBRANCH   8   9
ENDBRANCH   7   8
ENDBRANCH   6   7
ENDBRANCH   4   6
ENDBRANCH   1   4
BRANCH   1  14
ATOM     14  C7  <0> d          -6.338  -0.537  -5.218  0.00  0.00     0.126 A 
ATOM     15  C11 <0> d          -6.453  -1.862  -5.625  0.00  0.00     0.144 A 
ATOM     16  N3  <0> d          -6.126  -2.221  -6.856  0.00  0.00    -0.241 NA
ATOM     17  C10 <0> d          -5.670  -1.347  -7.734  0.00  0.00     0.138 A 
ATOM     18  C9  <0> d          -5.525  -0.015  -7.396  0.00  0.00     0.030 A 
ATOM     19  C8  <0> d          -5.864   0.403  -6.116  0.00  0.00     0.050 A 
ATOM     20 Br1  <0> d          -4.872   1.226  -8.665  0.00  0.00    -0.050 Br
BRANCH  15  21
ATOM     21  N4  <0> d          -6.922  -2.818  -4.731  0.00  0.00    -0.383 N 
ATOM     22  H18 <0> d          -7.081  -2.579  -3.804  0.00  0.00     0.157 HD
ATOM     23  H19 <0> d          -7.090  -3.724  -5.033  0.00  0.00     0.157 HD
ENDBRANCH  15  21
ENDBRANCH   1  14
TORSDOF 8
