REMARK  5 active torsions:
REMARK  status: ('A' for Active; 'I' for Inactive)
REMARK    1  A    between atoms: C3_3  and  C6_8 
REMARK    2  A    between atoms: C6_8  and  N3_10 
REMARK       I    between atoms: N3_10  and  C8_11 
REMARK       I    between atoms: C8_11  and  N4_13 
REMARK    3  A    between atoms: N4_13  and  C9_14 
REMARK    4  A    between atoms: C12_17  and  C15_20 
REMARK    5  A    between atoms: C15_20  and  N5_21 
ROOT
ATOM      1  C9  <0> d          -2.190  -1.625  -6.582  0.00  0.00     0.036 A 
ATOM      2  C10 <0> d          -2.125  -0.297  -6.982  0.00  0.00     0.030 A 
ATOM      3  C11 <0> d          -2.626   0.077  -8.214  0.00  0.00     0.011 A 
ATOM      4  C12 <0> d          -3.191  -0.870  -9.048  0.00  0.00    -0.032 A 
ATOM      5  C13 <0> d          -3.257  -2.193  -8.652  0.00  0.00     0.011 A 
ATOM      6  C14 <0> d          -2.753  -2.575  -7.424  0.00  0.00     0.030 A 
ENDROOT
BRANCH   1   7
ATOM      7  N4  <0> d          -1.683  -2.007  -5.335  0.00  0.00    -0.309 N 
ATOM      8  C8  <0> d          -1.086  -3.207  -5.188  0.00  0.00     0.321 C 
ATOM      9  N3  <0> d          -0.516  -3.537  -4.013  0.00  0.00    -0.334 N 
ATOM     10  O1  <0> d          -1.062  -3.991  -6.117  0.00  0.00    -0.247 OA
ATOM     11  H13 <0> d          -0.535  -2.911  -3.272  0.00  0.00     0.165 HD
ATOM     12  H14 <0> d          -1.762  -1.409  -4.575  0.00  0.00     0.170 HD
BRANCH   9  13
ATOM     13  C6  <0> d           0.133  -4.840  -3.854  0.00  0.00     0.119 C 
ATOM     14  C7  <0> d          -0.914  -5.888  -3.472  0.00  0.00     0.037 C 
BRANCH  13  15
ATOM     15  C3  <0> d           1.175  -4.754  -2.769  0.00  0.00     0.007 A 
ATOM     16  C2  <0> d           2.267  -5.544  -2.648  0.00  0.00     0.036 A 
ATOM     17  C1  <0> d           2.656  -6.668  -3.573  0.00  0.00     0.070 C 
ATOM     18  N2  <0> d           2.941  -5.150  -1.548  0.00  0.00    -0.278 N 
ATOM     19  N1  <0> d           2.245  -4.076  -0.978  0.00  0.00    -0.184 NA
ATOM     20  C5  <0> d           4.183  -5.739  -1.040  0.00  0.00     0.179 C 
ATOM     21  C4  <0> d           1.186  -3.841  -1.708  0.00  0.00     0.150 A 
ENDBRANCH  13  15
ENDBRANCH   9  13
ENDBRANCH   1   7
BRANCH   4  22
ATOM     22  C15 <0> d          -3.736  -0.459 -10.392  0.00  0.00     0.273 C 
BRANCH  22  23
ATOM     23  N5  <0> d          -2.675  -0.559 -11.402  0.00  0.00    -0.067 N 
ATOM     24  C20 <0> d          -3.236  -0.274 -12.729  0.00  0.00     0.239 C 
ATOM     25  C19 <0> d          -2.153  -0.456 -13.794  0.00  0.00     0.007 C 
ATOM     26  C18 <0> d          -0.997   0.507 -13.510  0.00  0.00     0.007 C 
ATOM     27  C21 <0> d          -2.739  -0.157 -15.176  0.00  0.00     0.011 C 
ATOM     28  C17 <0> d          -0.468   0.251 -12.095  0.00  0.00     0.028 C 
ATOM     29  C16 <0> d          -1.613   0.406 -11.093  0.00  0.00     0.235 C 
ATOM     30  H32 <0> d          -2.291  -1.492 -11.394  0.00  0.00     0.280 HD
ENDBRANCH  22  23
ENDBRANCH   4  22
TORSDOF 5
