REMARK  3 active torsions:
REMARK  status: ('A' for Active; 'I' for Inactive)
REMARK    1  A    between atoms: N1_2  and  C2_3 
REMARK    2  A    between atoms: C2_3  and  C3_4 
REMARK    3  A    between atoms: C2_3  and  C11_15 
ROOT
ATOM      1  C3  <0> d           2.137  -0.060  -1.158  0.00  0.00    -0.019 A 
ATOM      2  C4  <0> d           2.834  -0.128   0.036  0.00  0.00     0.012 A 
ATOM      3  C5  <0> d           4.160   0.253   0.089  0.00  0.00     0.033 A 
ATOM      4  C6  <0> d           4.794   0.705  -1.058  0.00  0.00     0.073 A 
ATOM      5  C7  <0> d           4.092   0.774  -2.262  0.00  0.00     0.108 A 
ATOM      6  C8  <0> d           2.763   0.385  -2.306  0.00  0.00     0.049 A 
ATOM      7  O1  <0> d           4.949   1.245  -3.201  0.00  0.00    -0.259 OA
ATOM      8  C9  <0> d           6.145   1.469  -2.633  0.00  0.00     0.372 A 
ATOM      9  O2  <0> d           7.128   1.894  -3.210  0.00  0.00    -0.238 OA
ATOM     10  N2  <0> d           6.088   1.151  -1.325  0.00  0.00    -0.295 N 
ATOM     11  C10 <0> d           7.185   1.254  -0.359  0.00  0.00     0.162 C 
ENDROOT
BRANCH   1  12
ATOM     12  C2  <0> d           0.690  -0.478  -1.207  0.00  0.00     0.275 C 
BRANCH  12  13
ATOM     13  N1  <0> d           0.002  -0.004   0.002  0.00  0.00    -0.065 N 
ATOM     14  C1  <0> d          -0.018   1.465   0.010  0.00  0.00     0.268 C 
ATOM     15  H5  <0> d           0.490  -0.338   0.820  0.00  0.00     0.277 HD
ATOM     16  H14 <0> d          -0.945  -0.353   0.009  0.00  0.00     0.277 HD
ENDBRANCH  12  13
BRANCH  12  17
ATOM     17  C11 <0> d           0.603  -1.981  -1.277  0.00  0.00     0.089 A 
ATOM     18  O3  <0> d           0.725  -2.824  -0.239  0.00  0.00    -0.305 OA
ATOM     19  C14 <0> d           0.590  -4.089  -0.671  0.00  0.00     0.122 A 
ATOM     20  C13 <0> d           0.387  -4.064  -2.002  0.00  0.00     0.048 A 
ATOM     21 Br1  <0> d           0.676  -5.641   0.406  0.00  0.00    -0.023 Br
ATOM     22  C12 <0> d           0.396  -2.705  -2.392  0.00  0.00     0.038 A 
ENDBRANCH  12  17
ENDBRANCH   1  12
TORSDOF 3
