REMARK  5 active torsions:
REMARK  status: ('A' for Active; 'I' for Inactive)
REMARK    1  A    between atoms: C2_2  and  N1_3 
REMARK    2  A    between atoms: N1_3  and  C3_4 
REMARK    3  A    between atoms: N1_3  and  C11_14 
REMARK    4  A    between atoms: C11_14  and  C13_16 
REMARK    5  A    between atoms: C13_16  and  N2_17 
ROOT
ATOM      1  C3  <0> d           2.401   0.024  -0.032  0.00  0.00     0.033 A 
ATOM      2  C4  <0> d           1.206  -0.683  -0.045  0.00  0.00     0.032 A 
ATOM      3  C5  <0> d           0.002  -0.005  -0.033  0.00  0.00     0.042 A 
ATOM      4  C6  <0> d          -0.018   1.381  -0.010  0.00  0.00     0.102 A 
ATOM      5  C7  <0> d           1.177   2.091   0.004  0.00  0.00     0.104 A 
ATOM      6  C8  <0> d           2.385   1.411  -0.008  0.00  0.00     0.069 A 
ATOM      7  O1  <0> d           1.178   3.452   0.036  0.00  0.00    -0.346 OA
ATOM      8  C9  <0> d          -0.043   4.106  -0.329  0.00  0.00     0.202 C 
ATOM      9  C10 <0> d          -1.199   3.406   0.397  0.00  0.00     0.202 C 
ATOM     10  O2  <0> d          -1.215   2.032  -0.007  0.00  0.00    -0.346 OA
ENDROOT
BRANCH   1  11
ATOM     11  N1  <0> d           3.620  -0.662  -0.045  0.00  0.00    -0.375 N 
BRANCH  11  12
ATOM     12  C2  <0> d           4.878   0.081  -0.159  0.00  0.00     0.119 C 
ATOM     13  C1  <0> d           5.386   0.440   1.239  0.00  0.00     0.026 C 
ENDBRANCH  11  12
BRANCH  11  14
ATOM     14  C11 <0> d           3.639  -2.123   0.057  0.00  0.00     0.105 C 
ATOM     15  C12 <0> d           4.326  -2.535   1.361  0.00  0.00     0.034 C 
BRANCH  14  16
ATOM     16  C13 <0> d           4.407  -2.707  -1.131  0.00  0.00     0.254 C 
BRANCH  16  17
ATOM     17  N2  <0> d           3.820  -2.215  -2.384  0.00  0.00    -0.077 N 
ATOM     18  H19 <0> d           4.372  -2.634  -3.238  0.00  0.00     0.274 HD
ATOM     19  H20 <0> d           3.882  -1.117  -2.411  0.00  0.00     0.274 HD
ATOM     20  H21 <0> d           2.766  -2.524  -2.441  0.00  0.00     0.274 HD
ENDBRANCH  16  17
ENDBRANCH  14  16
ENDBRANCH  11  14
ENDBRANCH   1  11
TORSDOF 5
