REMARK  4 active torsions:
REMARK  status: ('A' for Active; 'I' for Inactive)
REMARK    1  A    between atoms: C6_8  and  C7_9 
REMARK    2  A    between atoms: C7_9  and  N2_10 
REMARK       I    between atoms: N2_10  and  C8_11 
REMARK    3  A    between atoms: C8_11  and  C9_13 
REMARK    4  A    between atoms: C9_13  and  N3_14 
ROOT
ATOM      1  N2  <0> d           1.254  -1.039   3.394  0.00  0.00    -0.359 N 
ATOM      2  C8  <0> d           2.254  -0.816   4.269  0.00  0.00     0.235 C 
ATOM      3  O2  <0> d           3.162  -0.067   3.975  0.00  0.00    -0.272 OA
ATOM      4  H8  <0> d           0.528  -1.638   3.629  0.00  0.00     0.162 HD
ENDROOT
BRANCH   2   5
ATOM      5  C9  <0> d           2.245  -1.496   5.614  0.00  0.00     0.235 C 
BRANCH   5   6
ATOM      6  N3  <0> d           3.430  -1.092   6.374  0.00  0.00    -0.299 N 
ATOM      7  C13 <0> d           3.378  -0.004   7.176  0.00  0.00     0.264 A 
ATOM      8  C12 <0> d           4.590   0.351   7.915  0.00  0.00     0.099 A 
ATOM      9  O3  <0> d           2.358   0.655   7.282  0.00  0.00    -0.267 OA
ATOM     10  C11 <0> d           5.729  -0.451   7.739  0.00  0.00     0.164 A 
ATOM     11  C14 <0> d           4.932   1.370   8.822  0.00  0.00     0.160 A 
ATOM     12  N4  <0> d           5.666  -1.506   6.912  0.00  0.00    -0.224 NA
ATOM     13  N6  <0> d           6.704   0.085   8.519  0.00  0.00    -0.256 N 
ATOM     14  C10 <0> d           4.578  -1.808   6.266  0.00  0.00     0.215 A 
ATOM     15  N5  <0> d           6.178   1.206   9.173  0.00  0.00    -0.182 NA
ATOM     16  C15 <0> d           8.071  -0.424   8.654  0.00  0.00     0.182 C 
ENDBRANCH   5   6
ENDBRANCH   2   5
BRANCH   1  17
ATOM     17  C7  <0> d           1.263  -0.378   2.087  0.00  0.00     0.141 C 
BRANCH  17  18
ATOM     18  C6  <0> d           0.025  -0.799   1.293  0.00  0.00     0.126 A 
ATOM     19  C2  <0> d           0.002  -0.004   0.002  0.00  0.00    -0.067 A 
ATOM     20  C1  <0> d          -0.018   1.503   0.010  0.00  0.00     0.044 C 
ATOM     21  C3  <0> d           0.006  -0.695  -1.148  0.00  0.00     0.030 A 
ATOM     22  C4  <0> d           0.025  -2.103  -1.149  0.00  0.00     0.034 A 
ATOM     23  N1  <0> d           0.040  -2.837  -0.070  0.00  0.00    -0.219 NA
ATOM     24  C16 <0> d           0.028  -2.807  -2.482  0.00  0.00     0.070 C 
ATOM     25  C5  <0> d           0.039  -2.309   1.161  0.00  0.00     0.253 A 
ATOM     26  O1  <0> d           0.054  -3.021   2.144  0.00  0.00    -0.270 OA
ENDBRANCH  17  18
ENDBRANCH   1  17
TORSDOF 4
